MODEL 1
REMARK VINA RESULT:      -7.9      0.000      0.000
REMARK  Name = 
REMARK  4 active torsions:
REMARK  status: ('A' for Active; 'I' for Inactive)
REMARK    1  A    between atoms: C_1  and  N_2
REMARK    2  A    between atoms: C_6  and  N_7
REMARK    3  A    between atoms: C_12  and  N_13
REMARK    4  A    between atoms: C_14  and  C_16
REMARK                            x       y       z     vdW  Elec       q    Type
REMARK                         _______ _______ _______ _____ _____    ______ ____
ROOT
ATOM      1  N   UNL     1       2.415   7.118  19.248  0.00  0.00    +0.000 N 
ATOM      2  C   UNL     1       2.596   7.571  17.963  0.00  0.00    +0.000 A 
ATOM      3  C   UNL     1       2.031   8.824  17.865  0.00  0.00    +0.000 A 
ATOM      4  C   UNL     1       1.427   9.127  19.114  0.00  0.00    +0.000 A 
ATOM      5  C   UNL     1       0.725  10.246  19.624  0.00  0.00    +0.000 A 
ATOM      6  C   UNL     1       0.210  10.247  20.937  0.00  0.00    +0.000 A 
ATOM      7  C   UNL     1       0.374   9.091  21.702  0.00  0.00    +0.000 A 
ATOM      8  C   UNL     1       1.084   7.976  21.236  0.00  0.00    +0.000 A 
ATOM      9  C   UNL     1       1.628   8.023  19.945  0.00  0.00    +0.000 A 
ENDROOT
BRANCH   1  15
ATOM     10  C   UNL     1       3.644   1.436  18.509  0.00  0.00    +0.000 C 
ATOM     11  N   UNL     1       3.111   2.787  18.726  0.00  0.00    +0.000 NA
ATOM     12  C   UNL     1       1.969   2.715  19.644  0.00  0.00    +0.000 C 
ATOM     13  C   UNL     1       1.205   4.026  19.857  0.00  0.00    +0.000 C 
ATOM     14  C   UNL     1       1.980   5.085  20.629  0.00  0.00    +0.000 C 
ATOM     15  C   UNL     1       3.004   5.897  19.823  0.00  0.00    +0.000 C 
ATOM     16  C   UNL     1       3.881   5.132  18.819  0.00  0.00    +0.000 C 
ATOM     17  C   UNL     1       4.183   3.681  19.183  0.00  0.00    +0.000 C 
ENDBRANCH   1  15
BRANCH   6  18
ATOM     18  N   UNL     1      -0.366  11.433  21.432  0.00  0.00    +0.000 N 
ATOM     19  C   UNL     1       0.178  12.670  21.710  0.00  0.00    +0.000 C 
ATOM     20  N   UNL     1       1.384  13.047  21.412  0.00  0.00    +0.000 NA
ATOM     21  H   UNL     1      -1.363  11.370  21.617  0.00  0.00    +0.000 HD
ATOM     22  H   UNL     1       1.844  12.307  20.887  0.00  0.00    +0.000 HD
BRANCH  19  23
ATOM     23  C   UNL     1      -0.640  13.711  22.323  0.00  0.00    +0.000 A 
ATOM     24  C   UNL     1      -1.397  14.733  21.776  0.00  0.00    +0.000 A 
ATOM     25  C   UNL     1      -2.050  15.378  22.856  0.00  0.00    +0.000 A 
ATOM     26  C   UNL     1      -1.635  14.729  23.994  0.00  0.00    +0.000 A 
ATOM     27  O   UNL     1      -0.773  13.724  23.687  0.00  0.00    +0.000 OA
ENDBRANCH  19  23
ENDBRANCH   6  18
TORSDOF 3
ENDMDL
MODEL 2
REMARK VINA RESULT:      -7.8      3.431      9.411
REMARK  Name = 
REMARK  4 active torsions:
REMARK  status: ('A' for Active; 'I' for Inactive)
REMARK    1  A    between atoms: C_1  and  N_2
REMARK    2  A    between atoms: C_6  and  N_7
REMARK    3  A    between atoms: C_12  and  N_13
REMARK    4  A    between atoms: C_14  and  C_16
REMARK                            x       y       z     vdW  Elec       q    Type
REMARK                         _______ _______ _______ _____ _____    ______ ____
ROOT
ATOM      1  N   UNL     1       0.608  10.088  20.643  0.00  0.00    +0.000 N 
ATOM      2  C   UNL     1       0.525   9.377  21.816  0.00  0.00    +0.000 A 
ATOM      3  C   UNL     1       1.188   8.182  21.641  0.00  0.00    +0.000 A 
ATOM      4  C   UNL     1       1.642   8.128  20.296  0.00  0.00    +0.000 A 
ATOM      5  C   UNL     1       2.382   7.186  19.542  0.00  0.00    +0.000 A 
ATOM      6  C   UNL     1       2.668   7.407  18.179  0.00  0.00    +0.000 A 
ATOM      7  C   UNL     1       2.160   8.564  17.586  0.00  0.00    +0.000 A 
ATOM      8  C   UNL     1       1.445   9.528  18.310  0.00  0.00    +0.000 A 
ATOM      9  C   UNL     1       1.218   9.305  19.674  0.00  0.00    +0.000 A 
ENDROOT
BRANCH   1  15
ATOM     10  C   UNL     1       0.876  15.628  22.535  0.00  0.00    +0.000 C 
ATOM     11  N   UNL     1       0.666  14.204  22.247  0.00  0.00    +0.000 NA
ATOM     12  C   UNL     1      -0.673  13.811  22.702  0.00  0.00    +0.000 C 
ATOM     13  C   UNL     1      -0.994  12.316  22.610  0.00  0.00    +0.000 C 
ATOM     14  C   UNL     1      -1.134  11.792  21.187  0.00  0.00    +0.000 C 
ATOM     15  C   UNL     1       0.175  11.483  20.448  0.00  0.00    +0.000 C 
ATOM     16  C   UNL     1       1.329  12.488  20.600  0.00  0.00    +0.000 C 
ATOM     17  C   UNL     1       0.909  13.938  20.824  0.00  0.00    +0.000 C 
ENDBRANCH   1  15
BRANCH   6  18
ATOM     18  N   UNL     1       3.515   6.499  17.514  0.00  0.00    +0.000 N 
ATOM     19  C   UNL     1       4.850   6.572  17.173  0.00  0.00    +0.000 C 
ATOM     20  N   UNL     1       5.676   7.499  17.552  0.00  0.00    +0.000 NA
ATOM     21  H   UNL     1       3.066   5.632  17.237  0.00  0.00    +0.000 HD
ATOM     22  H   UNL     1       5.197   8.129  18.190  0.00  0.00    +0.000 HD
BRANCH  19  23
ATOM     23  C   UNL     1       5.464   5.511  16.381  0.00  0.00    +0.000 A 
ATOM     24  C   UNL     1       5.146   4.173  16.225  0.00  0.00    +0.000 A 
ATOM     25  C   UNL     1       6.041   3.652  15.257  0.00  0.00    +0.000 A 
ATOM     26  C   UNL     1       6.862   4.694  14.899  0.00  0.00    +0.000 A 
ATOM     27  O   UNL     1       6.531   5.823  15.579  0.00  0.00    +0.000 OA
ENDBRANCH  19  23
ENDBRANCH   6  18
TORSDOF 3
ENDMDL
MODEL 3
REMARK VINA RESULT:      -7.7      0.966      1.200
REMARK  Name = 
REMARK  4 active torsions:
REMARK  status: ('A' for Active; 'I' for Inactive)
REMARK    1  A    between atoms: C_1  and  N_2
REMARK    2  A    between atoms: C_6  and  N_7
REMARK    3  A    between atoms: C_12  and  N_13
REMARK    4  A    between atoms: C_14  and  C_16
REMARK                            x       y       z     vdW  Elec       q    Type
REMARK                         _______ _______ _______ _____ _____    ______ ____
ROOT
ATOM      1  N   UNL     1       2.148   7.536  19.256  0.00  0.00    +0.000 N 
ATOM      2  C   UNL     1       2.008   7.975  17.961  0.00  0.00    +0.000 A 
ATOM      3  C   UNL     1       1.437   9.229  17.992  0.00  0.00    +0.000 A 
ATOM      4  C   UNL     1       1.159   9.547  19.348  0.00  0.00    +0.000 A 
ATOM      5  C   UNL     1       0.606  10.674  20.002  0.00  0.00    +0.000 A 
ATOM      6  C   UNL     1       0.430  10.690  21.401  0.00  0.00    +0.000 A 
ATOM      7  C   UNL     1       0.777   9.542  22.115  0.00  0.00    +0.000 A 
ATOM      8  C   UNL     1       1.349   8.420  21.501  0.00  0.00    +0.000 A 
ATOM      9  C   UNL     1       1.558   8.451  20.115  0.00  0.00    +0.000 A 
ENDROOT
BRANCH   1  15
ATOM     10  C   UNL     1       3.504   1.963  18.056  0.00  0.00    +0.000 C 
ATOM     11  N   UNL     1       2.949   3.275  18.414  0.00  0.00    +0.000 NA
ATOM     12  C   UNL     1       1.944   3.103  19.469  0.00  0.00    +0.000 C 
ATOM     13  C   UNL     1       1.161   4.363  19.852  0.00  0.00    +0.000 C 
ATOM     14  C   UNL     1       1.988   5.421  20.571  0.00  0.00    +0.000 C 
ATOM     15  C   UNL     1       2.860   6.319  19.682  0.00  0.00    +0.000 C 
ATOM     16  C   UNL     1       3.625   5.647  18.531  0.00  0.00    +0.000 C 
ATOM     17  C   UNL     1       4.034   4.196  18.773  0.00  0.00    +0.000 C 
ENDBRANCH   1  15
BRANCH   6  18
ATOM     18  N   UNL     1      -0.006  11.884  22.010  0.00  0.00    +0.000 N 
ATOM     19  C   UNL     1      -1.124  12.173  22.764  0.00  0.00    +0.000 C 
ATOM     20  N   UNL     1      -1.979  11.303  23.209  0.00  0.00    +0.000 NA
ATOM     21  H   UNL     1       0.615  12.676  21.873  0.00  0.00    +0.000 HD
ATOM     22  H   UNL     1      -1.660  10.369  22.965  0.00  0.00    +0.000 HD
BRANCH  19  23
ATOM     23  C   UNL     1      -1.386  13.542  23.193  0.00  0.00    +0.000 A 
ATOM     24  C   UNL     1      -0.663  14.713  23.039  0.00  0.00    +0.000 A 
ATOM     25  C   UNL     1      -1.455  15.755  23.583  0.00  0.00    +0.000 A 
ATOM     26  C   UNL     1      -2.599  15.157  24.055  0.00  0.00    +0.000 A 
ATOM     27  O   UNL     1      -2.566  13.816  23.835  0.00  0.00    +0.000 OA
ENDBRANCH  19  23
ENDBRANCH   6  18
TORSDOF 3
ENDMDL
MODEL 4
REMARK VINA RESULT:      -7.6      3.509      9.304
REMARK  Name = 
REMARK  4 active torsions:
REMARK  status: ('A' for Active; 'I' for Inactive)
REMARK    1  A    between atoms: C_1  and  N_2
REMARK    2  A    between atoms: C_6  and  N_7
REMARK    3  A    between atoms: C_12  and  N_13
REMARK    4  A    between atoms: C_14  and  C_16
REMARK                            x       y       z     vdW  Elec       q    Type
REMARK                         _______ _______ _______ _____ _____    ______ ____
ROOT
ATOM      1  N   UNL     1      -0.116  10.198  20.284  0.00  0.00    +0.000 N 
ATOM      2  C   UNL     1      -0.216   9.553  21.493  0.00  0.00    +0.000 A 
ATOM      3  C   UNL     1       0.665   8.494  21.490  0.00  0.00    +0.000 A 
ATOM      4  C   UNL     1       1.285   8.447  20.213  0.00  0.00    +0.000 A 
ATOM      5  C   UNL     1       2.269   7.616  19.625  0.00  0.00    +0.000 A 
ATOM      6  C   UNL     1       2.679   7.807  18.289  0.00  0.00    +0.000 A 
ATOM      7  C   UNL     1       2.051   8.812  17.551  0.00  0.00    +0.000 A 
ATOM      8  C   UNL     1       1.091   9.667  18.111  0.00  0.00    +0.000 A 
ATOM      9  C   UNL     1       0.739   9.486  19.455  0.00  0.00    +0.000 A 
ENDROOT
BRANCH   1  15
ATOM     10  C   UNL     1      -4.988  13.450  20.444  0.00  0.00    +0.000 C 
ATOM     11  N   UNL     1      -3.878  12.511  20.233  0.00  0.00    +0.000 NA
ATOM     12  C   UNL     1      -3.867  12.083  18.830  0.00  0.00    +0.000 C 
ATOM     13  C   UNL     1      -2.859  10.985  18.479  0.00  0.00    +0.000 C 
ATOM     14  C   UNL     1      -1.403  11.430  18.535  0.00  0.00    +0.000 C 
ATOM     15  C   UNL     1      -0.762  11.473  19.930  0.00  0.00    +0.000 C 
ATOM     16  C   UNL     1      -1.605  12.049  21.079  0.00  0.00    +0.000 C 
ATOM     17  C   UNL     1      -2.618  13.118  20.677  0.00  0.00    +0.000 C 
ENDBRANCH   1  15
BRANCH   6  18
ATOM     18  N   UNL     1       3.750   7.035  17.798  0.00  0.00    +0.000 N 
ATOM     19  C   UNL     1       3.883   5.677  17.596  0.00  0.00    +0.000 C 
ATOM     20  N   UNL     1       2.928   4.803  17.691  0.00  0.00    +0.000 NA
ATOM     21  H   UNL     1       4.573   7.572  17.545  0.00  0.00    +0.000 HD
ATOM     22  H   UNL     1       2.053   5.286  17.880  0.00  0.00    +0.000 HD
BRANCH  19  23
ATOM     23  C   UNL     1       5.162   5.121  17.165  0.00  0.00    +0.000 A 
ATOM     24  C   UNL     1       5.598   4.649  15.938  0.00  0.00    +0.000 A 
ATOM     25  C   UNL     1       6.967   4.317  16.094  0.00  0.00    +0.000 A 
ATOM     26  C   UNL     1       7.276   4.583  17.406  0.00  0.00    +0.000 A 
ATOM     27  O   UNL     1       6.190   5.061  18.069  0.00  0.00    +0.000 OA
ENDBRANCH  19  23
ENDBRANCH   6  18
TORSDOF 3
ENDMDL
MODEL 5
REMARK VINA RESULT:      -7.6      1.417      1.601
REMARK  Name = 
REMARK  4 active torsions:
REMARK  status: ('A' for Active; 'I' for Inactive)
REMARK    1  A    between atoms: C_1  and  N_2
REMARK    2  A    between atoms: C_6  and  N_7
REMARK    3  A    between atoms: C_12  and  N_13
REMARK    4  A    between atoms: C_14  and  C_16
REMARK                            x       y       z     vdW  Elec       q    Type
REMARK                         _______ _______ _______ _____ _____    ______ ____
ROOT
ATOM      1  N   UNL     1       2.143   7.890  18.821  0.00  0.00    +0.000 N 
ATOM      2  C   UNL     1       2.052   8.543  17.616  0.00  0.00    +0.000 A 
ATOM      3  C   UNL     1       1.306   9.687  17.803  0.00  0.00    +0.000 A 
ATOM      4  C   UNL     1       0.871   9.706  19.155  0.00  0.00    +0.000 A 
ATOM      5  C   UNL     1       0.107  10.611  19.932  0.00  0.00    +0.000 A 
ATOM      6  C   UNL     1      -0.188  10.341  21.284  0.00  0.00    +0.000 A 
ATOM      7  C   UNL     1       0.259   9.131  21.820  0.00  0.00    +0.000 A 
ATOM      8  C   UNL     1       1.037   8.226  21.085  0.00  0.00    +0.000 A 
ATOM      9  C   UNL     1       1.357   8.544  19.758  0.00  0.00    +0.000 A 
ENDROOT
BRANCH   1  15
ATOM     10  C   UNL     1       5.428   3.559  16.632  0.00  0.00    +0.000 C 
ATOM     11  N   UNL     1       4.419   4.515  17.106  0.00  0.00    +0.000 NA
ATOM     12  C   UNL     1       3.204   3.787  17.487  0.00  0.00    +0.000 C 
ATOM     13  C   UNL     1       2.000   4.655  17.864  0.00  0.00    +0.000 C 
ATOM     14  C   UNL     1       2.162   5.418  19.172  0.00  0.00    +0.000 C 
ATOM     15  C   UNL     1       2.983   6.713  19.103  0.00  0.00    +0.000 C 
ATOM     16  C   UNL     1       4.271   6.691  18.264  0.00  0.00    +0.000 C 
ATOM     17  C   UNL     1       4.978   5.340  18.183  0.00  0.00    +0.000 C 
ENDBRANCH   1  15
BRANCH   6  18
ATOM     18  N   UNL     1      -0.841  11.333  22.041  0.00  0.00    +0.000 N 
ATOM     19  C   UNL     1      -0.496  12.637  22.334  0.00  0.00    +0.000 C 
ATOM     20  N   UNL     1       0.497  13.289  21.814  0.00  0.00    +0.000 NA
ATOM     21  H   UNL     1      -1.726  11.040  22.442  0.00  0.00    +0.000 HD
ATOM     22  H   UNL     1       0.946  12.707  21.110  0.00  0.00    +0.000 HD
BRANCH  19  23
ATOM     23  C   UNL     1      -1.320  13.426  23.243  0.00  0.00    +0.000 A 
ATOM     24  C   UNL     1      -2.646  13.309  23.626  0.00  0.00    +0.000 A 
ATOM     25  C   UNL     1      -2.875  14.306  24.607  0.00  0.00    +0.000 A 
ATOM     26  C   UNL     1      -1.688  14.984  24.746  0.00  0.00    +0.000 A 
ATOM     27  O   UNL     1      -0.740  14.468  23.919  0.00  0.00    +0.000 OA
ENDBRANCH  19  23
ENDBRANCH   6  18
TORSDOF 3
ENDMDL
MODEL 6
REMARK VINA RESULT:      -7.6      3.343      9.420
REMARK  Name = 
REMARK  4 active torsions:
REMARK  status: ('A' for Active; 'I' for Inactive)
REMARK    1  A    between atoms: C_1  and  N_2
REMARK    2  A    between atoms: C_6  and  N_7
REMARK    3  A    between atoms: C_12  and  N_13
REMARK    4  A    between atoms: C_14  and  C_16
REMARK                            x       y       z     vdW  Elec       q    Type
REMARK                         _______ _______ _______ _____ _____    ______ ____
ROOT
ATOM      1  N   UNL     1       0.153  10.174  20.803  0.00  0.00    +0.000 N 
ATOM      2  C   UNL     1       0.036   9.366  21.908  0.00  0.00    +0.000 A 
ATOM      3  C   UNL     1       0.813   8.246  21.706  0.00  0.00    +0.000 A 
ATOM      4  C   UNL     1       1.380   8.338  20.407  0.00  0.00    +0.000 A 
ATOM      5  C   UNL     1       2.260   7.523  19.655  0.00  0.00    +0.000 A 
ATOM      6  C   UNL     1       2.638   7.876  18.343  0.00  0.00    +0.000 A 
ATOM      7  C   UNL     1       2.081   9.032  17.793  0.00  0.00    +0.000 A 
ATOM      8  C   UNL     1       1.226   9.872  18.519  0.00  0.00    +0.000 A 
ATOM      9  C   UNL     1       0.907   9.523  19.838  0.00  0.00    +0.000 A 
ENDROOT
BRANCH   1  15
ATOM     10  C   UNL     1       0.355  15.731  22.652  0.00  0.00    +0.000 C 
ATOM     11  N   UNL     1       0.191  14.294  22.393  0.00  0.00    +0.000 NA
ATOM     12  C   UNL     1      -1.047  13.828  23.027  0.00  0.00    +0.000 C 
ATOM     13  C   UNL     1      -1.290  12.316  22.977  0.00  0.00    +0.000 C 
ATOM     14  C   UNL     1      -1.594  11.776  21.585  0.00  0.00    +0.000 C 
ATOM     15  C   UNL     1      -0.383  11.540  20.672  0.00  0.00    +0.000 C 
ATOM     16  C   UNL     1       0.719  12.610  20.666  0.00  0.00    +0.000 C 
ATOM     17  C   UNL     1       0.252  14.035  20.950  0.00  0.00    +0.000 C 
ENDBRANCH   1  15
BRANCH   6  18
ATOM     18  N   UNL     1       3.614   7.096  17.692  0.00  0.00    +0.000 N 
ATOM     19  C   UNL     1       3.726   5.733  17.511  0.00  0.00    +0.000 C 
ATOM     20  N   UNL     1       2.815   4.856  17.803  0.00  0.00    +0.000 NA
ATOM     21  H   UNL     1       4.371   7.631  17.279  0.00  0.00    +0.000 HD
ATOM     22  H   UNL     1       1.982   5.338  18.130  0.00  0.00    +0.000 HD
BRANCH  19  23
ATOM     23  C   UNL     1       4.913   5.173  16.875  0.00  0.00    +0.000 A 
ATOM     24  C   UNL     1       6.264   5.398  17.080  0.00  0.00    +0.000 A 
ATOM     25  C   UNL     1       6.960   4.500  16.232  0.00  0.00    +0.000 A 
ATOM     26  C   UNL     1       5.996   3.801  15.546  0.00  0.00    +0.000 A 
ATOM     27  O   UNL     1       4.752   4.204  15.918  0.00  0.00    +0.000 OA
ENDBRANCH  19  23
ENDBRANCH   6  18
TORSDOF 3
ENDMDL
MODEL 7
REMARK VINA RESULT:      -7.5      0.904      1.178
REMARK  Name = 
REMARK  4 active torsions:
REMARK  status: ('A' for Active; 'I' for Inactive)
REMARK    1  A    between atoms: C_1  and  N_2
REMARK    2  A    between atoms: C_6  and  N_7
REMARK    3  A    between atoms: C_12  and  N_13
REMARK    4  A    between atoms: C_14  and  C_16
REMARK                            x       y       z     vdW  Elec       q    Type
REMARK                         _______ _______ _______ _____ _____    ______ ____
ROOT
ATOM      1  N   UNL     1       2.347   7.099  19.292  0.00  0.00    +0.000 N 
ATOM      2  C   UNL     1       2.441   7.481  17.976  0.00  0.00    +0.000 A 
ATOM      3  C   UNL     1       1.944   8.761  17.863  0.00  0.00    +0.000 A 
ATOM      4  C   UNL     1       1.471   9.159  19.142  0.00  0.00    +0.000 A 
ATOM      5  C   UNL     1       0.883  10.342  19.652  0.00  0.00    +0.000 A 
ATOM      6  C   UNL     1       0.487  10.434  21.002  0.00  0.00    +0.000 A 
ATOM      7  C   UNL     1       0.651   9.307  21.809  0.00  0.00    +0.000 A 
ATOM      8  C   UNL     1       1.250   8.129  21.341  0.00  0.00    +0.000 A 
ATOM      9  C   UNL     1       1.680   8.083  20.008  0.00  0.00    +0.000 A 
ENDROOT
BRANCH   1  15
ATOM     10  C   UNL     1       3.624   1.431  18.531  0.00  0.00    +0.000 C 
ATOM     11  N   UNL     1       3.079   2.778  18.742  0.00  0.00    +0.000 NA
ATOM     12  C   UNL     1       1.895   2.691  19.604  0.00  0.00    +0.000 C 
ATOM     13  C   UNL     1       1.118   3.996  19.801  0.00  0.00    +0.000 C 
ATOM     14  C   UNL     1       1.855   5.046  20.623  0.00  0.00    +0.000 C 
ATOM     15  C   UNL     1       2.912   5.871  19.877  0.00  0.00    +0.000 C 
ATOM     16  C   UNL     1       3.837   5.123  18.903  0.00  0.00    +0.000 C 
ATOM     17  C   UNL     1       4.125   3.667  19.261  0.00  0.00    +0.000 C 
ENDBRANCH   1  15
BRANCH   6  18
ATOM     18  N   UNL     1       0.027  11.676  21.483  0.00  0.00    +0.000 N 
ATOM     19  C   UNL     1      -1.060  12.449  21.133  0.00  0.00    +0.000 C 
ATOM     20  N   UNL     1      -2.016  12.087  20.333  0.00  0.00    +0.000 NA
ATOM     21  H   UNL     1       0.596  12.075  22.224  0.00  0.00    +0.000 HD
ATOM     22  H   UNL     1      -1.868  11.120  20.054  0.00  0.00    +0.000 HD
BRANCH  19  23
ATOM     23  C   UNL     1      -1.248  13.766  21.732  0.00  0.00    +0.000 A 
ATOM     24  C   UNL     1      -0.637  14.386  22.809  0.00  0.00    +0.000 A 
ATOM     25  C   UNL     1      -1.162  15.702  22.872  0.00  0.00    +0.000 A 
ATOM     26  C   UNL     1      -2.074  15.797  21.848  0.00  0.00    +0.000 A 
ATOM     27  O   UNL     1      -2.144  14.629  21.156  0.00  0.00    +0.000 OA
ENDBRANCH  19  23
ENDBRANCH   6  18
TORSDOF 3
ENDMDL
MODEL 8
REMARK VINA RESULT:      -7.5      3.446      9.527
REMARK  Name = 
REMARK  4 active torsions:
REMARK  status: ('A' for Active; 'I' for Inactive)
REMARK    1  A    between atoms: C_1  and  N_2
REMARK    2  A    between atoms: C_6  and  N_7
REMARK    3  A    between atoms: C_12  and  N_13
REMARK    4  A    between atoms: C_14  and  C_16
REMARK                            x       y       z     vdW  Elec       q    Type
REMARK                         _______ _______ _______ _____ _____    ______ ____
ROOT
ATOM      1  N   UNL     1       0.889  11.308  19.441  0.00  0.00    +0.000 N 
ATOM      2  C   UNL     1       0.322  11.262  20.691  0.00  0.00    +0.000 A 
ATOM      3  C   UNL     1       0.515   9.998  21.205  0.00  0.00    +0.000 A 
ATOM      4  C   UNL     1       1.169   9.220  20.212  0.00  0.00    +0.000 A 
ATOM      5  C   UNL     1       1.638   7.886  20.157  0.00  0.00    +0.000 A 
ATOM      6  C   UNL     1       2.246   7.376  18.991  0.00  0.00    +0.000 A 
ATOM      7  C   UNL     1       2.329   8.214  17.878  0.00  0.00    +0.000 A 
ATOM      8  C   UNL     1       1.895   9.547  17.908  0.00  0.00    +0.000 A 
ATOM      9  C   UNL     1       1.341  10.042  19.096  0.00  0.00    +0.000 A 
ENDROOT
BRANCH   1  15
ATOM     10  C   UNL     1       2.166  17.025  19.274  0.00  0.00    +0.000 C 
ATOM     11  N   UNL     1       1.637  15.661  19.405  0.00  0.00    +0.000 NA
ATOM     12  C   UNL     1       0.181  15.689  19.230  0.00  0.00    +0.000 C 
ATOM     13  C   UNL     1      -0.545  14.364  19.487  0.00  0.00    +0.000 C 
ATOM     14  C   UNL     1      -0.266  13.286  18.448  0.00  0.00    +0.000 C 
ATOM     15  C   UNL     1       1.051  12.514  18.610  0.00  0.00    +0.000 C 
ATOM     16  C   UNL     1       2.305  13.323  18.979  0.00  0.00    +0.000 C 
ATOM     17  C   UNL     1       2.329  14.763  18.474  0.00  0.00    +0.000 C 
ENDBRANCH   1  15
BRANCH   6  18
ATOM     18  N   UNL     1       2.808   6.084  19.036  0.00  0.00    +0.000 N 
ATOM     19  C   UNL     1       2.390   4.884  18.498  0.00  0.00    +0.000 C 
ATOM     20  N   UNL     1       1.404   4.732  17.668  0.00  0.00    +0.000 NA
ATOM     21  H   UNL     1       3.678   6.023  19.555  0.00  0.00    +0.000 HD
ATOM     22  H   UNL     1       1.026   5.646  17.430  0.00  0.00    +0.000 HD
BRANCH  19  23
ATOM     23  C   UNL     1       3.122   3.656  18.789  0.00  0.00    +0.000 A 
ATOM     24  C   UNL     1       4.069   3.351  19.753  0.00  0.00    +0.000 A 
ATOM     25  C   UNL     1       4.361   1.971  19.613  0.00  0.00    +0.000 A 
ATOM     26  C   UNL     1       3.595   1.525  18.563  0.00  0.00    +0.000 A 
ATOM     27  O   UNL     1       2.847   2.536  18.048  0.00  0.00    +0.000 OA
ENDBRANCH  19  23
ENDBRANCH   6  18
TORSDOF 3
ENDMDL
MODEL 9
REMARK VINA RESULT:      -7.5      2.146      3.027
REMARK  Name = 
REMARK  4 active torsions:
REMARK  status: ('A' for Active; 'I' for Inactive)
REMARK    1  A    between atoms: C_1  and  N_2
REMARK    2  A    between atoms: C_6  and  N_7
REMARK    3  A    between atoms: C_12  and  N_13
REMARK    4  A    between atoms: C_14  and  C_16
REMARK                            x       y       z     vdW  Elec       q    Type
REMARK                         _______ _______ _______ _____ _____    ______ ____
ROOT
ATOM      1  N   UNL     1       1.986   7.184  19.331  0.00  0.00    +0.000 N 
ATOM      2  C   UNL     1       1.632   6.820  20.608  0.00  0.00    +0.000 A 
ATOM      3  C   UNL     1       1.134   7.933  21.250  0.00  0.00    +0.000 A 
ATOM      4  C   UNL     1       1.243   9.034  20.359  0.00  0.00    +0.000 A 
ATOM      5  C   UNL     1       0.890  10.403  20.435  0.00  0.00    +0.000 A 
ATOM      6  C   UNL     1       1.149  11.283  19.364  0.00  0.00    +0.000 A 
ATOM      7  C   UNL     1       1.806  10.771  18.244  0.00  0.00    +0.000 A 
ATOM      8  C   UNL     1       2.146   9.416  18.127  0.00  0.00    +0.000 A 
ATOM      9  C   UNL     1       1.832   8.555  19.186  0.00  0.00    +0.000 A 
ENDROOT
BRANCH   1  15
ATOM     10  C   UNL     1       3.581   1.739  17.866  0.00  0.00    +0.000 C 
ATOM     11  N   UNL     1       3.399   3.121  18.328  0.00  0.00    +0.000 NA
ATOM     12  C   UNL     1       4.692   3.815  18.297  0.00  0.00    +0.000 C 
ATOM     13  C   UNL     1       4.702   5.227  18.892  0.00  0.00    +0.000 C 
ATOM     14  C   UNL     1       3.933   6.256  18.074  0.00  0.00    +0.000 C 
ATOM     15  C   UNL     1       2.409   6.267  18.259  0.00  0.00    +0.000 C 
ATOM     16  C   UNL     1       1.695   4.907  18.326  0.00  0.00    +0.000 C 
ATOM     17  C   UNL     1       2.354   3.780  17.536  0.00  0.00    +0.000 C 
ENDBRANCH   1  15
BRANCH   6  18
ATOM     18  N   UNL     1       0.663  12.603  19.446  0.00  0.00    +0.000 N 
ATOM     19  C   UNL     1      -0.255  13.290  18.678  0.00  0.00    +0.000 C 
ATOM     20  N   UNL     1      -1.005  12.771  17.755  0.00  0.00    +0.000 NA
ATOM     21  H   UNL     1       1.054  13.148  20.207  0.00  0.00    +0.000 HD
ATOM     22  H   UNL     1      -0.853  11.766  17.729  0.00  0.00    +0.000 HD
BRANCH  19  23
ATOM     23  C   UNL     1      -0.503  14.706  18.924  0.00  0.00    +0.000 A 
ATOM     24  C   UNL     1      -0.102  15.846  18.247  0.00  0.00    +0.000 A 
ATOM     25  C   UNL     1      -0.721  16.943  18.895  0.00  0.00    +0.000 A 
ATOM     26  C   UNL     1      -1.441  16.412  19.939  0.00  0.00    +0.000 A 
ATOM     27  O   UNL     1      -1.310  15.060  19.975  0.00  0.00    +0.000 OA
ENDBRANCH  19  23
ENDBRANCH   6  18
TORSDOF 3
ENDMDL
