MODEL 1
REMARK VINA RESULT:      -8.2      0.000      0.000
REMARK  Name = 
REMARK  8 active torsions:
REMARK  status: ('A' for Active; 'I' for Inactive)
REMARK    1  A    between atoms: C_1  and  O_2
REMARK    2  A    between atoms: O_2  and  C_3
REMARK    3  A    between atoms: C_8  and  O_9
REMARK    4  A    between atoms: O_9  and  C_10
REMARK    5  A    between atoms: C_13  and  C_14
REMARK    6  A    between atoms: C_14  and  C_15
REMARK    7  A    between atoms: N_19  and  C_20
REMARK    8  A    between atoms: C_20  and  C_21
REMARK                            x       y       z     vdW  Elec       q    Type
REMARK                         _______ _______ _______ _____ _____    ______ ____
ROOT
ATOM      1  C   UNL     1       0.261  10.343  18.838  0.00  0.00    +0.000 C 
ATOM      2  F   UNL     1      -0.340   9.834  17.710  0.00  0.00    +0.000 F 
ATOM      3  C   UNL     1      -0.725  10.103  20.003  0.00  0.00    +0.000 C 
ATOM      4  C   UNL     1      -0.510  10.960  21.265  0.00  0.00    +0.000 C 
ATOM      5  N   UNL     1      -0.182  12.380  21.049  0.00  0.00    +0.000 NA
ATOM      6  C   UNL     1       0.803  12.518  19.967  0.00  0.00    +0.000 C 
ATOM      7  C   UNL     1       0.322  11.860  18.673  0.00  0.00    +0.000 C 
ENDROOT
BRANCH   1   8
ATOM      8  C   UNL     1       1.724   9.791  18.816  0.00  0.00    +0.000 C 
BRANCH   8  17
ATOM      9  C   UNL     1       5.103   4.849  18.070  0.00  0.00    +0.000 A 
ATOM     10  C   UNL     1       4.784   6.041  17.372  0.00  0.00    +0.000 A 
ATOM     11  C   UNL     1       3.720   6.802  17.812  0.00  0.00    +0.000 A 
ATOM     12  C   UNL     1       3.018   6.330  18.917  0.00  0.00    +0.000 A 
ATOM     13  C   UNL     1       3.226   5.126  19.555  0.00  0.00    +0.000 A 
ATOM     14  C   UNL     1       4.280   4.352  19.115  0.00  0.00    +0.000 A 
ATOM     15  C   UNL     1       2.172   7.378  19.392  0.00  0.00    +0.000 C 
ATOM     16  O   UNL     1       1.887   7.452  20.569  0.00  0.00    +0.000 OA
ATOM     17  C   UNL     1       1.932   8.370  18.293  0.00  0.00    +0.000 C 
ATOM     18  C   UNL     1       3.225   8.166  17.416  0.00  0.00    +0.000 C 
BRANCH   9  20
ATOM     19  C   UNL     1       7.411   4.985  17.756  0.00  0.00    +0.000 C 
ATOM     20  O   UNL     1       6.253   4.148  17.788  0.00  0.00    +0.000 OA
ENDBRANCH   9  20
BRANCH  14  21
ATOM     21  O   UNL     1       4.609   3.147  19.681  0.00  0.00    +0.000 OA
ATOM     22  C   UNL     1       3.839   2.019  19.262  0.00  0.00    +0.000 C 
ENDBRANCH  14  21
ENDBRANCH   8  17
ENDBRANCH   1   8
BRANCH   5  23
ATOM     23  C   UNL     1      -1.298  13.316  20.825  0.00  0.00    +0.000 C 
BRANCH  23  24
ATOM     24  C   UNL     1      -2.468  13.197  21.763  0.00  0.00    +0.000 A 
ATOM     25  C   UNL     1      -2.376  13.533  23.119  0.00  0.00    +0.000 A 
ATOM     26  F   UNL     1      -1.222  14.001  23.617  0.00  0.00    +0.000 F 
ATOM     27  C   UNL     1      -3.485  13.435  23.958  0.00  0.00    +0.000 A 
ATOM     28  F   UNL     1      -3.382  13.776  25.251  0.00  0.00    +0.000 F 
ATOM     29  C   UNL     1      -4.704  13.004  23.453  0.00  0.00    +0.000 A 
ATOM     30  F   UNL     1      -5.770  12.904  24.258  0.00  0.00    +0.000 F 
ATOM     31  C   UNL     1      -4.821  12.694  22.107  0.00  0.00    +0.000 A 
ATOM     32  F   UNL     1      -6.002  12.311  21.603  0.00  0.00    +0.000 F 
ATOM     33  C   UNL     1      -3.714  12.798  21.272  0.00  0.00    +0.000 A 
ATOM     34  F   UNL     1      -3.851  12.529  19.965  0.00  0.00    +0.000 F 
ENDBRANCH  23  24
ENDBRANCH   5  23
TORSDOF 6
ENDMDL
MODEL 2
REMARK VINA RESULT:      -8.1      0.328      1.846
REMARK  Name = 
REMARK  8 active torsions:
REMARK  status: ('A' for Active; 'I' for Inactive)
REMARK    1  A    between atoms: C_1  and  O_2
REMARK    2  A    between atoms: O_2  and  C_3
REMARK    3  A    between atoms: C_8  and  O_9
REMARK    4  A    between atoms: O_9  and  C_10
REMARK    5  A    between atoms: C_13  and  C_14
REMARK    6  A    between atoms: C_14  and  C_15
REMARK    7  A    between atoms: N_19  and  C_20
REMARK    8  A    between atoms: C_20  and  C_21
REMARK                            x       y       z     vdW  Elec       q    Type
REMARK                         _______ _______ _______ _____ _____    ______ ____
ROOT
ATOM      1  C   UNL     1       0.251  10.324  18.791  0.00  0.00    +0.000 C 
ATOM      2  F   UNL     1      -0.292   9.797  17.642  0.00  0.00    +0.000 F 
ATOM      3  C   UNL     1      -0.810  10.138  19.899  0.00  0.00    +0.000 C 
ATOM      4  C   UNL     1      -0.652  11.024  21.149  0.00  0.00    +0.000 C 
ATOM      5  N   UNL     1      -0.278  12.430  20.917  0.00  0.00    +0.000 NA
ATOM      6  C   UNL     1       0.774  12.516  19.893  0.00  0.00    +0.000 C 
ATOM      7  C   UNL     1       0.357  11.834  18.590  0.00  0.00    +0.000 C 
ENDROOT
BRANCH   1   8
ATOM      8  C   UNL     1       1.699   9.739  18.873  0.00  0.00    +0.000 C 
BRANCH   8  17
ATOM      9  C   UNL     1       5.184   4.907  17.926  0.00  0.00    +0.000 A 
ATOM     10  C   UNL     1       4.749   6.064  17.231  0.00  0.00    +0.000 A 
ATOM     11  C   UNL     1       3.704   6.797  17.755  0.00  0.00    +0.000 A 
ATOM     12  C   UNL     1       3.135   6.334  18.937  0.00  0.00    +0.000 A 
ATOM     13  C   UNL     1       3.453   5.159  19.583  0.00  0.00    +0.000 A 
ATOM     14  C   UNL     1       4.489   4.412  19.061  0.00  0.00    +0.000 A 
ATOM     15  C   UNL     1       2.299   7.363  19.466  0.00  0.00    +0.000 C 
ATOM     16  O   UNL     1       2.129   7.463  20.663  0.00  0.00    +0.000 OA
ATOM     17  C   UNL     1       1.911   8.311  18.370  0.00  0.00    +0.000 C 
ATOM     18  C   UNL     1       3.118   8.129  17.374  0.00  0.00    +0.000 C 
BRANCH   9  20
ATOM     19  C   UNL     1       7.510   5.011  17.777  0.00  0.00    +0.000 C 
ATOM     20  O   UNL     1       6.328   4.241  17.550  0.00  0.00    +0.000 OA
ENDBRANCH   9  20
BRANCH  14  21
ATOM     21  O   UNL     1       4.920   3.238  19.623  0.00  0.00    +0.000 OA
ATOM     22  C   UNL     1       3.999   2.146  19.599  0.00  0.00    +0.000 C 
ENDBRANCH  14  21
ENDBRANCH   8  17
ENDBRANCH   1   8
BRANCH   5  23
ATOM     23  C   UNL     1      -1.356  13.383  20.600  0.00  0.00    +0.000 C 
BRANCH  23  24
ATOM     24  C   UNL     1      -2.625  13.245  21.396  0.00  0.00    +0.000 A 
ATOM     25  C   UNL     1      -3.826  12.817  20.819  0.00  0.00    +0.000 A 
ATOM     26  F   UNL     1      -3.867  12.492  19.518  0.00  0.00    +0.000 F 
ATOM     27  C   UNL     1      -4.981  12.675  21.588  0.00  0.00    +0.000 A 
ATOM     28  F   UNL     1      -6.118  12.249  21.020  0.00  0.00    +0.000 F 
ATOM     29  C   UNL     1      -4.949  12.955  22.947  0.00  0.00    +0.000 A 
ATOM     30  F   UNL     1      -6.058  12.825  23.688  0.00  0.00    +0.000 F 
ATOM     31  C   UNL     1      -3.762  13.353  23.541  0.00  0.00    +0.000 A 
ATOM     32  F   UNL     1      -3.714  13.592  24.859  0.00  0.00    +0.000 F 
ATOM     33  C   UNL     1      -2.611  13.488  22.772  0.00  0.00    +0.000 A 
ATOM     34  F   UNL     1      -1.462  13.839  23.368  0.00  0.00    +0.000 F 
ENDBRANCH  23  24
ENDBRANCH   5  23
TORSDOF 6
ENDMDL
MODEL 3
REMARK VINA RESULT:      -8.1      0.992      1.503
REMARK  Name = 
REMARK  8 active torsions:
REMARK  status: ('A' for Active; 'I' for Inactive)
REMARK    1  A    between atoms: C_1  and  O_2
REMARK    2  A    between atoms: O_2  and  C_3
REMARK    3  A    between atoms: C_8  and  O_9
REMARK    4  A    between atoms: O_9  and  C_10
REMARK    5  A    between atoms: C_13  and  C_14
REMARK    6  A    between atoms: C_14  and  C_15
REMARK    7  A    between atoms: N_19  and  C_20
REMARK    8  A    between atoms: C_20  and  C_21
REMARK                            x       y       z     vdW  Elec       q    Type
REMARK                         _______ _______ _______ _____ _____    ______ ____
ROOT
ATOM      1  C   UNL     1       0.375  10.099  18.790  0.00  0.00    +0.000 C 
ATOM      2  F   UNL     1      -0.330   9.557  17.741  0.00  0.00    +0.000 F 
ATOM      3  C   UNL     1      -0.423   9.769  20.071  0.00  0.00    +0.000 C 
ATOM      4  C   UNL     1      -0.107  10.626  21.311  0.00  0.00    +0.000 C 
ATOM      5  N   UNL     1       0.079  12.070  21.084  0.00  0.00    +0.000 NA
ATOM      6  C   UNL     1       0.896  12.297  19.883  0.00  0.00    +0.000 C 
ATOM      7  C   UNL     1       0.296  11.618  18.651  0.00  0.00    +0.000 C 
ENDROOT
BRANCH   1   8
ATOM      8  C   UNL     1       1.860   9.665  18.561  0.00  0.00    +0.000 C 
BRANCH   8  17
ATOM      9  C   UNL     1       5.346   4.756  18.178  0.00  0.00    +0.000 A 
ATOM     10  C   UNL     1       5.034   5.908  17.412  0.00  0.00    +0.000 A 
ATOM     11  C   UNL     1       3.942   6.669  17.775  0.00  0.00    +0.000 A 
ATOM     12  C   UNL     1       3.207   6.237  18.875  0.00  0.00    +0.000 A 
ATOM     13  C   UNL     1       3.410   5.068  19.577  0.00  0.00    +0.000 A 
ATOM     14  C   UNL     1       4.492   4.294  19.214  0.00  0.00    +0.000 A 
ATOM     15  C   UNL     1       2.326   7.291  19.268  0.00  0.00    +0.000 C 
ATOM     16  O   UNL     1       1.996   7.415  20.428  0.00  0.00    +0.000 OA
ATOM     17  C   UNL     1       2.111   8.225  18.114  0.00  0.00    +0.000 C 
ATOM     18  C   UNL     1       3.440   8.004  17.297  0.00  0.00    +0.000 C 
BRANCH   9  20
ATOM     19  C   UNL     1       7.315   4.632  16.932  0.00  0.00    +0.000 C 
ATOM     20  O   UNL     1       6.518   4.063  17.973  0.00  0.00    +0.000 OA
ENDBRANCH   9  20
BRANCH  14  21
ATOM     21  O   UNL     1       4.820   3.123  19.849  0.00  0.00    +0.000 OA
ATOM     22  C   UNL     1       3.741   2.406  20.452  0.00  0.00    +0.000 C 
ENDBRANCH  14  21
ENDBRANCH   8  17
ENDBRANCH   1   8
BRANCH   5  23
ATOM     23  C   UNL     1      -1.125  12.917  21.031  0.00  0.00    +0.000 C 
BRANCH  23  24
ATOM     24  C   UNL     1      -1.625  13.450  22.347  0.00  0.00    +0.000 A 
ATOM     25  C   UNL     1      -0.889  14.363  23.112  0.00  0.00    +0.000 A 
ATOM     26  F   UNL     1       0.295  14.809  22.667  0.00  0.00    +0.000 F 
ATOM     27  C   UNL     1      -1.390  14.857  24.315  0.00  0.00    +0.000 A 
ATOM     28  F   UNL     1      -0.677  15.742  25.027  0.00  0.00    +0.000 F 
ATOM     29  C   UNL     1      -2.637  14.450  24.768  0.00  0.00    +0.000 A 
ATOM     30  F   UNL     1      -3.119  14.920  25.928  0.00  0.00    +0.000 F 
ATOM     31  C   UNL     1      -3.393  13.569  24.010  0.00  0.00    +0.000 A 
ATOM     32  F   UNL     1      -4.612  13.198  24.424  0.00  0.00    +0.000 F 
ATOM     33  C   UNL     1      -2.892  13.083  22.808  0.00  0.00    +0.000 A 
ATOM     34  F   UNL     1      -3.650  12.259  22.068  0.00  0.00    +0.000 F 
ENDBRANCH  23  24
ENDBRANCH   5  23
TORSDOF 6
ENDMDL
MODEL 4
REMARK VINA RESULT:      -8.0      1.462      2.526
REMARK  Name = 
REMARK  8 active torsions:
REMARK  status: ('A' for Active; 'I' for Inactive)
REMARK    1  A    between atoms: C_1  and  O_2
REMARK    2  A    between atoms: O_2  and  C_3
REMARK    3  A    between atoms: C_8  and  O_9
REMARK    4  A    between atoms: O_9  and  C_10
REMARK    5  A    between atoms: C_13  and  C_14
REMARK    6  A    between atoms: C_14  and  C_15
REMARK    7  A    between atoms: N_19  and  C_20
REMARK    8  A    between atoms: C_20  and  C_21
REMARK                            x       y       z     vdW  Elec       q    Type
REMARK                         _______ _______ _______ _____ _____    ______ ____
ROOT
ATOM      1  C   UNL     1       0.657  12.037  18.858  0.00  0.00    +0.000 C 
ATOM      2  F   UNL     1       1.169  12.862  17.884  0.00  0.00    +0.000 F 
ATOM      3  C   UNL     1      -0.785  11.692  18.426  0.00  0.00    +0.000 C 
ATOM      4  C   UNL     1      -1.722  11.168  19.530  0.00  0.00    +0.000 C 
ATOM      5  N   UNL     1      -1.640  11.842  20.838  0.00  0.00    +0.000 NA
ATOM      6  C   UNL     1      -0.236  12.081  21.203  0.00  0.00    +0.000 C 
ATOM      7  C   UNL     1       0.504  12.876  20.126  0.00  0.00    +0.000 C 
ENDROOT
BRANCH   1   8
ATOM      8  C   UNL     1       1.763  10.962  19.116  0.00  0.00    +0.000 C 
BRANCH   8  17
ATOM      9  C   UNL     1       3.166   5.099  18.877  0.00  0.00    +0.000 A 
ATOM     10  C   UNL     1       3.108   6.221  18.011  0.00  0.00    +0.000 A 
ATOM     11  C   UNL     1       2.455   7.357  18.442  0.00  0.00    +0.000 A 
ATOM     12  C   UNL     1       1.879   7.315  19.709  0.00  0.00    +0.000 A 
ATOM     13  C   UNL     1       1.818   6.213  20.534  0.00  0.00    +0.000 A 
ATOM     14  C   UNL     1       2.458   5.068  20.108  0.00  0.00    +0.000 A 
ATOM     15  C   UNL     1       1.527   8.647  20.085  0.00  0.00    +0.000 C 
ATOM     16  O   UNL     1       1.525   8.975  21.253  0.00  0.00    +0.000 OA
ATOM     17  C   UNL     1       1.397   9.500  18.858  0.00  0.00    +0.000 C 
ATOM     18  C   UNL     1       2.351   8.741  17.861  0.00  0.00    +0.000 C 
BRANCH   9  20
ATOM     19  C   UNL     1       5.343   4.267  18.767  0.00  0.00    +0.000 C 
ATOM     20  O   UNL     1       3.951   4.009  18.576  0.00  0.00    +0.000 OA
ENDBRANCH   9  20
BRANCH  14  21
ATOM     21  O   UNL     1       2.494   3.913  20.846  0.00  0.00    +0.000 OA
ATOM     22  C   UNL     1       1.257   3.210  20.984  0.00  0.00    +0.000 C 
ENDBRANCH  14  21
ENDBRANCH   8  17
ENDBRANCH   1   8
BRANCH   5  23
ATOM     23  C   UNL     1      -2.417  13.080  21.020  0.00  0.00    +0.000 C 
BRANCH  23  24
ATOM     24  C   UNL     1      -3.626  12.986  21.912  0.00  0.00    +0.000 A 
ATOM     25  C   UNL     1      -4.931  13.090  21.415  0.00  0.00    +0.000 A 
ATOM     26  F   UNL     1      -5.136  13.258  20.100  0.00  0.00    +0.000 F 
ATOM     27  C   UNL     1      -6.032  12.974  22.263  0.00  0.00    +0.000 A 
ATOM     28  F   UNL     1      -7.274  13.061  21.766  0.00  0.00    +0.000 F 
ATOM     29  C   UNL     1      -5.844  12.746  23.619  0.00  0.00    +0.000 A 
ATOM     30  F   UNL     1      -6.900  12.639  24.437  0.00  0.00    +0.000 F 
ATOM     31  C   UNL     1      -4.560  12.611  24.124  0.00  0.00    +0.000 A 
ATOM     32  F   UNL     1      -4.370  12.357  25.426  0.00  0.00    +0.000 F 
ATOM     33  C   UNL     1      -3.465  12.723  23.274  0.00  0.00    +0.000 A 
ATOM     34  F   UNL     1      -2.230  12.554  23.772  0.00  0.00    +0.000 F 
ENDBRANCH  23  24
ENDBRANCH   5  23
TORSDOF 6
ENDMDL
MODEL 5
REMARK VINA RESULT:      -7.9      1.578      2.006
REMARK  Name = 
REMARK  8 active torsions:
REMARK  status: ('A' for Active; 'I' for Inactive)
REMARK    1  A    between atoms: C_1  and  O_2
REMARK    2  A    between atoms: O_2  and  C_3
REMARK    3  A    between atoms: C_8  and  O_9
REMARK    4  A    between atoms: O_9  and  C_10
REMARK    5  A    between atoms: C_13  and  C_14
REMARK    6  A    between atoms: C_14  and  C_15
REMARK    7  A    between atoms: N_19  and  C_20
REMARK    8  A    between atoms: C_20  and  C_21
REMARK                            x       y       z     vdW  Elec       q    Type
REMARK                         _______ _______ _______ _____ _____    ______ ____
ROOT
ATOM      1  C   UNL     1       0.434  12.237  18.873  0.00  0.00    +0.000 C 
ATOM      2  F   UNL     1       0.930  13.097  17.921  0.00  0.00    +0.000 F 
ATOM      3  C   UNL     1      -0.987  11.844  18.409  0.00  0.00    +0.000 C 
ATOM      4  C   UNL     1      -1.921  11.266  19.488  0.00  0.00    +0.000 C 
ATOM      5  N   UNL     1      -1.888  11.921  20.808  0.00  0.00    +0.000 NA
ATOM      6  C   UNL     1      -0.501  12.207  21.201  0.00  0.00    +0.000 C 
ATOM      7  C   UNL     1       0.226  13.047  20.151  0.00  0.00    +0.000 C 
ENDROOT
BRANCH   1   8
ATOM      8  C   UNL     1       1.576  11.200  19.132  0.00  0.00    +0.000 C 
BRANCH   8  17
ATOM      9  C   UNL     1       3.181   5.389  18.908  0.00  0.00    +0.000 A 
ATOM     10  C   UNL     1       3.111   6.513  18.046  0.00  0.00    +0.000 A 
ATOM     11  C   UNL     1       2.407   7.624  18.463  0.00  0.00    +0.000 A 
ATOM     12  C   UNL     1       1.796   7.556  19.711  0.00  0.00    +0.000 A 
ATOM     13  C   UNL     1       1.747   6.448  20.529  0.00  0.00    +0.000 A 
ATOM     14  C   UNL     1       2.437   5.327  20.117  0.00  0.00    +0.000 A 
ATOM     15  C   UNL     1       1.388   8.873  20.083  0.00  0.00    +0.000 C 
ATOM     16  O   UNL     1       1.341   9.195  21.252  0.00  0.00    +0.000 OA
ATOM     17  C   UNL     1       1.266   9.729  18.857  0.00  0.00    +0.000 C 
ATOM     18  C   UNL     1       2.275   9.007  17.885  0.00  0.00    +0.000 C 
BRANCH   9  20
ATOM     19  C   UNL     1       5.241   4.738  18.028  0.00  0.00    +0.000 C 
ATOM     20  O   UNL     1       4.009   4.327  18.625  0.00  0.00    +0.000 OA
ENDBRANCH   9  20
BRANCH  14  21
ATOM     21  O   UNL     1       2.490   4.170  20.850  0.00  0.00    +0.000 OA
ATOM     22  C   UNL     1       1.272   3.429  20.953  0.00  0.00    +0.000 C 
ENDBRANCH  14  21
ENDBRANCH   8  17
ENDBRANCH   1   8
BRANCH   5  23
ATOM     23  C   UNL     1      -2.715  13.125  20.996  0.00  0.00    +0.000 C 
BRANCH  23  24
ATOM     24  C   UNL     1      -3.878  12.995  21.942  0.00  0.00    +0.000 A 
ATOM     25  C   UNL     1      -3.709  12.686  23.297  0.00  0.00    +0.000 A 
ATOM     26  F   UNL     1      -2.476  12.518  23.798  0.00  0.00    +0.000 F 
ATOM     27  C   UNL     1      -4.805  12.597  24.154  0.00  0.00    +0.000 A 
ATOM     28  F   UNL     1      -4.622  12.315  25.452  0.00  0.00    +0.000 F 
ATOM     29  C   UNL     1      -6.086  12.820  23.669  0.00  0.00    +0.000 A 
ATOM     30  F   UNL     1      -7.142  12.730  24.490  0.00  0.00    +0.000 F 
ATOM     31  C   UNL     1      -6.271  13.155  22.337  0.00  0.00    +0.000 A 
ATOM     32  F   UNL     1      -7.501  13.406  21.869  0.00  0.00    +0.000 F 
ATOM     33  C   UNL     1      -5.175  13.248  21.487  0.00  0.00    +0.000 A 
ATOM     34  F   UNL     1      -5.366  13.609  20.209  0.00  0.00    +0.000 F 
ENDBRANCH  23  24
ENDBRANCH   5  23
TORSDOF 6
ENDMDL
MODEL 6
REMARK VINA RESULT:      -7.8      1.805      2.868
REMARK  Name = 
REMARK  8 active torsions:
REMARK  status: ('A' for Active; 'I' for Inactive)
REMARK    1  A    between atoms: C_1  and  O_2
REMARK    2  A    between atoms: O_2  and  C_3
REMARK    3  A    between atoms: C_8  and  O_9
REMARK    4  A    between atoms: O_9  and  C_10
REMARK    5  A    between atoms: C_13  and  C_14
REMARK    6  A    between atoms: C_14  and  C_15
REMARK    7  A    between atoms: N_19  and  C_20
REMARK    8  A    between atoms: C_20  and  C_21
REMARK                            x       y       z     vdW  Elec       q    Type
REMARK                         _______ _______ _______ _____ _____    ______ ____
ROOT
ATOM      1  C   UNL     1       0.712  11.400  19.185  0.00  0.00    +0.000 C 
ATOM      2  F   UNL     1       1.972  11.920  19.003  0.00  0.00    +0.000 F 
ATOM      3  C   UNL     1      -0.278  12.452  18.637  0.00  0.00    +0.000 C 
ATOM      4  C   UNL     1      -1.736  12.332  19.117  0.00  0.00    +0.000 C 
ATOM      5  N   UNL     1      -1.936  12.015  20.543  0.00  0.00    +0.000 NA
ATOM      6  C   UNL     1      -0.998  10.967  20.969  0.00  0.00    +0.000 C 
ATOM      7  C   UNL     1       0.454  11.355  20.690  0.00  0.00    +0.000 C 
ENDROOT
BRANCH   1   8
ATOM      8  C   UNL     1       0.788   9.929  18.659  0.00  0.00    +0.000 C 
BRANCH   8  17
ATOM      9  C   UNL     1       2.861   4.439  20.058  0.00  0.00    +0.000 A 
ATOM     10  C   UNL     1       2.067   5.462  20.637  0.00  0.00    +0.000 A 
ATOM     11  C   UNL     1       2.065   6.711  20.050  0.00  0.00    +0.000 A 
ATOM     12  C   UNL     1       2.865   6.883  18.924  0.00  0.00    +0.000 A 
ATOM     13  C   UNL     1       3.732   5.951  18.397  0.00  0.00    +0.000 A 
ATOM     14  C   UNL     1       3.751   4.702  18.983  0.00  0.00    +0.000 A 
ATOM     15  C   UNL     1       2.503   8.116  18.301  0.00  0.00    +0.000 C 
ATOM     16  O   UNL     1       2.617   8.255  17.102  0.00  0.00    +0.000 OA
ATOM     17  C   UNL     1       1.824   9.005  19.300  0.00  0.00    +0.000 C 
ATOM     18  C   UNL     1       1.235   7.940  20.300  0.00  0.00    +0.000 C 
BRANCH   9  20
ATOM     19  C   UNL     1       1.927   3.000  21.639  0.00  0.00    +0.000 C 
ATOM     20  O   UNL     1       2.766   3.136  20.490  0.00  0.00    +0.000 OA
ENDBRANCH   9  20
BRANCH  14  21
ATOM     21  O   UNL     1       4.548   3.680  18.538  0.00  0.00    +0.000 OA
ATOM     22  C   UNL     1       4.361   3.274  17.180  0.00  0.00    +0.000 C 
ENDBRANCH  14  21
ENDBRANCH   8  17
ENDBRANCH   1   8
BRANCH   5  23
ATOM     23  C   UNL     1      -1.903  13.131  21.504  0.00  0.00    +0.000 C 
BRANCH  23  24
ATOM     24  C   UNL     1      -3.179  13.404  22.254  0.00  0.00    +0.000 A 
ATOM     25  C   UNL     1      -4.082  14.397  21.856  0.00  0.00    +0.000 A 
ATOM     26  F   UNL     1      -3.834  15.128  20.759  0.00  0.00    +0.000 F 
ATOM     27  C   UNL     1      -5.268  14.610  22.558  0.00  0.00    +0.000 A 
ATOM     28  F   UNL     1      -6.128  15.556  22.152  0.00  0.00    +0.000 F 
ATOM     29  C   UNL     1      -5.570  13.830  23.665  0.00  0.00    +0.000 A 
ATOM     30  F   UNL     1      -6.707  14.037  24.345  0.00  0.00    +0.000 F 
ATOM     31  C   UNL     1      -4.701  12.824  24.057  0.00  0.00    +0.000 A 
ATOM     32  F   UNL     1      -5.002  12.043  25.104  0.00  0.00    +0.000 F 
ATOM     33  C   UNL     1      -3.522  12.611  23.352  0.00  0.00    +0.000 A 
ATOM     34  F   UNL     1      -2.709  11.609  23.721  0.00  0.00    +0.000 F 
ENDBRANCH  23  24
ENDBRANCH   5  23
TORSDOF 6
ENDMDL
MODEL 7
REMARK VINA RESULT:      -7.7      1.763      3.187
REMARK  Name = 
REMARK  8 active torsions:
REMARK  status: ('A' for Active; 'I' for Inactive)
REMARK    1  A    between atoms: C_1  and  O_2
REMARK    2  A    between atoms: O_2  and  C_3
REMARK    3  A    between atoms: C_8  and  O_9
REMARK    4  A    between atoms: O_9  and  C_10
REMARK    5  A    between atoms: C_13  and  C_14
REMARK    6  A    between atoms: C_14  and  C_15
REMARK    7  A    between atoms: N_19  and  C_20
REMARK    8  A    between atoms: C_20  and  C_21
REMARK                            x       y       z     vdW  Elec       q    Type
REMARK                         _______ _______ _______ _____ _____    ______ ____
ROOT
ATOM      1  C   UNL     1       0.546  11.597  20.384  0.00  0.00    +0.000 C 
ATOM      2  F   UNL     1       1.693  11.525  21.141  0.00  0.00    +0.000 F 
ATOM      3  C   UNL     1       0.483  13.035  19.823  0.00  0.00    +0.000 C 
ATOM      4  C   UNL     1      -0.895  13.514  19.327  0.00  0.00    +0.000 C 
ATOM      5  N   UNL     1      -2.056  13.150  20.158  0.00  0.00    +0.000 NA
ATOM      6  C   UNL     1      -1.949  11.752  20.602  0.00  0.00    +0.000 C 
ATOM      7  C   UNL     1      -0.637  11.491  21.344  0.00  0.00    +0.000 C 
ENDROOT
BRANCH   1   8
ATOM      8  C   UNL     1       0.561  10.318  19.484  0.00  0.00    +0.000 C 
BRANCH   8  17
ATOM      9  C   UNL     1       2.508   4.613  19.731  0.00  0.00    +0.000 A 
ATOM     10  C   UNL     1       1.939   5.587  20.591  0.00  0.00    +0.000 A 
ATOM     11  C   UNL     1       1.892   6.899  20.166  0.00  0.00    +0.000 A 
ATOM     12  C   UNL     1       2.426   7.178  18.911  0.00  0.00    +0.000 A 
ATOM     13  C   UNL     1       3.084   6.285  18.094  0.00  0.00    +0.000 A 
ATOM     14  C   UNL     1       3.147   4.972  18.514  0.00  0.00    +0.000 A 
ATOM     15  C   UNL     1       2.019   8.494  18.534  0.00  0.00    +0.000 C 
ATOM     16  O   UNL     1       1.868   8.779  17.365  0.00  0.00    +0.000 OA
ATOM     17  C   UNL     1       1.647   9.278  19.758  0.00  0.00    +0.000 C 
ATOM     18  C   UNL     1       1.228   8.120  20.740  0.00  0.00    +0.000 C 
BRANCH   9  20
ATOM     19  C   UNL     1       2.278   3.024  21.423  0.00  0.00    +0.000 C 
ATOM     20  O   UNL     1       2.423   3.271  20.023  0.00  0.00    +0.000 OA
ENDBRANCH   9  20
BRANCH  14  21
ATOM     21  O   UNL     1       3.750   3.982  17.783  0.00  0.00    +0.000 OA
ATOM     22  C   UNL     1       4.740   4.402  16.841  0.00  0.00    +0.000 C 
ENDBRANCH  14  21
ENDBRANCH   8  17
ENDBRANCH   1   8
BRANCH   5  23
ATOM     23  C   UNL     1      -2.374  14.012  21.309  0.00  0.00    +0.000 C 
BRANCH  23  24
ATOM     24  C   UNL     1      -3.616  13.663  22.083  0.00  0.00    +0.000 A 
ATOM     25  C   UNL     1      -4.898  13.790  21.536  0.00  0.00    +0.000 A 
ATOM     26  F   UNL     1      -5.049  14.213  20.272  0.00  0.00    +0.000 F 
ATOM     27  C   UNL     1      -6.029  13.435  22.270  0.00  0.00    +0.000 A 
ATOM     28  F   UNL     1      -7.248  13.548  21.723  0.00  0.00    +0.000 F 
ATOM     29  C   UNL     1      -5.894  12.944  23.561  0.00  0.00    +0.000 A 
ATOM     30  F   UNL     1      -6.979  12.607  24.271  0.00  0.00    +0.000 F 
ATOM     31  C   UNL     1      -4.630  12.785  24.109  0.00  0.00    +0.000 A 
ATOM     32  F   UNL     1      -4.489  12.279  25.342  0.00  0.00    +0.000 F 
ATOM     33  C   UNL     1      -3.505  13.135  23.372  0.00  0.00    +0.000 A 
ATOM     34  F   UNL     1      -2.288  12.942  23.903  0.00  0.00    +0.000 F 
ENDBRANCH  23  24
ENDBRANCH   5  23
TORSDOF 6
ENDMDL
MODEL 8
REMARK VINA RESULT:      -7.7      1.707      2.684
REMARK  Name = 
REMARK  8 active torsions:
REMARK  status: ('A' for Active; 'I' for Inactive)
REMARK    1  A    between atoms: C_1  and  O_2
REMARK    2  A    between atoms: O_2  and  C_3
REMARK    3  A    between atoms: C_8  and  O_9
REMARK    4  A    between atoms: O_9  and  C_10
REMARK    5  A    between atoms: C_13  and  C_14
REMARK    6  A    between atoms: C_14  and  C_15
REMARK    7  A    between atoms: N_19  and  C_20
REMARK    8  A    between atoms: C_20  and  C_21
REMARK                            x       y       z     vdW  Elec       q    Type
REMARK                         _______ _______ _______ _____ _____    ______ ____
ROOT
ATOM      1  C   UNL     1       0.487  11.468  20.301  0.00  0.00    +0.000 C 
ATOM      2  F   UNL     1       1.644  11.449  21.045  0.00  0.00    +0.000 F 
ATOM      3  C   UNL     1       0.402  12.872  19.663  0.00  0.00    +0.000 C 
ATOM      4  C   UNL     1      -0.987  13.310  19.160  0.00  0.00    +0.000 C 
ATOM      5  N   UNL     1      -2.134  12.982  20.026  0.00  0.00    +0.000 NA
ATOM      6  C   UNL     1      -2.006  11.613  20.544  0.00  0.00    +0.000 C 
ATOM      7  C   UNL     1      -0.683  11.404  21.281  0.00  0.00    +0.000 C 
ENDROOT
BRANCH   1   8
ATOM      8  C   UNL     1       0.503  10.141  19.473  0.00  0.00    +0.000 C 
BRANCH   8  17
ATOM      9  C   UNL     1       2.701   4.526  19.629  0.00  0.00    +0.000 A 
ATOM     10  C   UNL     1       2.048   5.443  20.491  0.00  0.00    +0.000 A 
ATOM     11  C   UNL     1       1.959   6.765  20.107  0.00  0.00    +0.000 A 
ATOM     12  C   UNL     1       2.537   7.111  18.890  0.00  0.00    +0.000 A 
ATOM     13  C   UNL     1       3.274   6.277  18.077  0.00  0.00    +0.000 A 
ATOM     14  C   UNL     1       3.379   4.955  18.457  0.00  0.00    +0.000 A 
ATOM     15  C   UNL     1       2.087   8.419  18.536  0.00  0.00    +0.000 C 
ATOM     16  O   UNL     1       1.977   8.737  17.370  0.00  0.00    +0.000 OA
ATOM     17  C   UNL     1       1.623   9.143  19.765  0.00  0.00    +0.000 C 
ATOM     18  C   UNL     1       1.212   7.934  20.688  0.00  0.00    +0.000 C 
BRANCH   9  20
ATOM     19  C   UNL     1       1.410   2.585  19.524  0.00  0.00    +0.000 C 
ATOM     20  O   UNL     1       2.666   3.172  19.873  0.00  0.00    +0.000 OA
ENDBRANCH   9  20
BRANCH  14  21
ATOM     21  O   UNL     1       4.061   4.019  17.723  0.00  0.00    +0.000 OA
ATOM     22  C   UNL     1       4.717   4.491  16.545  0.00  0.00    +0.000 C 
ENDBRANCH  14  21
ENDBRANCH   8  17
ENDBRANCH   1   8
BRANCH   5  23
ATOM     23  C   UNL     1      -2.444  13.904  21.132  0.00  0.00    +0.000 C 
BRANCH  23  24
ATOM     24  C   UNL     1      -3.620  13.538  21.996  0.00  0.00    +0.000 A 
ATOM     25  C   UNL     1      -3.468  13.080  23.311  0.00  0.00    +0.000 A 
ATOM     26  F   UNL     1      -2.243  12.977  23.847  0.00  0.00    +0.000 F 
ATOM     27  C   UNL     1      -4.578  12.772  24.095  0.00  0.00    +0.000 A 
ATOM     28  F   UNL     1      -4.413  12.350  25.357  0.00  0.00    +0.000 F 
ATOM     29  C   UNL     1      -5.857  12.922  23.579  0.00  0.00    +0.000 A 
ATOM     30  F   UNL     1      -6.927  12.622  24.329  0.00  0.00    +0.000 F 
ATOM     31  C   UNL     1      -6.029  13.401  22.289  0.00  0.00    +0.000 A 
ATOM     32  F   UNL     1      -7.261  13.582  21.795  0.00  0.00    +0.000 F 
ATOM     33  C   UNL     1      -4.919  13.713  21.512  0.00  0.00    +0.000 A 
ATOM     34  F   UNL     1      -5.101  14.209  20.279  0.00  0.00    +0.000 F 
ENDBRANCH  23  24
ENDBRANCH   5  23
TORSDOF 6
ENDMDL
MODEL 9
REMARK VINA RESULT:      -7.6      1.109      2.218
REMARK  Name = 
REMARK  8 active torsions:
REMARK  status: ('A' for Active; 'I' for Inactive)
REMARK    1  A    between atoms: C_1  and  O_2
REMARK    2  A    between atoms: O_2  and  C_3
REMARK    3  A    between atoms: C_8  and  O_9
REMARK    4  A    between atoms: O_9  and  C_10
REMARK    5  A    between atoms: C_13  and  C_14
REMARK    6  A    between atoms: C_14  and  C_15
REMARK    7  A    between atoms: N_19  and  C_20
REMARK    8  A    between atoms: C_20  and  C_21
REMARK                            x       y       z     vdW  Elec       q    Type
REMARK                         _______ _______ _______ _____ _____    ______ ____
ROOT
ATOM      1  C   UNL     1       0.384  10.255  18.953  0.00  0.00    +0.000 C 
ATOM      2  F   UNL     1      -0.267   9.811  17.826  0.00  0.00    +0.000 F 
ATOM      3  C   UNL     1      -0.545   9.938  20.147  0.00  0.00    +0.000 C 
ATOM      4  C   UNL     1      -0.274  10.718  21.447  0.00  0.00    +0.000 C 
ATOM      5  N   UNL     1       0.038  12.151  21.303  0.00  0.00    +0.000 NA
ATOM      6  C   UNL     1       0.971  12.360  20.186  0.00  0.00    +0.000 C 
ATOM      7  C   UNL     1       0.431  11.779  18.878  0.00  0.00    +0.000 C 
ENDROOT
BRANCH   1   8
ATOM      8  C   UNL     1       1.846   9.714  18.829  0.00  0.00    +0.000 C 
BRANCH   8  17
ATOM      9  C   UNL     1       5.165   4.826  17.611  0.00  0.00    +0.000 A 
ATOM     10  C   UNL     1       4.863   6.085  17.032  0.00  0.00    +0.000 A 
ATOM     11  C   UNL     1       3.808   6.812  17.542  0.00  0.00    +0.000 A 
ATOM     12  C   UNL     1       3.095   6.244  18.593  0.00  0.00    +0.000 A 
ATOM     13  C   UNL     1       3.285   4.980  19.110  0.00  0.00    +0.000 A 
ATOM     14  C   UNL     1       4.331   4.239  18.600  0.00  0.00    +0.000 A 
ATOM     15  C   UNL     1       2.261   7.251  19.167  0.00  0.00    +0.000 C 
ATOM     16  O   UNL     1       1.972   7.212  20.344  0.00  0.00    +0.000 OA
ATOM     17  C   UNL     1       2.038   8.349  18.169  0.00  0.00    +0.000 C 
ATOM     18  C   UNL     1       3.332   8.215  17.281  0.00  0.00    +0.000 C 
BRANCH   9  20
ATOM     19  C   UNL     1       6.489   4.058  15.850  0.00  0.00    +0.000 C 
ATOM     20  O   UNL     1       6.307   4.140  17.265  0.00  0.00    +0.000 OA
ENDBRANCH   9  20
BRANCH  14  21
ATOM     21  O   UNL     1       4.642   2.980  19.045  0.00  0.00    +0.000 OA
ATOM     22  C   UNL     1       3.915   2.512  20.183  0.00  0.00    +0.000 C 
ENDBRANCH  14  21
ENDBRANCH   8  17
ENDBRANCH   1   8
BRANCH   5  23
ATOM     23  C   UNL     1      -1.090  13.091  21.189  0.00  0.00    +0.000 C 
BRANCH  23  24
ATOM     24  C   UNL     1      -1.671  13.596  22.482  0.00  0.00    +0.000 A 
ATOM     25  C   UNL     1      -2.887  13.123  22.990  0.00  0.00    +0.000 A 
ATOM     26  F   UNL     1      -3.564  12.170  22.331  0.00  0.00    +0.000 F 
ATOM     27  C   UNL     1      -3.388  13.593  24.203  0.00  0.00    +0.000 A 
ATOM     28  F   UNL     1      -4.547  13.117  24.681  0.00  0.00    +0.000 F 
ATOM     29  C   UNL     1      -2.679  14.540  24.928  0.00  0.00    +0.000 A 
ATOM     30  F   UNL     1      -3.161  14.998  26.092  0.00  0.00    +0.000 F 
ATOM     31  C   UNL     1      -1.459  14.999  24.455  0.00  0.00    +0.000 A 
ATOM     32  F   UNL     1      -0.751  15.888  25.165  0.00  0.00    +0.000 F 
ATOM     33  C   UNL     1      -0.960  14.524  23.247  0.00  0.00    +0.000 A 
ATOM     34  F   UNL     1       0.238  14.951  22.820  0.00  0.00    +0.000 F 
ENDBRANCH  23  24
ENDBRANCH   5  23
TORSDOF 6
ENDMDL
