MODEL 1
REMARK VINA RESULT:      -6.6      0.000      0.000
REMARK  Name = 
REMARK  3 active torsions:
REMARK  status: ('A' for Active; 'I' for Inactive)
REMARK    1  A    between atoms: C_1  and  C_2
REMARK    2  A    between atoms: C_2  and  N_3
REMARK    3  A    between atoms: C_7  and  C_8
REMARK                            x       y       z     vdW  Elec       q    Type
REMARK                         _______ _______ _______ _____ _____    ______ ____
ROOT
ATOM      1  N   UNL     1      10.133  12.234  19.234  0.00  0.00    +0.000 N 
ATOM      2  C   UNL     1      11.475  12.211  18.901  0.00  0.00    +0.000 C 
ATOM      3  O   UNL     1      12.252  11.289  19.070  0.00  0.00    +0.000 OA
ATOM      4  C   UNL     1      11.859  13.542  18.348  0.00  0.00    +0.000 C 
ATOM      5  C   UNL     1      10.530  14.253  18.027  0.00  0.00    +0.000 C 
ATOM      6  C   UNL     1       9.409  13.456  18.804  0.00  0.00    +0.000 C 
ATOM      7  C   UNL     1       8.265  13.043  17.833  0.00  0.00    +0.000 C 
ATOM      8  C   UNL     1       7.333  14.195  17.478  0.00  0.00    +0.000 C 
ATOM      9  N   UNL     1       6.838  14.774  18.713  0.00  0.00    +0.000 N 
ATOM     10  C   UNL     1       5.532  15.193  18.790  0.00  0.00    +0.000 A 
ATOM     11  N   UNL     1       4.612  14.566  18.030  0.00  0.00    +0.000 NA
ATOM     12  C   UNL     1       3.313  14.889  18.220  0.00  0.00    +0.000 A 
ATOM     13  C   UNL     1       2.899  15.833  19.118  0.00  0.00    +0.000 A 
ATOM     14  F   UNL     1       1.607  16.126  19.297  0.00  0.00    +0.000 F 
ATOM     15  C   UNL     1       3.892  16.453  19.824  0.00  0.00    +0.000 A 
ATOM     16  N   UNL     1       5.199  16.147  19.681  0.00  0.00    +0.000 NA
ATOM     17  C   UNL     1       7.820  15.314  19.636  0.00  0.00    +0.000 C 
ATOM     18  C   UNL     1       8.791  14.189  20.021  0.00  0.00    +0.000 C 
ENDROOT
BRANCH   5  19
ATOM     19  C   UNL     1      10.713  15.748  18.199  0.00  0.00    +0.000 A 
ATOM     20  C   UNL     1      10.163  16.647  17.277  0.00  0.00    +0.000 A 
ATOM     21  C   UNL     1      10.421  18.014  17.393  0.00  0.00    +0.000 A 
ATOM     22  C   UNL     1      11.217  18.448  18.436  0.00  0.00    +0.000 A 
ATOM     23  N   UNL     1      11.752  17.623  19.358  0.00  0.00    +0.000 NA
ATOM     24  C   UNL     1      11.499  16.304  19.212  0.00  0.00    +0.000 A 
ENDBRANCH   5  19
BRANCH   1  26
ATOM     25  C   UNL     1       9.099  10.004  18.861  0.00  0.00    +0.000 C 
ATOM     26  C   UNL     1       9.501  11.077  19.863  0.00  0.00    +0.000 C 
ENDBRANCH   1  26
TORSDOF 2
ENDMDL
MODEL 2
REMARK VINA RESULT:      -6.3      7.592     10.408
REMARK  Name = 
REMARK  3 active torsions:
REMARK  status: ('A' for Active; 'I' for Inactive)
REMARK    1  A    between atoms: C_1  and  C_2
REMARK    2  A    between atoms: C_2  and  N_3
REMARK    3  A    between atoms: C_7  and  C_8
REMARK                            x       y       z     vdW  Elec       q    Type
REMARK                         _______ _______ _______ _____ _____    ______ ____
ROOT
ATOM      1  N   UNL     1      -0.088  10.195  20.523  0.00  0.00    +0.000 N 
ATOM      2  C   UNL     1      -0.398   9.356  21.578  0.00  0.00    +0.000 C 
ATOM      3  O   UNL     1      -0.349   8.139  21.580  0.00  0.00    +0.000 OA
ATOM      4  C   UNL     1      -0.877  10.179  22.725  0.00  0.00    +0.000 C 
ATOM      5  C   UNL     1      -0.469  11.627  22.391  0.00  0.00    +0.000 C 
ATOM      6  C   UNL     1      -0.132  11.642  20.848  0.00  0.00    +0.000 C 
ATOM      7  C   UNL     1       1.280  12.250  20.606  0.00  0.00    +0.000 C 
ATOM      8  C   UNL     1       1.307  13.770  20.723  0.00  0.00    +0.000 C 
ATOM      9  N   UNL     1       0.303  14.310  19.827  0.00  0.00    +0.000 N 
ATOM     10  C   UNL     1       0.570  15.461  19.125  0.00  0.00    +0.000 A 
ATOM     11  N   UNL     1       1.850  15.729  18.798  0.00  0.00    +0.000 NA
ATOM     12  C   UNL     1       2.083  16.785  17.986  0.00  0.00    +0.000 A 
ATOM     13  C   UNL     1       1.093  17.600  17.512  0.00  0.00    +0.000 A 
ATOM     14  F   UNL     1       1.347  18.631  16.700  0.00  0.00    +0.000 F 
ATOM     15  C   UNL     1      -0.175  17.288  17.918  0.00  0.00    +0.000 A 
ATOM     16  N   UNL     1      -0.455  16.231  18.711  0.00  0.00    +0.000 NA
ATOM     17  C   UNL     1      -1.075  13.910  20.050  0.00  0.00    +0.000 C 
ATOM     18  C   UNL     1      -1.154  12.380  19.949  0.00  0.00    +0.000 C 
ENDROOT
BRANCH   5  19
ATOM     19  C   UNL     1      -1.480  12.580  22.998  0.00  0.00    +0.000 A 
ATOM     20  C   UNL     1      -1.081  13.829  23.490  0.00  0.00    +0.000 A 
ATOM     21  C   UNL     1      -2.004  14.655  24.133  0.00  0.00    +0.000 A 
ATOM     22  C   UNL     1      -3.307  14.214  24.260  0.00  0.00    +0.000 A 
ATOM     23  N   UNL     1      -3.741  13.030  23.786  0.00  0.00    +0.000 NA
ATOM     24  C   UNL     1      -2.823  12.243  23.183  0.00  0.00    +0.000 A 
ENDBRANCH   5  19
BRANCH   1  26
ATOM     25  C   UNL     1       1.652   8.873  19.336  0.00  0.00    +0.000 C 
ATOM     26  C   UNL     1       0.346   9.649  19.239  0.00  0.00    +0.000 C 
ENDBRANCH   1  26
TORSDOF 2
ENDMDL
MODEL 3
REMARK VINA RESULT:      -6.2      8.031     10.203
REMARK  Name = 
REMARK  3 active torsions:
REMARK  status: ('A' for Active; 'I' for Inactive)
REMARK    1  A    between atoms: C_1  and  C_2
REMARK    2  A    between atoms: C_2  and  N_3
REMARK    3  A    between atoms: C_7  and  C_8
REMARK                            x       y       z     vdW  Elec       q    Type
REMARK                         _______ _______ _______ _____ _____    ______ ____
ROOT
ATOM      1  N   UNL     1       2.359   3.502  19.010  0.00  0.00    +0.000 N 
ATOM      2  C   UNL     1       3.248   2.514  18.628  0.00  0.00    +0.000 C 
ATOM      3  O   UNL     1       3.098   1.311  18.751  0.00  0.00    +0.000 OA
ATOM      4  C   UNL     1       4.481   3.155  18.087  0.00  0.00    +0.000 C 
ATOM      5  C   UNL     1       4.100   4.625  17.829  0.00  0.00    +0.000 C 
ATOM      6  C   UNL     1       2.763   4.878  18.631  0.00  0.00    +0.000 C 
ATOM      7  C   UNL     1       1.674   5.478  17.696  0.00  0.00    +0.000 C 
ATOM      8  C   UNL     1       1.886   6.958  17.397  0.00  0.00    +0.000 C 
ATOM      9  N   UNL     1       1.990   7.663  18.661  0.00  0.00    +0.000 N 
ATOM     10  C   UNL     1       1.414   8.904  18.793  0.00  0.00    +0.000 A 
ATOM     11  N   UNL     1       0.322   9.185  18.055  0.00  0.00    +0.000 NA
ATOM     12  C   UNL     1      -0.318  10.350  18.299  0.00  0.00    +0.000 A 
ATOM     13  C   UNL     1       0.105  11.259  19.230  0.00  0.00    +0.000 A 
ATOM     14  F   UNL     1      -0.553  12.399  19.463  0.00  0.00    +0.000 F 
ATOM     15  C   UNL     1       1.242  10.921  19.911  0.00  0.00    +0.000 A 
ATOM     16  N   UNL     1       1.900   9.759  19.714  0.00  0.00    +0.000 NA
ATOM     17  C   UNL     1       3.063   7.270  19.557  0.00  0.00    +0.000 C 
ATOM     18  C   UNL     1       2.897   5.780  19.884  0.00  0.00    +0.000 C 
ENDROOT
BRANCH   5  19
ATOM     19  C   UNL     1       5.326   5.497  18.023  0.00  0.00    +0.000 A 
ATOM     20  C   UNL     1       5.596   6.556  17.148  0.00  0.00    +0.000 A 
ATOM     21  C   UNL     1       6.777   7.288  17.280  0.00  0.00    +0.000 A 
ATOM     22  C   UNL     1       7.655   6.947  18.291  0.00  0.00    +0.000 A 
ATOM     23  N   UNL     1       7.429   5.948  19.167  0.00  0.00    +0.000 NA
ATOM     24  C   UNL     1       6.286   5.246  19.007  0.00  0.00    +0.000 A 
ENDBRANCH   5  19
BRANCH   1  26
ATOM     25  C   UNL     1       1.225   2.848  21.124  0.00  0.00    +0.000 C 
ATOM     26  C   UNL     1       1.087   3.157  19.640  0.00  0.00    +0.000 C 
ENDBRANCH   1  26
TORSDOF 2
ENDMDL
MODEL 4
REMARK VINA RESULT:      -6.2      7.735     10.586
REMARK  Name = 
REMARK  3 active torsions:
REMARK  status: ('A' for Active; 'I' for Inactive)
REMARK    1  A    between atoms: C_1  and  C_2
REMARK    2  A    between atoms: C_2  and  N_3
REMARK    3  A    between atoms: C_7  and  C_8
REMARK                            x       y       z     vdW  Elec       q    Type
REMARK                         _______ _______ _______ _____ _____    ______ ____
ROOT
ATOM      1  N   UNL     1      -0.189  10.398  20.923  0.00  0.00    +0.000 N 
ATOM      2  C   UNL     1      -0.533   9.615  22.010  0.00  0.00    +0.000 C 
ATOM      3  O   UNL     1      -0.468   8.400  22.082  0.00  0.00    +0.000 OA
ATOM      4  C   UNL     1      -1.073  10.492  23.088  0.00  0.00    +0.000 C 
ATOM      5  C   UNL     1      -0.671  11.925  22.691  0.00  0.00    +0.000 C 
ATOM      6  C   UNL     1      -0.267  11.860  21.165  0.00  0.00    +0.000 C 
ATOM      7  C   UNL     1       1.145  12.477  20.950  0.00  0.00    +0.000 C 
ATOM      8  C   UNL     1       1.147  14.001  20.982  0.00  0.00    +0.000 C 
ATOM      9  N   UNL     1       0.175  14.475  20.015  0.00  0.00    +0.000 N 
ATOM     10  C   UNL     1       0.457  15.589  19.262  0.00  0.00    +0.000 A 
ATOM     11  N   UNL     1       1.746  15.859  18.975  0.00  0.00    +0.000 NA
ATOM     12  C   UNL     1       1.999  16.872  18.116  0.00  0.00    +0.000 A 
ATOM     13  C   UNL     1       1.020  17.643  17.555  0.00  0.00    +0.000 A 
ATOM     14  F   UNL     1       1.295  18.631  16.697  0.00  0.00    +0.000 F 
ATOM     15  C   UNL     1      -0.260  17.333  17.924  0.00  0.00    +0.000 A 
ATOM     16  N   UNL     1      -0.560  16.318  18.762  0.00  0.00    +0.000 NA
ATOM     17  C   UNL     1      -1.206  14.064  20.201  0.00  0.00    +0.000 C 
ATOM     18  C   UNL     1      -1.259  12.530  20.183  0.00  0.00    +0.000 C 
ENDROOT
BRANCH   5  19
ATOM     19  C   UNL     1      -1.720  12.894  23.200  0.00  0.00    +0.000 A 
ATOM     20  C   UNL     1      -3.083  12.584  23.111  0.00  0.00    +0.000 A 
ATOM     21  C   UNL     1      -4.041  13.524  23.493  0.00  0.00    +0.000 A 
ATOM     22  C   UNL     1      -3.610  14.750  23.964  0.00  0.00    +0.000 A 
ATOM     23  N   UNL     1      -2.310  15.086  24.085  0.00  0.00    +0.000 NA
ATOM     24  C   UNL     1      -1.405  14.163  23.692  0.00  0.00    +0.000 A 
ENDBRANCH   5  19
BRANCH   1  26
ATOM     25  C   UNL     1      -0.607  10.032  18.500  0.00  0.00    +0.000 C 
ATOM     26  C   UNL     1       0.308   9.789  19.692  0.00  0.00    +0.000 C 
ENDBRANCH   1  26
TORSDOF 2
ENDMDL
MODEL 5
REMARK VINA RESULT:      -6.1      7.442     10.751
REMARK  Name = 
REMARK  3 active torsions:
REMARK  status: ('A' for Active; 'I' for Inactive)
REMARK    1  A    between atoms: C_1  and  C_2
REMARK    2  A    between atoms: C_2  and  N_3
REMARK    3  A    between atoms: C_7  and  C_8
REMARK                            x       y       z     vdW  Elec       q    Type
REMARK                         _______ _______ _______ _____ _____    ______ ____
ROOT
ATOM      1  N   UNL     1      -2.168  10.712  18.715  0.00  0.00    +0.000 N 
ATOM      2  C   UNL     1      -2.729  11.917  19.095  0.00  0.00    +0.000 C 
ATOM      3  O   UNL     1      -3.900  12.240  18.995  0.00  0.00    +0.000 OA
ATOM      4  C   UNL     1      -1.651  12.814  19.601  0.00  0.00    +0.000 C 
ATOM      5  C   UNL     1      -0.435  11.899  19.843  0.00  0.00    +0.000 C 
ATOM      6  C   UNL     1      -0.735  10.559  19.064  0.00  0.00    +0.000 C 
ATOM      7  C   UNL     1      -0.580   9.334  20.011  0.00  0.00    +0.000 C 
ATOM      8  C   UNL     1       0.874   8.963  20.281  0.00  0.00    +0.000 C 
ATOM      9  N   UNL     1       1.536   8.771  19.005  0.00  0.00    +0.000 N 
ATOM     10  C   UNL     1       2.456   7.760  18.865  0.00  0.00    +0.000 A 
ATOM     11  N   UNL     1       2.312   6.653  19.619  0.00  0.00    +0.000 NA
ATOM     12  C   UNL     1       3.135   5.610  19.369  0.00  0.00    +0.000 A 
ATOM     13  C   UNL     1       4.115   5.639  18.416  0.00  0.00    +0.000 A 
ATOM     14  F   UNL     1       4.908   4.590  18.178  0.00  0.00    +0.000 F 
ATOM     15  C   UNL     1       4.226   6.810  17.718  0.00  0.00    +0.000 A 
ATOM     16  N   UNL     1       3.412   7.868  17.920  0.00  0.00    +0.000 NA
ATOM     17  C   UNL     1       1.567   9.902  18.094  0.00  0.00    +0.000 C 
ATOM     18  C   UNL     1       0.120  10.319  17.795  0.00  0.00    +0.000 C 
ENDROOT
BRANCH   5  19
ATOM     19  C   UNL     1       0.836  12.692  19.611  0.00  0.00    +0.000 A 
ATOM     20  C   UNL     1       1.819  12.776  20.605  0.00  0.00    +0.000 A 
ATOM     21  C   UNL     1       2.938  13.587  20.416  0.00  0.00    +0.000 A 
ATOM     22  C   UNL     1       3.051  14.289  19.231  0.00  0.00    +0.000 A 
ATOM     23  N   UNL     1       2.142  14.225  18.239  0.00  0.00    +0.000 NA
ATOM     24  C   UNL     1       1.060  13.445  18.455  0.00  0.00    +0.000 A 
ENDBRANCH   5  19
BRANCH   1  26
ATOM     25  C   UNL     1      -3.147   9.820  16.610  0.00  0.00    +0.000 C 
ATOM     26  C   UNL     1      -2.991   9.663  18.116  0.00  0.00    +0.000 C 
ENDBRANCH   1  26
TORSDOF 2
ENDMDL
MODEL 6
REMARK VINA RESULT:      -5.9      7.362     10.509
REMARK  Name = 
REMARK  3 active torsions:
REMARK  status: ('A' for Active; 'I' for Inactive)
REMARK    1  A    between atoms: C_1  and  C_2
REMARK    2  A    between atoms: C_2  and  N_3
REMARK    3  A    between atoms: C_7  and  C_8
REMARK                            x       y       z     vdW  Elec       q    Type
REMARK                         _______ _______ _______ _____ _____    ______ ____
ROOT
ATOM      1  N   UNL     1       0.903  15.046  19.121  0.00  0.00    +0.000 N 
ATOM      2  C   UNL     1       2.275  14.963  19.265  0.00  0.00    +0.000 C 
ATOM      3  O   UNL     1       3.074  15.879  19.184  0.00  0.00    +0.000 OA
ATOM      4  C   UNL     1       2.654  13.536  19.475  0.00  0.00    +0.000 C 
ATOM      5  C   UNL     1       1.341  12.809  19.821  0.00  0.00    +0.000 C 
ATOM      6  C   UNL     1       0.174  13.780  19.385  0.00  0.00    +0.000 C 
ATOM      7  C   UNL     1      -0.812  14.010  20.567  0.00  0.00    +0.000 C 
ATOM      8  C   UNL     1      -1.752  12.834  20.801  0.00  0.00    +0.000 C 
ATOM      9  N   UNL     1      -2.432  12.542  19.553  0.00  0.00    +0.000 N 
ATOM     10  C   UNL     1      -3.758  12.183  19.571  0.00  0.00    +0.000 A 
ATOM     11  N   UNL     1      -4.537  12.660  20.562  0.00  0.00    +0.000 NA
ATOM     12  C   UNL     1      -5.865  12.419  20.489  0.00  0.00    +0.000 A 
ATOM     13  C   UNL     1      -6.442  11.696  19.481  0.00  0.00    +0.000 A 
ATOM     14  F   UNL     1      -7.760  11.482  19.423  0.00  0.00    +0.000 F 
ATOM     15  C   UNL     1      -5.583  11.212  18.534  0.00  0.00    +0.000 A 
ATOM     16  N   UNL     1      -4.253  11.447  18.557  0.00  0.00    +0.000 NA
ATOM     17  C   UNL     1      -1.606  12.182  18.414  0.00  0.00    +0.000 C 
ATOM     18  C   UNL     1      -0.633  13.337  18.140  0.00  0.00    +0.000 C 
ENDROOT
BRANCH   5  19
ATOM     19  C   UNL     1       1.419  11.379  19.323  0.00  0.00    +0.000 A 
ATOM     20  C   UNL     1       0.951  10.320  20.111  0.00  0.00    +0.000 A 
ATOM     21  C   UNL     1       1.117   9.002  19.682  0.00  0.00    +0.000 A 
ATOM     22  C   UNL     1       1.741   8.777  18.469  0.00  0.00    +0.000 A 
ATOM     23  N   UNL     1       2.190   9.764  17.669  0.00  0.00    +0.000 NA
ATOM     24  C   UNL     1       2.030  11.030  18.116  0.00  0.00    +0.000 A 
ENDBRANCH   5  19
BRANCH   1  26
ATOM     25  C   UNL     1       0.207  17.247  20.046  0.00  0.00    +0.000 C 
ATOM     26  C   UNL     1       0.259  16.326  18.835  0.00  0.00    +0.000 C 
ENDBRANCH   1  26
TORSDOF 2
ENDMDL
MODEL 7
REMARK VINA RESULT:      -5.8      7.616     11.057
REMARK  Name = 
REMARK  3 active torsions:
REMARK  status: ('A' for Active; 'I' for Inactive)
REMARK    1  A    between atoms: C_1  and  C_2
REMARK    2  A    between atoms: C_2  and  N_3
REMARK    3  A    between atoms: C_7  and  C_8
REMARK                            x       y       z     vdW  Elec       q    Type
REMARK                         _______ _______ _______ _____ _____    ______ ____
ROOT
ATOM      1  N   UNL     1       1.544  13.265  19.423  0.00  0.00    +0.000 N 
ATOM      2  C   UNL     1       0.815  14.331  18.929  0.00  0.00    +0.000 C 
ATOM      3  O   UNL     1       1.084  15.513  19.046  0.00  0.00    +0.000 OA
ATOM      4  C   UNL     1      -0.417  13.811  18.270  0.00  0.00    +0.000 C 
ATOM      5  C   UNL     1      -0.175  12.300  18.082  0.00  0.00    +0.000 C 
ATOM      6  C   UNL     1       1.033  11.929  19.028  0.00  0.00    +0.000 C 
ATOM      7  C   UNL     1       2.143  11.188  18.227  0.00  0.00    +0.000 C 
ATOM      8  C   UNL     1       1.801   9.731  17.934  0.00  0.00    +0.000 C 
ATOM      9  N   UNL     1       1.488   9.079  19.192  0.00  0.00    +0.000 N 
ATOM     10  C   UNL     1       1.906   7.788  19.408  0.00  0.00    +0.000 A 
ATOM     11  N   UNL     1       3.032   7.369  18.798  0.00  0.00    +0.000 NA
ATOM     12  C   UNL     1       3.511   6.150  19.131  0.00  0.00    +0.000 A 
ATOM     13  C   UNL     1       2.894   5.321  20.027  0.00  0.00    +0.000 A 
ATOM     14  F   UNL     1       3.394   4.124  20.350  0.00  0.00    +0.000 F 
ATOM     15  C   UNL     1       1.736   5.799  20.575  0.00  0.00    +0.000 A 
ATOM     16  N   UNL     1       1.234   7.019  20.287  0.00  0.00    +0.000 NA
ATOM     17  C   UNL     1       0.376   9.612  19.960  0.00  0.00    +0.000 C 
ATOM     18  C   UNL     1       0.670  11.085  20.275  0.00  0.00    +0.000 C 
ENDROOT
BRANCH   5  19
ATOM     19  C   UNL     1      -1.504  11.572  18.158  0.00  0.00    +0.000 A 
ATOM     20  C   UNL     1      -1.729  10.415  17.403  0.00  0.00    +0.000 A 
ATOM     21  C   UNL     1      -2.987   9.811  17.408  0.00  0.00    +0.000 A 
ATOM     22  C   UNL     1      -3.987  10.376  18.177  0.00  0.00    +0.000 A 
ATOM     23  N   UNL     1      -3.811  11.477  18.934  0.00  0.00    +0.000 NA
ATOM     24  C   UNL     1      -2.588  12.051  18.898  0.00  0.00    +0.000 A 
ENDBRANCH   5  19
BRANCH   1  26
ATOM     25  C   UNL     1       2.538  14.236  21.486  0.00  0.00    +0.000 C 
ATOM     26  C   UNL     1       2.774  13.489  20.180  0.00  0.00    +0.000 C 
ENDBRANCH   1  26
TORSDOF 2
ENDMDL
MODEL 8
REMARK VINA RESULT:      -5.8      7.006     10.577
REMARK  Name = 
REMARK  3 active torsions:
REMARK  status: ('A' for Active; 'I' for Inactive)
REMARK    1  A    between atoms: C_1  and  C_2
REMARK    2  A    between atoms: C_2  and  N_3
REMARK    3  A    between atoms: C_7  and  C_8
REMARK                            x       y       z     vdW  Elec       q    Type
REMARK                         _______ _______ _______ _____ _____    ______ ____
ROOT
ATOM      1  N   UNL     1       2.083  13.912  19.429  0.00  0.00    +0.000 N 
ATOM      2  C   UNL     1       1.430  15.070  19.047  0.00  0.00    +0.000 C 
ATOM      3  O   UNL     1       1.881  16.201  19.064  0.00  0.00    +0.000 OA
ATOM      4  C   UNL     1       0.030  14.730  18.661  0.00  0.00    +0.000 C 
ATOM      5  C   UNL     1       0.012  13.200  18.487  0.00  0.00    +0.000 C 
ATOM      6  C   UNL     1       1.319  12.663  19.192  0.00  0.00    +0.000 C 
ATOM      7  C   UNL     1       2.130  11.760  18.218  0.00  0.00    +0.000 C 
ATOM      8  C   UNL     1       1.533  10.367  18.053  0.00  0.00    +0.000 C 
ATOM      9  N   UNL     1       1.386   9.779  19.371  0.00  0.00    +0.000 N 
ATOM     10  C   UNL     1       1.650   8.442  19.550  0.00  0.00    +0.000 A 
ATOM     11  N   UNL     1       2.562   7.857  18.749  0.00  0.00    +0.000 NA
ATOM     12  C   UNL     1       2.918   6.583  19.028  0.00  0.00    +0.000 A 
ATOM     13  C   UNL     1       2.380   5.861  20.057  0.00  0.00    +0.000 A 
ATOM     14  F   UNL     1       2.758   4.607  20.322  0.00  0.00    +0.000 F 
ATOM     15  C   UNL     1       1.434   6.510  20.802  0.00  0.00    +0.000 A 
ATOM     16  N   UNL     1       1.064   7.788  20.572  0.00  0.00    +0.000 NA
ATOM     17  C   UNL     1       0.536  10.476  20.321  0.00  0.00    +0.000 C 
ATOM     18  C   UNL     1       1.094  11.893  20.517  0.00  0.00    +0.000 C 
ENDROOT
BRANCH   5  19
ATOM     19  C   UNL     1      -1.365  12.675  18.848  0.00  0.00    +0.000 A 
ATOM     20  C   UNL     1      -2.014  11.745  18.027  0.00  0.00    +0.000 A 
ATOM     21  C   UNL     1      -3.319  11.345  18.319  0.00  0.00    +0.000 A 
ATOM     22  C   UNL     1      -3.939  11.880  19.432  0.00  0.00    +0.000 A 
ATOM     23  N   UNL     1      -3.348  12.763  20.261  0.00  0.00    +0.000 NA
ATOM     24  C   UNL     1      -2.090  13.145  19.945  0.00  0.00    +0.000 A 
ENDBRANCH   5  19
BRANCH   1  26
ATOM     25  C   UNL     1       3.549  14.400  21.377  0.00  0.00    +0.000 C 
ATOM     26  C   UNL     1       3.457  13.960  19.923  0.00  0.00    +0.000 C 
ENDBRANCH   1  26
TORSDOF 2
ENDMDL
MODEL 9
REMARK VINA RESULT:      -5.8      4.239      6.174
REMARK  Name = 
REMARK  3 active torsions:
REMARK  status: ('A' for Active; 'I' for Inactive)
REMARK    1  A    between atoms: C_1  and  C_2
REMARK    2  A    between atoms: C_2  and  N_3
REMARK    3  A    between atoms: C_7  and  C_8
REMARK                            x       y       z     vdW  Elec       q    Type
REMARK                         _______ _______ _______ _____ _____    ______ ____
ROOT
ATOM      1  N   UNL     1       8.084  17.060  19.928  0.00  0.00    +0.000 N 
ATOM      2  C   UNL     1       8.769  17.490  18.807  0.00  0.00    +0.000 C 
ATOM      3  O   UNL     1       8.533  18.485  18.145  0.00  0.00    +0.000 OA
ATOM      4  C   UNL     1       9.832  16.496  18.478  0.00  0.00    +0.000 C 
ATOM      5  C   UNL     1       9.967  15.611  19.732  0.00  0.00    +0.000 C 
ATOM      6  C   UNL     1       8.671  15.871  20.595  0.00  0.00    +0.000 C 
ATOM      7  C   UNL     1       9.056  16.257  22.052  0.00  0.00    +0.000 C 
ATOM      8  C   UNL     1       9.492  15.064  22.895  0.00  0.00    +0.000 C 
ATOM      9  N   UNL     1       8.442  14.064  22.839  0.00  0.00    +0.000 N 
ATOM     10  C   UNL     1       8.131  13.345  23.968  0.00  0.00    +0.000 A 
ATOM     11  N   UNL     1       8.322  13.924  25.169  0.00  0.00    +0.000 NA
ATOM     12  C   UNL     1       7.878  13.264  26.263  0.00  0.00    +0.000 A 
ATOM     13  C   UNL     1       7.278  12.037  26.207  0.00  0.00    +0.000 A 
ATOM     14  F   UNL     1       6.836  11.410  27.301  0.00  0.00    +0.000 F 
ATOM     15  C   UNL     1       7.154  11.496  24.957  0.00  0.00    +0.000 A 
ATOM     16  N   UNL     1       7.564  12.129  23.836  0.00  0.00    +0.000 NA
ATOM     17  C   UNL     1       8.094  13.535  21.532  0.00  0.00    +0.000 C 
ATOM     18  C   UNL     1       7.653  14.704  20.640  0.00  0.00    +0.000 C 
ENDROOT
BRANCH   5  19
ATOM     19  C   UNL     1      10.380  14.213  19.310  0.00  0.00    +0.000 A 
ATOM     20  C   UNL     1       9.835  13.622  18.164  0.00  0.00    +0.000 A 
ATOM     21  C   UNL     1      10.150  12.301  17.841  0.00  0.00    +0.000 A 
ATOM     22  C   UNL     1      11.011  11.607  18.671  0.00  0.00    +0.000 A 
ATOM     23  N   UNL     1      11.573  12.141  19.773  0.00  0.00    +0.000 NA
ATOM     24  C   UNL     1      11.239  13.416  20.070  0.00  0.00    +0.000 A 
ENDBRANCH   5  19
BRANCH   1  26
ATOM     25  C   UNL     1       5.631  17.435  19.756  0.00  0.00    +0.000 C 
ATOM     26  C   UNL     1       6.939  17.813  20.437  0.00  0.00    +0.000 C 
ENDBRANCH   1  26
TORSDOF 2
ENDMDL
