MODEL 1
REMARK VINA RESULT:      -8.2      0.000      0.000
REMARK  Name = 
REMARK  7 active torsions:
REMARK  status: ('A' for Active; 'I' for Inactive)
REMARK    1  A    between atoms: C_1  and  C_2
REMARK    2  A    between atoms: C_2  and  C_3
REMARK    3  A    between atoms: C_2  and  C_4
REMARK    4  A    between atoms: C_4  and  C_16
REMARK    5  A    between atoms: N_5  and  N_6
REMARK    6  A    between atoms: N_6  and  C_7
REMARK    7  A    between atoms: C_12  and  N_13
REMARK                            x       y       z     vdW  Elec       q    Type
REMARK                         _______ _______ _______ _____ _____    ______ ____
ROOT
ATOM      1  C   UNL     1       2.509   4.672  19.791  0.00  0.00    +0.000 C 
ATOM      2  N   UNL     1       3.675   4.088  19.731  0.00  0.00    +0.000 NA
ENDROOT
BRANCH   1   3
ATOM      3  C   UNL     1       2.217   6.128  19.521  0.00  0.00    +0.000 A 
ATOM      4  C   UNL     1       2.410   6.673  18.245  0.00  0.00    +0.000 A 
ATOM      5  C   UNL     1       2.174   8.030  18.000  0.00  0.00    +0.000 A 
ATOM      6  C   UNL     1       1.721   8.855  19.025  0.00  0.00    +0.000 A 
ATOM      7  C   UNL     1       1.526   8.331  20.298  0.00  0.00    +0.000 A 
ATOM      8  C   UNL     1       1.797   6.982  20.549  0.00  0.00    +0.000 A 
ENDBRANCH   1   3
BRANCH   1  10
ATOM      9  C   UNL     1       1.003   2.804  18.946  0.00  0.00    +0.000 C 
ATOM     10  C   UNL     1       1.298   3.756  20.112  0.00  0.00    +0.000 C 
ATOM     11  C   UNL     1       1.513   2.934  21.384  0.00  0.00    +0.000 C 
ENDBRANCH   1  10
BRANCH   2  12
ATOM     12  N   UNL     1       4.789   4.804  19.462  0.00  0.00    +0.000 N 
ATOM     13  H   UNL     1       5.253   5.360  20.187  0.00  0.00    +0.000 HD
BRANCH  12  14
ATOM     14  C   UNL     1       5.485   4.604  18.249  0.00  0.00    +0.000 A 
ATOM     15  C   UNL     1       4.831   3.985  17.165  0.00  0.00    +0.000 A 
ATOM     16  C   UNL     1       5.430   3.855  15.907  0.00  0.00    +0.000 A 
ATOM     17  C   UNL     1       6.708   4.351  15.690  0.00  0.00    +0.000 A 
ATOM     18  C   UNL     1       7.386   4.977  16.733  0.00  0.00    +0.000 A 
ATOM     19  C   UNL     1       6.784   5.108  17.999  0.00  0.00    +0.000 A 
BRANCH  19  20
ATOM     20  N   UNL     1       7.548   5.810  19.041  0.00  0.00    +0.000 N 
ATOM     21  O   UNL     1       8.151   6.852  18.729  0.00  0.00    +0.000 OA
ATOM     22  O   UNL     1       7.552   5.327  20.182  0.00  0.00    +0.000 OA
ENDBRANCH  19  20
ENDBRANCH  12  14
ENDBRANCH   2  12
TORSDOF 5
ENDMDL
MODEL 2
REMARK VINA RESULT:      -8.2      0.243      1.077
REMARK  Name = 
REMARK  7 active torsions:
REMARK  status: ('A' for Active; 'I' for Inactive)
REMARK    1  A    between atoms: C_1  and  C_2
REMARK    2  A    between atoms: C_2  and  C_3
REMARK    3  A    between atoms: C_2  and  C_4
REMARK    4  A    between atoms: C_4  and  C_16
REMARK    5  A    between atoms: N_5  and  N_6
REMARK    6  A    between atoms: N_6  and  C_7
REMARK    7  A    between atoms: C_12  and  N_13
REMARK                            x       y       z     vdW  Elec       q    Type
REMARK                         _______ _______ _______ _____ _____    ______ ____
ROOT
ATOM      1  C   UNL     1       2.535   4.434  19.605  0.00  0.00    +0.000 C 
ATOM      2  N   UNL     1       3.687   3.823  19.541  0.00  0.00    +0.000 NA
ENDROOT
BRANCH   1   3
ATOM      3  C   UNL     1       2.290   5.914  19.439  0.00  0.00    +0.000 A 
ATOM      4  C   UNL     1       1.856   6.695  20.518  0.00  0.00    +0.000 A 
ATOM      5  C   UNL     1       1.595   8.060  20.357  0.00  0.00    +0.000 A 
ATOM      6  C   UNL     1       1.783   8.666  19.119  0.00  0.00    +0.000 A 
ATOM      7  C   UNL     1       2.212   7.905  18.036  0.00  0.00    +0.000 A 
ATOM      8  C   UNL     1       2.438   6.534  18.190  0.00  0.00    +0.000 A 
ENDBRANCH   1   3
BRANCH   1  10
ATOM      9  C   UNL     1       1.198   2.462  18.714  0.00  0.00    +0.000 C 
ATOM     10  C   UNL     1       1.289   3.531  19.809  0.00  0.00    +0.000 C 
ATOM     11  C   UNL     1       1.288   2.846  21.177  0.00  0.00    +0.000 C 
ENDBRANCH   1  10
BRANCH   2  12
ATOM     12  N   UNL     1       4.829   4.526  19.369  0.00  0.00    +0.000 N 
ATOM     13  H   UNL     1       5.310   4.962  20.162  0.00  0.00    +0.000 HD
BRANCH  12  14
ATOM     14  C   UNL     1       5.521   4.463  18.140  0.00  0.00    +0.000 A 
ATOM     15  C   UNL     1       4.901   3.873  17.021  0.00  0.00    +0.000 A 
ATOM     16  C   UNL     1       5.491   3.875  15.752  0.00  0.00    +0.000 A 
ATOM     17  C   UNL     1       6.724   4.481  15.559  0.00  0.00    +0.000 A 
ATOM     18  C   UNL     1       7.368   5.084  16.638  0.00  0.00    +0.000 A 
ATOM     19  C   UNL     1       6.774   5.082  17.914  0.00  0.00    +0.000 A 
BRANCH  19  20
ATOM     20  N   UNL     1       7.497   5.767  18.996  0.00  0.00    +0.000 N 
ATOM     21  O   UNL     1       8.121   6.807  18.722  0.00  0.00    +0.000 OA
ATOM     22  O   UNL     1       7.447   5.273  20.131  0.00  0.00    +0.000 OA
ENDBRANCH  19  20
ENDBRANCH  12  14
ENDBRANCH   2  12
TORSDOF 5
ENDMDL
MODEL 3
REMARK VINA RESULT:      -7.9      1.118      3.305
REMARK  Name = 
REMARK  7 active torsions:
REMARK  status: ('A' for Active; 'I' for Inactive)
REMARK    1  A    between atoms: C_1  and  C_2
REMARK    2  A    between atoms: C_2  and  C_3
REMARK    3  A    between atoms: C_2  and  C_4
REMARK    4  A    between atoms: C_4  and  C_16
REMARK    5  A    between atoms: N_5  and  N_6
REMARK    6  A    between atoms: N_6  and  C_7
REMARK    7  A    between atoms: C_12  and  N_13
REMARK                            x       y       z     vdW  Elec       q    Type
REMARK                         _______ _______ _______ _____ _____    ______ ____
ROOT
ATOM      1  C   UNL     1       2.810   6.341  18.754  0.00  0.00    +0.000 C 
ATOM      2  N   UNL     1       4.074   6.537  18.489  0.00  0.00    +0.000 NA
ENDROOT
BRANCH   1   3
ATOM      3  C   UNL     1       2.168   5.037  19.161  0.00  0.00    +0.000 A 
ATOM      4  C   UNL     1       1.662   4.156  18.197  0.00  0.00    +0.000 A 
ATOM      5  C   UNL     1       1.034   2.963  18.572  0.00  0.00    +0.000 A 
ATOM      6  C   UNL     1       0.922   2.627  19.918  0.00  0.00    +0.000 A 
ATOM      7  C   UNL     1       1.417   3.493  20.889  0.00  0.00    +0.000 A 
ATOM      8  C   UNL     1       2.012   4.700  20.512  0.00  0.00    +0.000 A 
ENDBRANCH   1   3
BRANCH   1  10
ATOM      9  C   UNL     1       1.734   8.212  20.100  0.00  0.00    +0.000 C 
ATOM     10  C   UNL     1       1.896   7.594  18.706  0.00  0.00    +0.000 C 
ATOM     11  C   UNL     1       2.425   8.661  17.746  0.00  0.00    +0.000 C 
ENDBRANCH   1  10
BRANCH   2  12
ATOM     12  N   UNL     1       4.947   5.505  18.502  0.00  0.00    +0.000 N 
ATOM     13  H   UNL     1       5.039   4.896  19.322  0.00  0.00    +0.000 HD
BRANCH  12  14
ATOM     14  C   UNL     1       5.565   5.085  17.305  0.00  0.00    +0.000 A 
ATOM     15  C   UNL     1       4.914   4.149  16.476  0.00  0.00    +0.000 A 
ATOM     16  C   UNL     1       5.424   3.774  15.228  0.00  0.00    +0.000 A 
ATOM     17  C   UNL     1       6.605   4.334  14.762  0.00  0.00    +0.000 A 
ATOM     18  C   UNL     1       7.276   5.270  15.547  0.00  0.00    +0.000 A 
ATOM     19  C   UNL     1       6.763   5.647  16.802  0.00  0.00    +0.000 A 
BRANCH  19  20
ATOM     20  N   UNL     1       7.509   6.664  17.558  0.00  0.00    +0.000 N 
ATOM     21  O   UNL     1       7.719   7.764  17.018  0.00  0.00    +0.000 OA
ATOM     22  O   UNL     1       7.892   6.374  18.700  0.00  0.00    +0.000 OA
ENDBRANCH  19  20
ENDBRANCH  12  14
ENDBRANCH   2  12
TORSDOF 5
ENDMDL
MODEL 4
REMARK VINA RESULT:      -7.9      1.100      3.447
REMARK  Name = 
REMARK  7 active torsions:
REMARK  status: ('A' for Active; 'I' for Inactive)
REMARK    1  A    between atoms: C_1  and  C_2
REMARK    2  A    between atoms: C_2  and  C_3
REMARK    3  A    between atoms: C_2  and  C_4
REMARK    4  A    between atoms: C_4  and  C_16
REMARK    5  A    between atoms: N_5  and  N_6
REMARK    6  A    between atoms: N_6  and  C_7
REMARK    7  A    between atoms: C_12  and  N_13
REMARK                            x       y       z     vdW  Elec       q    Type
REMARK                         _______ _______ _______ _____ _____    ______ ____
ROOT
ATOM      1  C   UNL     1       2.820   6.331  18.828  0.00  0.00    +0.000 C 
ATOM      2  N   UNL     1       4.077   6.520  18.529  0.00  0.00    +0.000 NA
ENDROOT
BRANCH   1   3
ATOM      3  C   UNL     1       2.187   5.038  19.281  0.00  0.00    +0.000 A 
ATOM      4  C   UNL     1       2.169   4.685  20.637  0.00  0.00    +0.000 A 
ATOM      5  C   UNL     1       1.615   3.470  21.055  0.00  0.00    +0.000 A 
ATOM      6  C   UNL     1       1.053   2.602  20.125  0.00  0.00    +0.000 A 
ATOM      7  C   UNL     1       1.063   2.936  18.775  0.00  0.00    +0.000 A 
ATOM      8  C   UNL     1       1.650   4.134  18.354  0.00  0.00    +0.000 A 
ENDBRANCH   1   3
BRANCH   1  10
ATOM      9  C   UNL     1       1.719   8.196  20.163  0.00  0.00    +0.000 C 
ATOM     10  C   UNL     1       1.904   7.583  18.770  0.00  0.00    +0.000 C 
ATOM     11  C   UNL     1       2.448   8.654  17.822  0.00  0.00    +0.000 C 
ENDBRANCH   1  10
BRANCH   2  12
ATOM     12  N   UNL     1       4.950   5.488  18.548  0.00  0.00    +0.000 N 
ATOM     13  H   UNL     1       5.048   4.889  19.374  0.00  0.00    +0.000 HD
BRANCH  12  14
ATOM     14  C   UNL     1       5.560   5.054  17.351  0.00  0.00    +0.000 A 
ATOM     15  C   UNL     1       4.908   4.102  16.542  0.00  0.00    +0.000 A 
ATOM     16  C   UNL     1       5.410   3.713  15.295  0.00  0.00    +0.000 A 
ATOM     17  C   UNL     1       6.583   4.274  14.811  0.00  0.00    +0.000 A 
ATOM     18  C   UNL     1       7.254   5.226  15.575  0.00  0.00    +0.000 A 
ATOM     19  C   UNL     1       6.750   5.618  16.830  0.00  0.00    +0.000 A 
BRANCH  19  20
ATOM     20  N   UNL     1       7.495   6.651  17.563  0.00  0.00    +0.000 N 
ATOM     21  O   UNL     1       7.697   7.743  17.003  0.00  0.00    +0.000 OA
ATOM     22  O   UNL     1       7.885   6.383  18.708  0.00  0.00    +0.000 OA
ENDBRANCH  19  20
ENDBRANCH  12  14
ENDBRANCH   2  12
TORSDOF 5
ENDMDL
MODEL 5
REMARK VINA RESULT:      -7.7      0.871      1.571
REMARK  Name = 
REMARK  7 active torsions:
REMARK  status: ('A' for Active; 'I' for Inactive)
REMARK    1  A    between atoms: C_1  and  C_2
REMARK    2  A    between atoms: C_2  and  C_3
REMARK    3  A    between atoms: C_2  and  C_4
REMARK    4  A    between atoms: C_4  and  C_16
REMARK    5  A    between atoms: N_5  and  N_6
REMARK    6  A    between atoms: N_6  and  C_7
REMARK    7  A    between atoms: C_12  and  N_13
REMARK                            x       y       z     vdW  Elec       q    Type
REMARK                         _______ _______ _______ _____ _____    ______ ____
ROOT
ATOM      1  C   UNL     1       2.934   5.304  19.968  0.00  0.00    +0.000 C 
ATOM      2  N   UNL     1       4.108   4.791  19.717  0.00  0.00    +0.000 NA
ENDROOT
BRANCH   1   3
ATOM      3  C   UNL     1       2.436   6.663  19.541  0.00  0.00    +0.000 A 
ATOM      4  C   UNL     1       1.862   7.541  20.470  0.00  0.00    +0.000 A 
ATOM      5  C   UNL     1       1.367   8.786  20.071  0.00  0.00    +0.000 A 
ATOM      6  C   UNL     1       1.457   9.179  18.739  0.00  0.00    +0.000 A 
ATOM      7  C   UNL     1       2.021   8.318  17.803  0.00  0.00    +0.000 A 
ATOM      8  C   UNL     1       2.483   7.059  18.198  0.00  0.00    +0.000 A 
ENDBRANCH   1   3
BRANCH   1  10
ATOM      9  C   UNL     1       0.825   3.892  19.795  0.00  0.00    +0.000 C 
ATOM     10  C   UNL     1       1.935   4.392  20.728  0.00  0.00    +0.000 C 
ATOM     11  C   UNL     1       2.624   3.187  21.372  0.00  0.00    +0.000 C 
ENDBRANCH   1  10
BRANCH   2  12
ATOM     12  N   UNL     1       5.047   5.511  19.063  0.00  0.00    +0.000 N 
ATOM     13  H   UNL     1       5.583   6.244  19.539  0.00  0.00    +0.000 HD
BRANCH  12  14
ATOM     14  C   UNL     1       5.491   5.103  17.786  0.00  0.00    +0.000 A 
ATOM     15  C   UNL     1       4.722   4.187  17.041  0.00  0.00    +0.000 A 
ATOM     16  C   UNL     1       5.053   3.826  15.730  0.00  0.00    +0.000 A 
ATOM     17  C   UNL     1       6.166   4.382  15.115  0.00  0.00    +0.000 A 
ATOM     18  C   UNL     1       6.948   5.299  15.814  0.00  0.00    +0.000 A 
ATOM     19  C   UNL     1       6.616   5.661  17.133  0.00  0.00    +0.000 A 
BRANCH  19  20
ATOM     20  N   UNL     1       7.469   6.660  17.794  0.00  0.00    +0.000 N 
ATOM     21  O   UNL     1       7.945   6.385  18.909  0.00  0.00    +0.000 OA
ATOM     22  O   UNL     1       7.673   7.731  17.203  0.00  0.00    +0.000 OA
ENDBRANCH  19  20
ENDBRANCH  12  14
ENDBRANCH   2  12
TORSDOF 5
ENDMDL
MODEL 6
REMARK VINA RESULT:      -7.7      3.238      5.709
REMARK  Name = 
REMARK  7 active torsions:
REMARK  status: ('A' for Active; 'I' for Inactive)
REMARK    1  A    between atoms: C_1  and  C_2
REMARK    2  A    between atoms: C_2  and  C_3
REMARK    3  A    between atoms: C_2  and  C_4
REMARK    4  A    between atoms: C_4  and  C_16
REMARK    5  A    between atoms: N_5  and  N_6
REMARK    6  A    between atoms: N_6  and  C_7
REMARK    7  A    between atoms: C_12  and  N_13
REMARK                            x       y       z     vdW  Elec       q    Type
REMARK                         _______ _______ _______ _____ _____    ______ ____
ROOT
ATOM      1  C   UNL     1       1.885   4.820  20.042  0.00  0.00    +0.000 C 
ATOM      2  N   UNL     1       1.584   5.895  20.720  0.00  0.00    +0.000 NA
ENDROOT
BRANCH   1   3
ATOM      3  C   UNL     1       3.061   4.640  19.114  0.00  0.00    +0.000 A 
ATOM      4  C   UNL     1       4.306   4.228  19.607  0.00  0.00    +0.000 A 
ATOM      5  C   UNL     1       5.408   4.095  18.755  0.00  0.00    +0.000 A 
ATOM      6  C   UNL     1       5.273   4.353  17.395  0.00  0.00    +0.000 A 
ATOM      7  C   UNL     1       4.045   4.766  16.889  0.00  0.00    +0.000 A 
ATOM      8  C   UNL     1       2.954   4.933  17.748  0.00  0.00    +0.000 A 
ENDBRANCH   1   3
BRANCH   1  10
ATOM      9  C   UNL     1       0.915   2.702  19.018  0.00  0.00    +0.000 C 
ATOM     10  C   UNL     1       0.970   3.587  20.270  0.00  0.00    +0.000 C 
ATOM     11  C   UNL     1       1.425   2.740  21.460  0.00  0.00    +0.000 C 
ENDBRANCH   1  10
BRANCH   2  12
ATOM     12  N   UNL     1       2.321   7.021  20.584  0.00  0.00    +0.000 N 
ATOM     13  H   UNL     1       3.321   7.032  20.809  0.00  0.00    +0.000 HD
BRANCH  12  14
ATOM     14  C   UNL     1       1.795   8.133  19.892  0.00  0.00    +0.000 A 
ATOM     15  C   UNL     1       1.996   8.248  18.502  0.00  0.00    +0.000 A 
ATOM     16  C   UNL     1       1.411   9.268  17.744  0.00  0.00    +0.000 A 
ATOM     17  C   UNL     1       0.593  10.207  18.355  0.00  0.00    +0.000 A 
ATOM     18  C   UNL     1       0.360  10.125  19.726  0.00  0.00    +0.000 A 
ATOM     19  C   UNL     1       0.949   9.099  20.489  0.00  0.00    +0.000 A 
BRANCH  19  20
ATOM     20  N   UNL     1       0.631   9.057  21.924  0.00  0.00    +0.000 N 
ATOM     21  O   UNL     1      -0.525   8.748  22.264  0.00  0.00    +0.000 OA
ATOM     22  O   UNL     1       1.534   9.332  22.727  0.00  0.00    +0.000 OA
ENDBRANCH  19  20
ENDBRANCH  12  14
ENDBRANCH   2  12
TORSDOF 5
ENDMDL
MODEL 7
REMARK VINA RESULT:      -7.7      0.670      1.254
REMARK  Name = 
REMARK  7 active torsions:
REMARK  status: ('A' for Active; 'I' for Inactive)
REMARK    1  A    between atoms: C_1  and  C_2
REMARK    2  A    between atoms: C_2  and  C_3
REMARK    3  A    between atoms: C_2  and  C_4
REMARK    4  A    between atoms: C_4  and  C_16
REMARK    5  A    between atoms: N_5  and  N_6
REMARK    6  A    between atoms: N_6  and  C_7
REMARK    7  A    between atoms: C_12  and  N_13
REMARK                            x       y       z     vdW  Elec       q    Type
REMARK                         _______ _______ _______ _____ _____    ______ ____
ROOT
ATOM      1  C   UNL     1       3.020   3.800  19.604  0.00  0.00    +0.000 C 
ATOM      2  N   UNL     1       4.231   3.317  19.524  0.00  0.00    +0.000 NA
ENDROOT
BRANCH   1   3
ATOM      3  C   UNL     1       2.618   5.248  19.471  0.00  0.00    +0.000 A 
ATOM      4  C   UNL     1       2.723   5.910  18.241  0.00  0.00    +0.000 A 
ATOM      5  C   UNL     1       2.384   7.262  18.122  0.00  0.00    +0.000 A 
ATOM      6  C   UNL     1       1.917   7.965  19.229  0.00  0.00    +0.000 A 
ATOM      7  C   UNL     1       1.810   7.323  20.458  0.00  0.00    +0.000 A 
ATOM      8  C   UNL     1       2.182   5.981  20.583  0.00  0.00    +0.000 A 
ENDBRANCH   1   3
BRANCH   1  10
ATOM      9  C   UNL     1       1.362   2.769  21.236  0.00  0.00    +0.000 C 
ATOM     10  C   UNL     1       1.879   2.764  19.792  0.00  0.00    +0.000 C 
ATOM     11  C   UNL     1       0.707   3.015  18.842  0.00  0.00    +0.000 C 
ENDBRANCH   1  10
BRANCH   2  12
ATOM     12  N   UNL     1       5.290   4.141  19.365  0.00  0.00    +0.000 N 
ATOM     13  H   UNL     1       5.831   4.475  20.169  0.00  0.00    +0.000 HD
BRANCH  12  14
ATOM     14  C   UNL     1       5.832   4.357  18.079  0.00  0.00    +0.000 A 
ATOM     15  C   UNL     1       5.205   3.786  16.953  0.00  0.00    +0.000 A 
ATOM     16  C   UNL     1       5.631   4.050  15.647  0.00  0.00    +0.000 A 
ATOM     17  C   UNL     1       6.699   4.907  15.422  0.00  0.00    +0.000 A 
ATOM     18  C   UNL     1       7.341   5.500  16.507  0.00  0.00    +0.000 A 
ATOM     19  C   UNL     1       6.913   5.234  17.822  0.00  0.00    +0.000 A 
BRANCH  19  20
ATOM     20  N   UNL     1       7.618   5.923  18.913  0.00  0.00    +0.000 N 
ATOM     21  O   UNL     1       7.656   5.376  20.029  0.00  0.00    +0.000 OA
ATOM     22  O   UNL     1       8.142   7.018  18.664  0.00  0.00    +0.000 OA
ENDBRANCH  19  20
ENDBRANCH  12  14
ENDBRANCH   2  12
TORSDOF 5
ENDMDL
MODEL 8
REMARK VINA RESULT:      -7.6      3.267      5.716
REMARK  Name = 
REMARK  7 active torsions:
REMARK  status: ('A' for Active; 'I' for Inactive)
REMARK    1  A    between atoms: C_1  and  C_2
REMARK    2  A    between atoms: C_2  and  C_3
REMARK    3  A    between atoms: C_2  and  C_4
REMARK    4  A    between atoms: C_4  and  C_16
REMARK    5  A    between atoms: N_5  and  N_6
REMARK    6  A    between atoms: N_6  and  C_7
REMARK    7  A    between atoms: C_12  and  N_13
REMARK                            x       y       z     vdW  Elec       q    Type
REMARK                         _______ _______ _______ _____ _____    ______ ____
ROOT
ATOM      1  C   UNL     1       1.901   4.885  20.097  0.00  0.00    +0.000 C 
ATOM      2  N   UNL     1       1.594   5.969  20.757  0.00  0.00    +0.000 NA
ENDROOT
BRANCH   1   3
ATOM      3  C   UNL     1       3.068   4.704  19.157  0.00  0.00    +0.000 A 
ATOM      4  C   UNL     1       2.932   4.966  17.787  0.00  0.00    +0.000 A 
ATOM      5  C   UNL     1       4.002   4.766  16.908  0.00  0.00    +0.000 A 
ATOM      6  C   UNL     1       5.228   4.319  17.391  0.00  0.00    +0.000 A 
ATOM      7  C   UNL     1       5.379   4.051  18.748  0.00  0.00    +0.000 A 
ATOM      8  C   UNL     1       4.299   4.219  19.619  0.00  0.00    +0.000 A 
ENDBRANCH   1   3
BRANCH   1  10
ATOM      9  C   UNL     1       0.903   2.764  19.109  0.00  0.00    +0.000 C 
ATOM     10  C   UNL     1       1.008   3.643  20.361  0.00  0.00    +0.000 C 
ATOM     11  C   UNL     1       1.525   2.795  21.525  0.00  0.00    +0.000 C 
ENDBRANCH   1  10
BRANCH   2  12
ATOM     12  N   UNL     1       2.312   7.102  20.590  0.00  0.00    +0.000 N 
ATOM     13  H   UNL     1       3.321   7.124  20.768  0.00  0.00    +0.000 HD
BRANCH  12  14
ATOM     14  C   UNL     1       1.742   8.210  19.926  0.00  0.00    +0.000 A 
ATOM     15  C   UNL     1       1.908   8.348  18.533  0.00  0.00    +0.000 A 
ATOM     16  C   UNL     1       1.281   9.364  17.803  0.00  0.00    +0.000 A 
ATOM     17  C   UNL     1       0.454  10.274  18.446  0.00  0.00    +0.000 A 
ATOM     18  C   UNL     1       0.255  10.167  19.821  0.00  0.00    +0.000 A 
ATOM     19  C   UNL     1       0.886   9.146  20.556  0.00  0.00    +0.000 A 
BRANCH  19  20
ATOM     20  N   UNL     1       0.602   9.076  21.997  0.00  0.00    +0.000 N 
ATOM     21  O   UNL     1      -0.553   8.792  22.357  0.00  0.00    +0.000 OA
ATOM     22  O   UNL     1       1.532   9.306  22.783  0.00  0.00    +0.000 OA
ENDBRANCH  19  20
ENDBRANCH  12  14
ENDBRANCH   2  12
TORSDOF 5
ENDMDL
MODEL 9
REMARK VINA RESULT:      -7.4      1.056      3.127
REMARK  Name = 
REMARK  7 active torsions:
REMARK  status: ('A' for Active; 'I' for Inactive)
REMARK    1  A    between atoms: C_1  and  C_2
REMARK    2  A    between atoms: C_2  and  C_3
REMARK    3  A    between atoms: C_2  and  C_4
REMARK    4  A    between atoms: C_4  and  C_16
REMARK    5  A    between atoms: N_5  and  N_6
REMARK    6  A    between atoms: N_6  and  C_7
REMARK    7  A    between atoms: C_12  and  N_13
REMARK                            x       y       z     vdW  Elec       q    Type
REMARK                         _______ _______ _______ _____ _____    ______ ____
ROOT
ATOM      1  C   UNL     1       3.215   6.216  19.187  0.00  0.00    +0.000 C 
ATOM      2  N   UNL     1       4.492   6.270  18.922  0.00  0.00    +0.000 NA
ENDROOT
BRANCH   1   3
ATOM      3  C   UNL     1       2.388   4.968  19.385  0.00  0.00    +0.000 A 
ATOM      4  C   UNL     1       1.760   4.345  18.299  0.00  0.00    +0.000 A 
ATOM      5  C   UNL     1       0.964   3.210  18.484  0.00  0.00    +0.000 A 
ATOM      6  C   UNL     1       0.803   2.671  19.757  0.00  0.00    +0.000 A 
ATOM      7  C   UNL     1       1.418   3.278  20.847  0.00  0.00    +0.000 A 
ATOM      8  C   UNL     1       2.183   4.434  20.664  0.00  0.00    +0.000 A 
ENDBRANCH   1   3
BRANCH   1  10
ATOM      9  C   UNL     1       1.844   8.047  18.074  0.00  0.00    +0.000 C 
ATOM     10  C   UNL     1       2.495   7.578  19.381  0.00  0.00    +0.000 C 
ATOM     11  C   UNL     1       1.429   7.519  20.477  0.00  0.00    +0.000 C 
ENDBRANCH   1  10
BRANCH   2  12
ATOM     12  N   UNL     1       5.203   5.136  18.734  0.00  0.00    +0.000 N 
ATOM     13  H   UNL     1       5.221   4.394  19.441  0.00  0.00    +0.000 HD
BRANCH  12  14
ATOM     14  C   UNL     1       5.728   4.833  17.459  0.00  0.00    +0.000 A 
ATOM     15  C   UNL     1       5.078   3.883  16.645  0.00  0.00    +0.000 A 
ATOM     16  C   UNL     1       5.487   3.618  15.333  0.00  0.00    +0.000 A 
ATOM     17  C   UNL     1       6.562   4.305  14.787  0.00  0.00    +0.000 A 
ATOM     18  C   UNL     1       7.227   5.259  15.554  0.00  0.00    +0.000 A 
ATOM     19  C   UNL     1       6.815   5.526  16.874  0.00  0.00    +0.000 A 
BRANCH  19  20
ATOM     20  N   UNL     1       7.544   6.569  17.610  0.00  0.00    +0.000 N 
ATOM     21  O   UNL     1       7.966   6.303  18.749  0.00  0.00    +0.000 OA
ATOM     22  O   UNL     1       7.703   7.666  17.056  0.00  0.00    +0.000 OA
ENDBRANCH  19  20
ENDBRANCH  12  14
ENDBRANCH   2  12
TORSDOF 5
ENDMDL
