MODEL 1
REMARK VINA RESULT:      -8.6      0.000      0.000
REMARK  Name = 
REMARK  5 active torsions:
REMARK  status: ('A' for Active; 'I' for Inactive)
REMARK    1  A    between atoms: C_1  and  C_2
REMARK    2  A    between atoms: C_2  and  C_3
REMARK    3  A    between atoms: C_2  and  C_4
REMARK    4  A    between atoms: C_10  and  C_11
REMARK    5  A    between atoms: C_15  and  C_16
REMARK                            x       y       z     vdW  Elec       q    Type
REMARK                         _______ _______ _______ _____ _____    ______ ____
ROOT
ATOM      1  C   UNL     1       3.966   3.444  17.892  0.00  0.00    +0.000 A 
ATOM      2  O   UNL     1       3.871   2.076  18.065  0.00  0.00    +0.000 OA
ATOM      3  C   UNL     1       2.825   1.891  18.907  0.00  0.00    +0.000 A 
ATOM      4  N   UNL     1       2.228   2.990  19.301  0.00  0.00    +0.000 NA
ATOM      5  C   UNL     1       2.922   3.985  18.647  0.00  0.00    +0.000 A 
ENDROOT
BRANCH   1  12
ATOM      6  C   UNL     1       6.399   4.045  13.664  0.00  0.00    +0.000 A 
ATOM      7  N   UNL     1       7.409   4.833  13.353  0.00  0.00    +0.000 NA
ATOM      8  N   UNL     1       7.782   5.532  14.477  0.00  0.00    +0.000 NA
ATOM      9  C   UNL     1       6.985   5.171  15.455  0.00  0.00    +0.000 A 
ATOM     10  C   UNL     1       6.901   5.561  16.816  0.00  0.00    +0.000 A 
ATOM     11  C   UNL     1       5.936   5.043  17.596  0.00  0.00    +0.000 A 
ATOM     12  C   UNL     1       4.981   4.046  17.097  0.00  0.00    +0.000 A 
ATOM     13  C   UNL     1       5.089   3.663  15.806  0.00  0.00    +0.000 A 
ATOM     14  N   UNL     1       6.075   4.228  14.997  0.00  0.00    +0.000 N 
BRANCH   6  16
ATOM     15  C   UNL     1       4.568   3.823  11.993  0.00  0.00    +0.000 C 
ATOM     16  C   UNL     1       5.693   3.102  12.736  0.00  0.00    +0.000 C 
ATOM     17  C   UNL     1       6.673   2.472  11.743  0.00  0.00    +0.000 C 
ENDBRANCH   6  16
ENDBRANCH   1  12
BRANCH   5  18
ATOM     18  C   UNL     1       2.586   5.394  18.797  0.00  0.00    +0.000 A 
ATOM     19  C   UNL     1       2.648   6.288  17.718  0.00  0.00    +0.000 A 
ATOM     20  C   UNL     1       2.355   7.644  17.879  0.00  0.00    +0.000 A 
ATOM     21  C   UNL     1       1.962   8.119  19.125  0.00  0.00    +0.000 A 
ATOM     22 CL   UNL     1       1.597   9.788  19.311  0.00  0.00    +0.000 Cl
ATOM     23  C   UNL     1       1.863   7.233  20.197  0.00  0.00    +0.000 A 
ATOM     24  F   UNL     1       1.473   7.671  21.404  0.00  0.00    +0.000 F 
ATOM     25  C   UNL     1       2.169   5.881  20.041  0.00  0.00    +0.000 A 
ENDBRANCH   5  18
TORSDOF 3
ENDMDL
MODEL 2
REMARK VINA RESULT:      -8.5      0.944      1.347
REMARK  Name = 
REMARK  5 active torsions:
REMARK  status: ('A' for Active; 'I' for Inactive)
REMARK    1  A    between atoms: C_1  and  C_2
REMARK    2  A    between atoms: C_2  and  C_3
REMARK    3  A    between atoms: C_2  and  C_4
REMARK    4  A    between atoms: C_10  and  C_11
REMARK    5  A    between atoms: C_15  and  C_16
REMARK                            x       y       z     vdW  Elec       q    Type
REMARK                         _______ _______ _______ _____ _____    ______ ____
ROOT
ATOM      1  C   UNL     1       3.829   3.358  17.944  0.00  0.00    +0.000 A 
ATOM      2  O   UNL     1       3.717   1.980  17.929  0.00  0.00    +0.000 OA
ATOM      3  C   UNL     1       2.640   1.698  18.702  0.00  0.00    +0.000 A 
ATOM      4  N   UNL     1       2.040   2.743  19.220  0.00  0.00    +0.000 NA
ATOM      5  C   UNL     1       2.764   3.807  18.728  0.00  0.00    +0.000 A 
ENDROOT
BRANCH   1  12
ATOM      6  C   UNL     1       6.586   4.288  13.982  0.00  0.00    +0.000 A 
ATOM      7  N   UNL     1       7.577   5.139  13.799  0.00  0.00    +0.000 NA
ATOM      8  N   UNL     1       7.814   5.797  14.983  0.00  0.00    +0.000 NA
ATOM      9  C   UNL     1       6.955   5.349  15.868  0.00  0.00    +0.000 A 
ATOM     10  C   UNL     1       6.733   5.665  17.233  0.00  0.00    +0.000 A 
ATOM     11  C   UNL     1       5.732   5.063  17.899  0.00  0.00    +0.000 A 
ATOM     12  C   UNL     1       4.876   4.048  17.271  0.00  0.00    +0.000 A 
ATOM     13  C   UNL     1       5.116   3.736  15.978  0.00  0.00    +0.000 A 
ATOM     14  N   UNL     1       6.138   4.387  15.288  0.00  0.00    +0.000 N 
BRANCH   6  16
ATOM     15  C   UNL     1       4.712   3.927  12.384  0.00  0.00    +0.000 C 
ATOM     16  C   UNL     1       6.014   3.360  12.952  0.00  0.00    +0.000 C 
ATOM     17  C   UNL     1       7.019   3.100  11.828  0.00  0.00    +0.000 C 
ENDBRANCH   6  16
ENDBRANCH   1  12
BRANCH   5  18
ATOM     18  C   UNL     1       2.435   5.188  19.054  0.00  0.00    +0.000 A 
ATOM     19  C   UNL     1       2.078   5.575  20.354  0.00  0.00    +0.000 A 
ATOM     20  C   UNL     1       1.732   6.896  20.650  0.00  0.00    +0.000 A 
ATOM     21  C   UNL     1       1.772   7.858  19.648  0.00  0.00    +0.000 A 
ATOM     22 CL   UNL     1       1.352   9.481  20.024  0.00  0.00    +0.000 Cl
ATOM     23  C   UNL     1       2.160   7.491  18.359  0.00  0.00    +0.000 A 
ATOM     24  F   UNL     1       2.217   8.410  17.382  0.00  0.00    +0.000 F 
ATOM     25  C   UNL     1       2.491   6.171  18.059  0.00  0.00    +0.000 A 
ENDBRANCH   5  18
TORSDOF 3
ENDMDL
MODEL 3
REMARK VINA RESULT:      -8.4      4.037      7.552
REMARK  Name = 
REMARK  5 active torsions:
REMARK  status: ('A' for Active; 'I' for Inactive)
REMARK    1  A    between atoms: C_1  and  C_2
REMARK    2  A    between atoms: C_2  and  C_3
REMARK    3  A    between atoms: C_2  and  C_4
REMARK    4  A    between atoms: C_10  and  C_11
REMARK    5  A    between atoms: C_15  and  C_16
REMARK                            x       y       z     vdW  Elec       q    Type
REMARK                         _______ _______ _______ _____ _____    ______ ____
ROOT
ATOM      1  C   UNL     1       2.537   5.290  20.086  0.00  0.00    +0.000 A 
ATOM      2  O   UNL     1       1.877   4.725  21.161  0.00  0.00    +0.000 OA
ATOM      3  C   UNL     1       2.365   3.464  21.261  0.00  0.00    +0.000 A 
ATOM      4  N   UNL     1       3.271   3.146  20.368  0.00  0.00    +0.000 NA
ATOM      5  C   UNL     1       3.414   4.302  19.629  0.00  0.00    +0.000 A 
ENDROOT
BRANCH   1  12
ATOM      6  C   UNL     1       0.558   9.757  20.617  0.00  0.00    +0.000 A 
ATOM      7  N   UNL     1       0.578  10.811  19.825  0.00  0.00    +0.000 NA
ATOM      8  N   UNL     1       1.264  10.485  18.679  0.00  0.00    +0.000 NA
ATOM      9  C   UNL     1       1.666   9.240  18.793  0.00  0.00    +0.000 A 
ATOM     10  C   UNL     1       2.409   8.390  17.935  0.00  0.00    +0.000 A 
ATOM     11  C   UNL     1       2.715   7.145  18.338  0.00  0.00    +0.000 A 
ATOM     12  C   UNL     1       2.269   6.611  19.632  0.00  0.00    +0.000 A 
ATOM     13  C   UNL     1       1.539   7.423  20.428  0.00  0.00    +0.000 A 
ATOM     14  N   UNL     1       1.251   8.722  20.014  0.00  0.00    +0.000 N 
BRANCH   6  16
ATOM     15  C   UNL     1       0.942   9.377  23.047  0.00  0.00    +0.000 C 
ATOM     16  C   UNL     1      -0.096   9.675  21.964  0.00  0.00    +0.000 C 
ATOM     17  C   UNL     1      -0.852  10.966  22.288  0.00  0.00    +0.000 C 
ENDBRANCH   6  16
ENDBRANCH   1  12
BRANCH   5  18
ATOM     18  C   UNL     1       4.340   4.399  18.510  0.00  0.00    +0.000 A 
ATOM     19  C   UNL     1       3.961   4.056  17.205  0.00  0.00    +0.000 A 
ATOM     20  C   UNL     1       4.867   4.122  16.143  0.00  0.00    +0.000 A 
ATOM     21  C   UNL     1       6.164   4.567  16.373  0.00  0.00    +0.000 A 
ATOM     22 CL   UNL     1       7.268   4.651  15.059  0.00  0.00    +0.000 Cl
ATOM     23  C   UNL     1       6.542   4.944  17.661  0.00  0.00    +0.000 A 
ATOM     24  F   UNL     1       7.786   5.387  17.899  0.00  0.00    +0.000 F 
ATOM     25  C   UNL     1       5.643   4.865  18.724  0.00  0.00    +0.000 A 
ENDBRANCH   5  18
TORSDOF 3
ENDMDL
MODEL 4
REMARK VINA RESULT:      -8.2      2.120      3.653
REMARK  Name = 
REMARK  5 active torsions:
REMARK  status: ('A' for Active; 'I' for Inactive)
REMARK    1  A    between atoms: C_1  and  C_2
REMARK    2  A    between atoms: C_2  and  C_3
REMARK    3  A    between atoms: C_2  and  C_4
REMARK    4  A    between atoms: C_10  and  C_11
REMARK    5  A    between atoms: C_15  and  C_16
REMARK                            x       y       z     vdW  Elec       q    Type
REMARK                         _______ _______ _______ _____ _____    ______ ____
ROOT
ATOM      1  C   UNL     1       3.255   3.941  19.435  0.00  0.00    +0.000 A 
ATOM      2  O   UNL     1       3.193   2.701  20.044  0.00  0.00    +0.000 OA
ATOM      3  C   UNL     1       2.343   2.856  21.088  0.00  0.00    +0.000 A 
ATOM      4  N   UNL     1       1.845   4.061  21.226  0.00  0.00    +0.000 NA
ATOM      5  C   UNL     1       2.392   4.758  20.170  0.00  0.00    +0.000 A 
ENDROOT
BRANCH   1  12
ATOM      6  C   UNL     1       6.953   6.283  17.199  0.00  0.00    +0.000 A 
ATOM      7  N   UNL     1       7.431   6.172  15.975  0.00  0.00    +0.000 NA
ATOM      8  N   UNL     1       6.679   5.247  15.292  0.00  0.00    +0.000 NA
ATOM      9  C   UNL     1       5.760   4.794  16.113  0.00  0.00    +0.000 A 
ATOM     10  C   UNL     1       4.725   3.836  15.958  0.00  0.00    +0.000 A 
ATOM     11  C   UNL     1       3.939   3.535  17.007  0.00  0.00    +0.000 A 
ATOM     12  C   UNL     1       4.085   4.199  18.309  0.00  0.00    +0.000 A 
ATOM     13  C   UNL     1       5.057   5.129  18.434  0.00  0.00    +0.000 A 
ATOM     14  N   UNL     1       5.887   5.413  17.350  0.00  0.00    +0.000 N 
BRANCH   6  16
ATOM     15  C   UNL     1       8.392   6.425  19.225  0.00  0.00    +0.000 C 
ATOM     16  C   UNL     1       7.471   7.191  18.274  0.00  0.00    +0.000 C 
ATOM     17  C   UNL     1       8.204   8.393  17.672  0.00  0.00    +0.000 C 
ENDBRANCH   6  16
ENDBRANCH   1  12
BRANCH   5  18
ATOM     18  C   UNL     1       2.099   6.164  19.932  0.00  0.00    +0.000 A 
ATOM     19  C   UNL     1       1.578   6.990  20.938  0.00  0.00    +0.000 A 
ATOM     20  C   UNL     1       1.270   8.330  20.691  0.00  0.00    +0.000 A 
ATOM     21  C   UNL     1       1.513   8.871  19.434  0.00  0.00    +0.000 A 
ATOM     22 CL   UNL     1       1.138  10.523  19.144  0.00  0.00    +0.000 Cl
ATOM     23  C   UNL     1       2.064   8.068  18.436  0.00  0.00    +0.000 A 
ATOM     24  F   UNL     1       2.317   8.577  17.220  0.00  0.00    +0.000 F 
ATOM     25  C   UNL     1       2.359   6.727  18.677  0.00  0.00    +0.000 A 
ENDBRANCH   5  18
TORSDOF 3
ENDMDL
MODEL 5
REMARK VINA RESULT:      -8.2      1.943      3.279
REMARK  Name = 
REMARK  5 active torsions:
REMARK  status: ('A' for Active; 'I' for Inactive)
REMARK    1  A    between atoms: C_1  and  C_2
REMARK    2  A    between atoms: C_2  and  C_3
REMARK    3  A    between atoms: C_2  and  C_4
REMARK    4  A    between atoms: C_10  and  C_11
REMARK    5  A    between atoms: C_15  and  C_16
REMARK                            x       y       z     vdW  Elec       q    Type
REMARK                         _______ _______ _______ _____ _____    ______ ____
ROOT
ATOM      1  C   UNL     1       3.381   4.038  19.505  0.00  0.00    +0.000 A 
ATOM      2  O   UNL     1       3.361   2.902  20.292  0.00  0.00    +0.000 OA
ATOM      3  C   UNL     1       2.576   3.212  21.352  0.00  0.00    +0.000 A 
ATOM      4  N   UNL     1       2.083   4.427  21.342  0.00  0.00    +0.000 NA
ATOM      5  C   UNL     1       2.561   4.958  20.163  0.00  0.00    +0.000 A 
ENDROOT
BRANCH   1  12
ATOM      6  C   UNL     1       7.158   5.731  16.854  0.00  0.00    +0.000 A 
ATOM      7  N   UNL     1       7.511   5.496  15.605  0.00  0.00    +0.000 NA
ATOM      8  N   UNL     1       6.584   4.654  15.038  0.00  0.00    +0.000 NA
ATOM      9  C   UNL     1       5.686   4.374  15.953  0.00  0.00    +0.000 A 
ATOM     10  C   UNL     1       4.521   3.564  15.936  0.00  0.00    +0.000 A 
ATOM     11  C   UNL     1       3.793   3.426  17.058  0.00  0.00    +0.000 A 
ATOM     12  C   UNL     1       4.139   4.124  18.304  0.00  0.00    +0.000 A 
ATOM     13  C   UNL     1       5.236   4.913  18.298  0.00  0.00    +0.000 A 
ATOM     14  N   UNL     1       6.000   5.027  17.138  0.00  0.00    +0.000 N 
BRANCH   6  16
ATOM     15  C   UNL     1       7.324   8.029  17.794  0.00  0.00    +0.000 C 
ATOM     16  C   UNL     1       7.884   6.608  17.830  0.00  0.00    +0.000 C 
ATOM     17  C   UNL     1       7.804   6.036  19.247  0.00  0.00    +0.000 C 
ENDBRANCH   6  16
ENDBRANCH   1  12
BRANCH   5  18
ATOM     18  C   UNL     1       2.249   6.316  19.739  0.00  0.00    +0.000 A 
ATOM     19  C   UNL     1       2.445   6.741  18.417  0.00  0.00    +0.000 A 
ATOM     20  C   UNL     1       2.173   8.055  18.028  0.00  0.00    +0.000 A 
ATOM     21  C   UNL     1       1.667   8.956  18.958  0.00  0.00    +0.000 A 
ATOM     22 CL   UNL     1       1.329  10.568  18.467  0.00  0.00    +0.000 Cl
ATOM     23  C   UNL     1       1.434   8.535  20.266  0.00  0.00    +0.000 A 
ATOM     24  F   UNL     1       0.933   9.388  21.174  0.00  0.00    +0.000 F 
ATOM     25  C   UNL     1       1.718   7.228  20.660  0.00  0.00    +0.000 A 
ENDBRANCH   5  18
TORSDOF 3
ENDMDL
MODEL 6
REMARK VINA RESULT:      -8.1      4.107      7.619
REMARK  Name = 
REMARK  5 active torsions:
REMARK  status: ('A' for Active; 'I' for Inactive)
REMARK    1  A    between atoms: C_1  and  C_2
REMARK    2  A    between atoms: C_2  and  C_3
REMARK    3  A    between atoms: C_2  and  C_4
REMARK    4  A    between atoms: C_10  and  C_11
REMARK    5  A    between atoms: C_15  and  C_16
REMARK                            x       y       z     vdW  Elec       q    Type
REMARK                         _______ _______ _______ _____ _____    ______ ____
ROOT
ATOM      1  C   UNL     1       2.472   5.308  20.122  0.00  0.00    +0.000 A 
ATOM      2  O   UNL     1       1.744   4.713  21.136  0.00  0.00    +0.000 OA
ATOM      3  C   UNL     1       2.241   3.457  21.247  0.00  0.00    +0.000 A 
ATOM      4  N   UNL     1       3.213   3.169  20.415  0.00  0.00    +0.000 NA
ATOM      5  C   UNL     1       3.392   4.340  19.711  0.00  0.00    +0.000 A 
ENDROOT
BRANCH   1  12
ATOM      6  C   UNL     1       0.524   9.788  20.667  0.00  0.00    +0.000 A 
ATOM      7  N   UNL     1       0.561  10.847  19.882  0.00  0.00    +0.000 NA
ATOM      8  N   UNL     1       1.254  10.523  18.740  0.00  0.00    +0.000 NA
ATOM      9  C   UNL     1       1.645   9.274  18.849  0.00  0.00    +0.000 A 
ATOM     10  C   UNL     1       2.388   8.424  17.991  0.00  0.00    +0.000 A 
ATOM     11  C   UNL     1       2.681   7.173  18.389  0.00  0.00    +0.000 A 
ATOM     12  C   UNL     1       2.218   6.635  19.675  0.00  0.00    +0.000 A 
ATOM     13  C   UNL     1       1.488   7.446  20.470  0.00  0.00    +0.000 A 
ATOM     14  N   UNL     1       1.214   8.751  20.062  0.00  0.00    +0.000 N 
BRANCH   6  16
ATOM     15  C   UNL     1       0.883   9.392  23.097  0.00  0.00    +0.000 C 
ATOM     16  C   UNL     1      -0.143   9.701  22.007  0.00  0.00    +0.000 C 
ATOM     17  C   UNL     1      -0.895  10.994  22.330  0.00  0.00    +0.000 C 
ENDBRANCH   6  16
ENDBRANCH   1  12
BRANCH   5  18
ATOM     18  C   UNL     1       4.395   4.471  18.663  0.00  0.00    +0.000 A 
ATOM     19  C   UNL     1       5.697   4.914  18.939  0.00  0.00    +0.000 A 
ATOM     20  C   UNL     1       6.643   5.067  17.922  0.00  0.00    +0.000 A 
ATOM     21  C   UNL     1       6.304   4.746  16.613  0.00  0.00    +0.000 A 
ATOM     22 CL   UNL     1       7.477   4.932  15.372  0.00  0.00    +0.000 Cl
ATOM     23  C   UNL     1       5.023   4.272  16.333  0.00  0.00    +0.000 A 
ATOM     24  F   UNL     1       4.681   3.945  15.077  0.00  0.00    +0.000 F 
ATOM     25  C   UNL     1       4.073   4.132  17.344  0.00  0.00    +0.000 A 
ENDBRANCH   5  18
TORSDOF 3
ENDMDL
MODEL 7
REMARK VINA RESULT:      -8.0      1.650      3.274
REMARK  Name = 
REMARK  5 active torsions:
REMARK  status: ('A' for Active; 'I' for Inactive)
REMARK    1  A    between atoms: C_1  and  C_2
REMARK    2  A    between atoms: C_2  and  C_3
REMARK    3  A    between atoms: C_2  and  C_4
REMARK    4  A    between atoms: C_10  and  C_11
REMARK    5  A    between atoms: C_15  and  C_16
REMARK                            x       y       z     vdW  Elec       q    Type
REMARK                         _______ _______ _______ _____ _____    ______ ____
ROOT
ATOM      1  C   UNL     1       3.246   3.633  18.839  0.00  0.00    +0.000 A 
ATOM      2  O   UNL     1       3.091   2.345  19.314  0.00  0.00    +0.000 OA
ATOM      3  C   UNL     1       2.151   2.429  20.286  0.00  0.00    +0.000 A 
ATOM      4  N   UNL     1       1.676   3.633  20.496  0.00  0.00    +0.000 NA
ATOM      5  C   UNL     1       2.340   4.407  19.569  0.00  0.00    +0.000 A 
ENDROOT
BRANCH   1  12
ATOM      6  C   UNL     1       7.052   6.222  17.116  0.00  0.00    +0.000 A 
ATOM      7  N   UNL     1       7.674   6.175  15.954  0.00  0.00    +0.000 NA
ATOM      8  N   UNL     1       7.055   5.237  15.163  0.00  0.00    +0.000 NA
ATOM      9  C   UNL     1       6.071   4.714  15.858  0.00  0.00    +0.000 A 
ATOM     10  C   UNL     1       5.112   3.714  15.557  0.00  0.00    +0.000 A 
ATOM     11  C   UNL     1       4.226   3.341  16.498  0.00  0.00    +0.000 A 
ATOM     12  C   UNL     1       4.187   3.968  17.825  0.00  0.00    +0.000 A 
ATOM     13  C   UNL     1       5.089   4.939  18.089  0.00  0.00    +0.000 A 
ATOM     14  N   UNL     1       6.022   5.298  17.117  0.00  0.00    +0.000 N 
BRANCH   6  16
ATOM     15  C   UNL     1       8.202   6.355  19.319  0.00  0.00    +0.000 C 
ATOM     16  C   UNL     1       7.396   7.118  18.269  0.00  0.00    +0.000 C 
ATOM     17  C   UNL     1       8.167   8.352  17.794  0.00  0.00    +0.000 C 
ENDBRANCH   6  16
ENDBRANCH   1  12
BRANCH   5  18
ATOM     18  C   UNL     1       2.111   5.840  19.447  0.00  0.00    +0.000 A 
ATOM     19  C   UNL     1       2.204   6.500  18.213  0.00  0.00    +0.000 A 
ATOM     20  C   UNL     1       2.015   7.881  18.111  0.00  0.00    +0.000 A 
ATOM     21  C   UNL     1       1.695   8.616  19.247  0.00  0.00    +0.000 A 
ATOM     22 CL   UNL     1       1.457  10.313  19.109  0.00  0.00    +0.000 Cl
ATOM     23  C   UNL     1       1.565   7.965  20.473  0.00  0.00    +0.000 A 
ATOM     24  F   UNL     1       1.245   8.657  21.577  0.00  0.00    +0.000 F 
ATOM     25  C   UNL     1       1.768   6.590  20.579  0.00  0.00    +0.000 A 
ENDBRANCH   5  18
TORSDOF 3
ENDMDL
MODEL 8
REMARK VINA RESULT:      -7.8      1.647      3.476
REMARK  Name = 
REMARK  5 active torsions:
REMARK  status: ('A' for Active; 'I' for Inactive)
REMARK    1  A    between atoms: C_1  and  C_2
REMARK    2  A    between atoms: C_2  and  C_3
REMARK    3  A    between atoms: C_2  and  C_4
REMARK    4  A    between atoms: C_10  and  C_11
REMARK    5  A    between atoms: C_15  and  C_16
REMARK                            x       y       z     vdW  Elec       q    Type
REMARK                         _______ _______ _______ _____ _____    ______ ____
ROOT
ATOM      1  C   UNL     1       3.290   3.307  18.084  0.00  0.00    +0.000 A 
ATOM      2  O   UNL     1       3.090   1.947  18.221  0.00  0.00    +0.000 OA
ATOM      3  C   UNL     1       2.103   1.818  19.140  0.00  0.00    +0.000 A 
ATOM      4  N   UNL     1       1.638   2.948  19.618  0.00  0.00    +0.000 NA
ATOM      5  C   UNL     1       2.361   3.906  18.939  0.00  0.00    +0.000 A 
ENDROOT
BRANCH   1  12
ATOM      6  C   UNL     1       7.197   6.160  17.211  0.00  0.00    +0.000 A 
ATOM      7  N   UNL     1       7.880   6.373  16.104  0.00  0.00    +0.000 NA
ATOM      8  N   UNL     1       7.300   5.656  15.085  0.00  0.00    +0.000 NA
ATOM      9  C   UNL     1       6.278   5.003  15.587  0.00  0.00    +0.000 A 
ATOM     10  C   UNL     1       5.332   4.116  15.012  0.00  0.00    +0.000 A 
ATOM     11  C   UNL     1       4.394   3.551  15.793  0.00  0.00    +0.000 A 
ATOM     12  C   UNL     1       4.286   3.852  17.226  0.00  0.00    +0.000 A 
ATOM     13  C   UNL     1       5.177   4.719  17.755  0.00  0.00    +0.000 A 
ATOM     14  N   UNL     1       6.164   5.278  16.943  0.00  0.00    +0.000 N 
BRANCH   6  16
ATOM     15  C   UNL     1       8.176   5.737  19.460  0.00  0.00    +0.000 C 
ATOM     16  C   UNL     1       7.481   6.757  18.557  0.00  0.00    +0.000 C 
ATOM     17  C   UNL     1       8.331   8.023  18.427  0.00  0.00    +0.000 C 
ENDBRANCH   6  16
ENDBRANCH   1  12
BRANCH   5  18
ATOM     18  C   UNL     1       2.163   5.331  19.162  0.00  0.00    +0.000 A 
ATOM     19  C   UNL     1       1.854   5.845  20.430  0.00  0.00    +0.000 A 
ATOM     20  C   UNL     1       1.633   7.210  20.627  0.00  0.00    +0.000 A 
ATOM     21  C   UNL     1       1.752   8.087  19.555  0.00  0.00    +0.000 A 
ATOM     22 CL   UNL     1       1.486   9.766  19.810  0.00  0.00    +0.000 Cl
ATOM     23  C   UNL     1       2.094   7.592  18.297  0.00  0.00    +0.000 A 
ATOM     24  F   UNL     1       2.226   8.426  17.254  0.00  0.00    +0.000 F 
ATOM     25  C   UNL     1       2.300   6.228  18.096  0.00  0.00    +0.000 A 
ENDBRANCH   5  18
TORSDOF 3
ENDMDL
MODEL 9
REMARK VINA RESULT:      -7.4      9.286     11.512
REMARK  Name = 
REMARK  5 active torsions:
REMARK  status: ('A' for Active; 'I' for Inactive)
REMARK    1  A    between atoms: C_1  and  C_2
REMARK    2  A    between atoms: C_2  and  C_3
REMARK    3  A    between atoms: C_2  and  C_4
REMARK    4  A    between atoms: C_10  and  C_11
REMARK    5  A    between atoms: C_15  and  C_16
REMARK                            x       y       z     vdW  Elec       q    Type
REMARK                         _______ _______ _______ _____ _____    ______ ____
ROOT
ATOM      1  C   UNL     1      -2.568  13.450  22.189  0.00  0.00    +0.000 A 
ATOM      2  O   UNL     1      -2.708  14.669  22.824  0.00  0.00    +0.000 OA
ATOM      3  C   UNL     1      -1.622  14.785  23.626  0.00  0.00    +0.000 A 
ATOM      4  N   UNL     1      -0.789  13.772  23.583  0.00  0.00    +0.000 NA
ATOM      5  C   UNL     1      -1.359  12.927  22.656  0.00  0.00    +0.000 A 
ENDROOT
BRANCH   1  12
ATOM      6  C   UNL     1      -3.896  11.451  17.899  0.00  0.00    +0.000 A 
ATOM      7  N   UNL     1      -5.081  11.099  17.441  0.00  0.00    +0.000 NA
ATOM      8  N   UNL     1      -6.028  11.416  18.384  0.00  0.00    +0.000 NA
ATOM      9  C   UNL     1      -5.408  11.945  19.413  0.00  0.00    +0.000 A 
ATOM     10  C   UNL     1      -5.870  12.446  20.657  0.00  0.00    +0.000 A 
ATOM     11  C   UNL     1      -4.982  12.903  21.558  0.00  0.00    +0.000 A 
ATOM     12  C   UNL     1      -3.540  12.943  21.283  0.00  0.00    +0.000 A 
ATOM     13  C   UNL     1      -3.117  12.488  20.083  0.00  0.00    +0.000 A 
ATOM     14  N   UNL     1      -4.042  11.989  19.167  0.00  0.00    +0.000 N 
BRANCH   6  16
ATOM     15  C   UNL     1      -1.744  10.202  17.844  0.00  0.00    +0.000 C 
ATOM     16  C   UNL     1      -2.587  11.294  17.185  0.00  0.00    +0.000 C 
ATOM     17  C   UNL     1      -2.804  10.982  15.702  0.00  0.00    +0.000 C 
ENDBRANCH   6  16
ENDBRANCH   1  12
BRANCH   5  18
ATOM     18  C   UNL     1      -0.752  11.655  22.288  0.00  0.00    +0.000 A 
ATOM     19  C   UNL     1      -0.924  10.502  23.067  0.00  0.00    +0.000 A 
ATOM     20  C   UNL     1      -0.311   9.294  22.723  0.00  0.00    +0.000 A 
ATOM     21  C   UNL     1       0.460   9.219  21.569  0.00  0.00    +0.000 A 
ATOM     22 CL   UNL     1       1.203   7.727  21.152  0.00  0.00    +0.000 Cl
ATOM     23  C   UNL     1       0.609  10.350  20.768  0.00  0.00    +0.000 A 
ATOM     24  F   UNL     1       1.340  10.293  19.644  0.00  0.00    +0.000 F 
ATOM     25  C   UNL     1       0.010  11.560  21.117  0.00  0.00    +0.000 A 
ENDBRANCH   5  18
TORSDOF 3
ENDMDL
