MODEL 1
REMARK VINA RESULT:      -7.4      0.000      0.000
REMARK  Name = 
REMARK  8 active torsions:
REMARK  status: ('A' for Active; 'I' for Inactive)
REMARK    1  A    between atoms: C_1  and  C_2
REMARK    2  A    between atoms: C_2  and  N_3
REMARK    3  A    between atoms: N_3  and  C_23
REMARK    4  A    between atoms: C_7  and  C_8
REMARK    5  A    between atoms: N_10  and  C_11
REMARK    6  A    between atoms: C_17  and  C_18
REMARK    7  A    between atoms: C_23  and  C_24
REMARK    8  A    between atoms: C_23  and  C_25
REMARK                            x       y       z     vdW  Elec       q    Type
REMARK                         _______ _______ _______ _____ _____    ______ ____
ROOT
ATOM      1  C   UNL     1       8.164   8.323  18.285  0.00  0.00    +0.000 C 
ATOM      2  O   UNL     1       8.673   7.509  19.048  0.00  0.00    +0.000 OA
ATOM      3  N   UNL     1       7.211   8.033  17.325  0.00  0.00    +0.000 N 
ATOM      4  H   UNL     1       7.011   8.736  16.624  0.00  0.00    +0.000 HD
ENDROOT
BRANCH   3   5
ATOM      5  C   UNL     1       6.614   6.759  17.131  0.00  0.00    +0.000 A 
ATOM      6  C   UNL     1       7.268   5.668  16.537  0.00  0.00    +0.000 A 
ATOM      7  N   UNL     1       6.744   4.429  16.330  0.00  0.00    +0.000 NA
ATOM      8  C   UNL     1       5.470   4.337  16.745  0.00  0.00    +0.000 A 
ATOM      9  N   UNL     1       4.669   3.238  16.658  0.00  0.00    +0.000 N 
ATOM     10  N   UNL     1       3.421   3.432  17.137  0.00  0.00    +0.000 NA
ATOM     11  C   UNL     1       3.440   4.710  17.547  0.00  0.00    +0.000 A 
ATOM     12  C   UNL     1       2.224   5.331  18.125  0.00  0.00    +0.000 C 
ATOM     13  C   UNL     1       4.703   5.324  17.339  0.00  0.00    +0.000 A 
ATOM     14  C   UNL     1       5.297   6.579  17.560  0.00  0.00    +0.000 A 
ATOM     15  H   UNL     1       4.922   2.335  16.276  0.00  0.00    +0.000 HD
ENDBRANCH   3   5
BRANCH   1  20
ATOM     16  N   UNL     1      10.100  13.588  18.980  0.00  0.00    +0.000 N 
ATOM     17  C   UNL     1       9.605  12.311  18.754  0.00  0.00    +0.000 A 
ATOM     18  C   UNL     1       8.684  12.032  17.735  0.00  0.00    +0.000 A 
ATOM     19  C   UNL     1       8.187  10.738  17.540  0.00  0.00    +0.000 A 
ATOM     20  C   UNL     1       8.646   9.718  18.358  0.00  0.00    +0.000 A 
ATOM     21  C   UNL     1       9.554  10.055  19.347  0.00  0.00    +0.000 A 
ATOM     22  N   UNL     1      10.024  11.312  19.558  0.00  0.00    +0.000 NA
BRANCH  16  23
ATOM     23  C   UNL     1      10.201  14.570  17.890  0.00  0.00    +0.000 C 
ATOM     24  C   UNL     1      10.437  15.985  18.423  0.00  0.00    +0.000 C 
ATOM     25  C   UNL     1      11.292  14.210  16.879  0.00  0.00    +0.000 C 
ENDBRANCH  16  23
BRANCH  16  27
ATOM     26  C   UNL     1       9.136  14.203  21.206  0.00  0.00    +0.000 C 
ATOM     27  C   UNL     1      10.388  13.951  20.374  0.00  0.00    +0.000 C 
ENDBRANCH  16  27
ENDBRANCH   1  20
TORSDOF 4
ENDMDL
MODEL 2
REMARK VINA RESULT:      -7.2      5.966      9.227
REMARK  Name = 
REMARK  8 active torsions:
REMARK  status: ('A' for Active; 'I' for Inactive)
REMARK    1  A    between atoms: C_1  and  C_2
REMARK    2  A    between atoms: C_2  and  N_3
REMARK    3  A    between atoms: N_3  and  C_23
REMARK    4  A    between atoms: C_7  and  C_8
REMARK    5  A    between atoms: N_10  and  C_11
REMARK    6  A    between atoms: C_17  and  C_18
REMARK    7  A    between atoms: C_23  and  C_24
REMARK    8  A    between atoms: C_23  and  C_25
REMARK                            x       y       z     vdW  Elec       q    Type
REMARK                         _______ _______ _______ _____ _____    ______ ____
ROOT
ATOM      1  C   UNL     1       1.901   7.390  20.150  0.00  0.00    +0.000 C 
ATOM      2  O   UNL     1       1.243   6.590  20.806  0.00  0.00    +0.000 OA
ATOM      3  N   UNL     1       1.753   8.766  20.184  0.00  0.00    +0.000 N 
ATOM      4  H   UNL     1       2.205   9.311  19.460  0.00  0.00    +0.000 HD
ENDROOT
BRANCH   3   5
ATOM      5  C   UNL     1       0.872   9.468  21.047  0.00  0.00    +0.000 A 
ATOM      6  C   UNL     1       0.832   9.293  22.440  0.00  0.00    +0.000 A 
ATOM      7  N   UNL     1       0.010   9.941  23.310  0.00  0.00    +0.000 NA
ATOM      8  C   UNL     1      -0.822  10.793  22.690  0.00  0.00    +0.000 A 
ATOM      9  N   UNL     1      -1.772  11.570  23.283  0.00  0.00    +0.000 N 
ATOM     10  N   UNL     1      -2.482  12.323  22.414  0.00  0.00    +0.000 NA
ATOM     11  C   UNL     1      -1.952  12.007  21.222  0.00  0.00    +0.000 A 
ATOM     12  C   UNL     1      -2.485  12.613  19.979  0.00  0.00    +0.000 C 
ATOM     13  C   UNL     1      -0.898  11.063  21.335  0.00  0.00    +0.000 A 
ATOM     14  C   UNL     1      -0.008  10.392  20.477  0.00  0.00    +0.000 A 
ATOM     15  H   UNL     1      -1.980  11.621  24.272  0.00  0.00    +0.000 HD
ENDBRANCH   3   5
BRANCH   1  20
ATOM     16  N   UNL     1       5.904   5.117  16.870  0.00  0.00    +0.000 N 
ATOM     17  C   UNL     1       4.900   5.705  17.627  0.00  0.00    +0.000 A 
ATOM     18  C   UNL     1       4.185   6.826  17.184  0.00  0.00    +0.000 A 
ATOM     19  C   UNL     1       3.189   7.411  17.975  0.00  0.00    +0.000 A 
ATOM     20  C   UNL     1       2.894   6.841  19.204  0.00  0.00    +0.000 A 
ATOM     21  C   UNL     1       3.634   5.735  19.587  0.00  0.00    +0.000 A 
ATOM     22  N   UNL     1       4.619   5.176  18.836  0.00  0.00    +0.000 NA
BRANCH  16  23
ATOM     23  C   UNL     1       5.898   5.197  15.402  0.00  0.00    +0.000 C 
ATOM     24  C   UNL     1       7.314   5.145  14.826  0.00  0.00    +0.000 C 
ATOM     25  C   UNL     1       5.040   4.102  14.762  0.00  0.00    +0.000 C 
ENDBRANCH  16  23
BRANCH  16  27
ATOM     26  C   UNL     1       7.759   5.536  18.497  0.00  0.00    +0.000 C 
ATOM     27  C   UNL     1       7.034   4.534  17.606  0.00  0.00    +0.000 C 
ENDBRANCH  16  27
ENDBRANCH   1  20
TORSDOF 4
ENDMDL
MODEL 3
REMARK VINA RESULT:      -7.0      0.759      1.866
REMARK  Name = 
REMARK  8 active torsions:
REMARK  status: ('A' for Active; 'I' for Inactive)
REMARK    1  A    between atoms: C_1  and  C_2
REMARK    2  A    between atoms: C_2  and  N_3
REMARK    3  A    between atoms: N_3  and  C_23
REMARK    4  A    between atoms: C_7  and  C_8
REMARK    5  A    between atoms: N_10  and  C_11
REMARK    6  A    between atoms: C_17  and  C_18
REMARK    7  A    between atoms: C_23  and  C_24
REMARK    8  A    between atoms: C_23  and  C_25
REMARK                            x       y       z     vdW  Elec       q    Type
REMARK                         _______ _______ _______ _____ _____    ______ ____
ROOT
ATOM      1  C   UNL     1       8.134   8.264  18.349  0.00  0.00    +0.000 C 
ATOM      2  O   UNL     1       8.637   7.354  19.000  0.00  0.00    +0.000 OA
ATOM      3  N   UNL     1       7.138   8.113  17.400  0.00  0.00    +0.000 N 
ATOM      4  H   UNL     1       6.942   8.895  16.788  0.00  0.00    +0.000 HD
ENDROOT
BRANCH   3   5
ATOM      5  C   UNL     1       6.488   6.890  17.092  0.00  0.00    +0.000 A 
ATOM      6  C   UNL     1       7.040   5.890  16.275  0.00  0.00    +0.000 A 
ATOM      7  N   UNL     1       6.461   4.702  15.952  0.00  0.00    +0.000 NA
ATOM      8  C   UNL     1       5.238   4.565  16.491  0.00  0.00    +0.000 A 
ATOM      9  N   UNL     1       4.401   3.501  16.338  0.00  0.00    +0.000 N 
ATOM     10  N   UNL     1       3.220   3.637  16.980  0.00  0.00    +0.000 NA
ATOM     11  C   UNL     1       3.321   4.840  17.566  0.00  0.00    +0.000 A 
ATOM     12  C   UNL     1       2.196   5.384  18.363  0.00  0.00    +0.000 C 
ATOM     13  C   UNL     1       4.570   5.463  17.307  0.00  0.00    +0.000 A 
ATOM     14  C   UNL     1       5.221   6.664  17.638  0.00  0.00    +0.000 A 
ATOM     15  H   UNL     1       4.584   2.661  15.803  0.00  0.00    +0.000 HD
ENDBRANCH   3   5
BRANCH   1  20
ATOM     16  N   UNL     1      10.142  13.536  18.707  0.00  0.00    +0.000 N 
ATOM     17  C   UNL     1       9.665  12.232  18.677  0.00  0.00    +0.000 A 
ATOM     18  C   UNL     1      10.020  11.281  19.642  0.00  0.00    +0.000 A 
ATOM     19  C   UNL     1       9.539   9.968  19.579  0.00  0.00    +0.000 A 
ATOM     20  C   UNL     1       8.671   9.625  18.554  0.00  0.00    +0.000 A 
ATOM     21  C   UNL     1       8.358  10.608  17.630  0.00  0.00    +0.000 A 
ATOM     22  N   UNL     1       8.839  11.878  17.671  0.00  0.00    +0.000 NA
BRANCH  16  23
ATOM     23  C   UNL     1      10.520  14.180  19.974  0.00  0.00    +0.000 C 
ATOM     24  C   UNL     1      11.625  15.219  19.773  0.00  0.00    +0.000 C 
ATOM     25  C   UNL     1       9.326  14.827  20.679  0.00  0.00    +0.000 C 
ENDBRANCH  16  23
BRANCH  16  27
ATOM     26  C   UNL     1      11.487  13.533  16.597  0.00  0.00    +0.000 C 
ATOM     27  C   UNL     1      10.376  14.187  17.411  0.00  0.00    +0.000 C 
ENDBRANCH  16  27
ENDBRANCH   1  20
TORSDOF 4
ENDMDL
MODEL 4
REMARK VINA RESULT:      -7.0      6.409      7.969
REMARK  Name = 
REMARK  8 active torsions:
REMARK  status: ('A' for Active; 'I' for Inactive)
REMARK    1  A    between atoms: C_1  and  C_2
REMARK    2  A    between atoms: C_2  and  N_3
REMARK    3  A    between atoms: N_3  and  C_23
REMARK    4  A    between atoms: C_7  and  C_8
REMARK    5  A    between atoms: N_10  and  C_11
REMARK    6  A    between atoms: C_17  and  C_18
REMARK    7  A    between atoms: C_23  and  C_24
REMARK    8  A    between atoms: C_23  and  C_25
REMARK                            x       y       z     vdW  Elec       q    Type
REMARK                         _______ _______ _______ _____ _____    ______ ____
ROOT
ATOM      1  C   UNL     1       1.740   8.225  19.427  0.00  0.00    +0.000 C 
ATOM      2  O   UNL     1       1.816   8.294  18.205  0.00  0.00    +0.000 OA
ATOM      3  N   UNL     1       2.141   7.145  20.194  0.00  0.00    +0.000 N 
ATOM      4  H   UNL     1       1.849   7.115  21.163  0.00  0.00    +0.000 HD
ENDROOT
BRANCH   3   5
ATOM      5  C   UNL     1       2.781   5.983  19.689  0.00  0.00    +0.000 A 
ATOM      6  C   UNL     1       4.141   5.920  19.349  0.00  0.00    +0.000 A 
ATOM      7  N   UNL     1       4.803   4.833  18.865  0.00  0.00    +0.000 NA
ATOM      8  C   UNL     1       3.995   3.771  18.709  0.00  0.00    +0.000 A 
ATOM      9  N   UNL     1       4.353   2.548  18.229  0.00  0.00    +0.000 N 
ATOM     10  N   UNL     1       3.331   1.667  18.161  0.00  0.00    +0.000 NA
ATOM     11  C   UNL     1       2.283   2.368  18.624  0.00  0.00    +0.000 A 
ATOM     12  C   UNL     1       0.937   1.753  18.687  0.00  0.00    +0.000 C 
ATOM     13  C   UNL     1       2.643   3.690  18.996  0.00  0.00    +0.000 A 
ATOM     14  C   UNL     1       2.010   4.829  19.523  0.00  0.00    +0.000 A 
ATOM     15  H   UNL     1       5.277   2.263  17.928  0.00  0.00    +0.000 HD
ENDBRANCH   3   5
BRANCH   1  20
ATOM     16  N   UNL     1      -0.474  12.835  21.836  0.00  0.00    +0.000 N 
ATOM     17  C   UNL     1       0.052  11.671  21.292  0.00  0.00    +0.000 A 
ATOM     18  C   UNL     1       0.296  10.527  22.063  0.00  0.00    +0.000 A 
ATOM     19  C   UNL     1       0.845   9.371  21.495  0.00  0.00    +0.000 A 
ATOM     20  C   UNL     1       1.117   9.362  20.136  0.00  0.00    +0.000 A 
ATOM     21  C   UNL     1       0.855  10.523  19.426  0.00  0.00    +0.000 A 
ATOM     22  N   UNL     1       0.346  11.656  19.976  0.00  0.00    +0.000 NA
BRANCH  16  23
ATOM     23  C   UNL     1      -1.344  12.798  23.020  0.00  0.00    +0.000 C 
ATOM     24  C   UNL     1      -1.359  14.141  23.753  0.00  0.00    +0.000 C 
ATOM     25  C   UNL     1      -2.776  12.379  22.680  0.00  0.00    +0.000 C 
ENDBRANCH  16  23
BRANCH  16  27
ATOM     26  C   UNL     1       1.439  14.429  21.581  0.00  0.00    +0.000 C 
ATOM     27  C   UNL     1      -0.015  14.104  21.255  0.00  0.00    +0.000 C 
ENDBRANCH  16  27
ENDBRANCH   1  20
TORSDOF 4
ENDMDL
MODEL 5
REMARK VINA RESULT:      -7.0      6.083      8.357
REMARK  Name = 
REMARK  8 active torsions:
REMARK  status: ('A' for Active; 'I' for Inactive)
REMARK    1  A    between atoms: C_1  and  C_2
REMARK    2  A    between atoms: C_2  and  N_3
REMARK    3  A    between atoms: N_3  and  C_23
REMARK    4  A    between atoms: C_7  and  C_8
REMARK    5  A    between atoms: N_10  and  C_11
REMARK    6  A    between atoms: C_17  and  C_18
REMARK    7  A    between atoms: C_23  and  C_24
REMARK    8  A    between atoms: C_23  and  C_25
REMARK                            x       y       z     vdW  Elec       q    Type
REMARK                         _______ _______ _______ _____ _____    ______ ____
ROOT
ATOM      1  C   UNL     1       1.765   8.685  18.358  0.00  0.00    +0.000 C 
ATOM      2  O   UNL     1       2.136   9.053  17.249  0.00  0.00    +0.000 OA
ATOM      3  N   UNL     1       2.049   7.456  18.930  0.00  0.00    +0.000 N 
ATOM      4  H   UNL     1       1.529   7.184  19.755  0.00  0.00    +0.000 HD
ENDROOT
BRANCH   3   5
ATOM      5  C   UNL     1       2.885   6.465  18.352  0.00  0.00    +0.000 A 
ATOM      6  C   UNL     1       2.454   5.171  18.019  0.00  0.00    +0.000 A 
ATOM      7  N   UNL     1       3.212   4.187  17.463  0.00  0.00    +0.000 NA
ATOM      8  C   UNL     1       4.485   4.570  17.268  0.00  0.00    +0.000 A 
ATOM      9  N   UNL     1       5.487   3.808  16.748  0.00  0.00    +0.000 N 
ATOM     10  N   UNL     1       6.678   4.443  16.682  0.00  0.00    +0.000 NA
ATOM     11  C   UNL     1       6.410   5.661  17.179  0.00  0.00    +0.000 A 
ATOM     12  C   UNL     1       7.485   6.674  17.305  0.00  0.00    +0.000 C 
ATOM     13  C   UNL     1       5.047   5.803  17.550  0.00  0.00    +0.000 A 
ATOM     14  C   UNL     1       4.218   6.798  18.096  0.00  0.00    +0.000 A 
ATOM     15  H   UNL     1       5.415   2.850  16.429  0.00  0.00    +0.000 HD
ENDBRANCH   3   5
BRANCH   1  20
ATOM     16  N   UNL     1      -1.577  12.442  20.940  0.00  0.00    +0.000 N 
ATOM     17  C   UNL     1      -0.748  11.492  20.359  0.00  0.00    +0.000 A 
ATOM     18  C   UNL     1       0.105  10.678  21.116  0.00  0.00    +0.000 A 
ATOM     19  C   UNL     1       0.945   9.739  20.504  0.00  0.00    +0.000 A 
ATOM     20  C   UNL     1       0.897   9.602  19.125  0.00  0.00    +0.000 A 
ATOM     21  C   UNL     1       0.035  10.434  18.432  0.00  0.00    +0.000 A 
ATOM     22  N   UNL     1      -0.765  11.364  19.016  0.00  0.00    +0.000 NA
BRANCH  16  23
ATOM     23  C   UNL     1      -2.077  12.281  22.313  0.00  0.00    +0.000 C 
ATOM     24  C   UNL     1      -1.333  13.186  23.296  0.00  0.00    +0.000 C 
ATOM     25  C   UNL     1      -3.583  12.531  22.419  0.00  0.00    +0.000 C 
ENDBRANCH  16  23
BRANCH  16  27
ATOM     26  C   UNL     1      -0.614  14.605  20.128  0.00  0.00    +0.000 C 
ATOM     27  C   UNL     1      -1.818  13.670  20.171  0.00  0.00    +0.000 C 
ENDBRANCH  16  27
ENDBRANCH   1  20
TORSDOF 4
ENDMDL
MODEL 6
REMARK VINA RESULT:      -6.9      6.163     10.780
REMARK  Name = 
REMARK  8 active torsions:
REMARK  status: ('A' for Active; 'I' for Inactive)
REMARK    1  A    between atoms: C_1  and  C_2
REMARK    2  A    between atoms: C_2  and  N_3
REMARK    3  A    between atoms: N_3  and  C_23
REMARK    4  A    between atoms: C_7  and  C_8
REMARK    5  A    between atoms: N_10  and  C_11
REMARK    6  A    between atoms: C_17  and  C_18
REMARK    7  A    between atoms: C_23  and  C_24
REMARK    8  A    between atoms: C_23  and  C_25
REMARK                            x       y       z     vdW  Elec       q    Type
REMARK                         _______ _______ _______ _____ _____    ______ ____
ROOT
ATOM      1  C   UNL     1       1.668   9.137  18.429  0.00  0.00    +0.000 C 
ATOM      2  O   UNL     1       2.096   9.561  17.360  0.00  0.00    +0.000 OA
ATOM      3  N   UNL     1       0.948   9.875  19.352  0.00  0.00    +0.000 N 
ATOM      4  H   UNL     1       0.822   9.486  20.278  0.00  0.00    +0.000 HD
ENDROOT
BRANCH   3   5
ATOM      5  C   UNL     1       0.521  11.215  19.164  0.00  0.00    +0.000 A 
ATOM      6  C   UNL     1      -0.811  11.589  18.922  0.00  0.00    +0.000 A 
ATOM      7  N   UNL     1      -1.272  12.856  18.738  0.00  0.00    +0.000 NA
ATOM      8  C   UNL     1      -0.289  13.771  18.789  0.00  0.00    +0.000 A 
ATOM      9  N   UNL     1      -0.428  15.116  18.625  0.00  0.00    +0.000 N 
ATOM     10  N   UNL     1       0.735  15.800  18.709  0.00  0.00    +0.000 NA
ATOM     11  C   UNL     1       1.645  14.840  18.940  0.00  0.00    +0.000 A 
ATOM     12  C   UNL     1       3.080  15.183  19.071  0.00  0.00    +0.000 C 
ATOM     13  C   UNL     1       1.058  13.549  19.015  0.00  0.00    +0.000 A 
ATOM     14  C   UNL     1       1.483  12.227  19.229  0.00  0.00    +0.000 A 
ATOM     15  H   UNL     1      -1.289  15.618  18.448  0.00  0.00    +0.000 HD
ENDBRANCH   3   5
BRANCH   1  20
ATOM     16  N   UNL     1       2.786   3.683  19.411  0.00  0.00    +0.000 N 
ATOM     17  C   UNL     1       2.523   5.034  19.228  0.00  0.00    +0.000 A 
ATOM     18  C   UNL     1       2.280   5.903  20.299  0.00  0.00    +0.000 A 
ATOM     19  C   UNL     1       2.000   7.258  20.087  0.00  0.00    +0.000 A 
ATOM     20  C   UNL     1       1.996   7.742  18.788  0.00  0.00    +0.000 A 
ATOM     21  C   UNL     1       2.242   6.835  17.771  0.00  0.00    +0.000 A 
ATOM     22  N   UNL     1       2.492   5.514  17.967  0.00  0.00    +0.000 NA
BRANCH  16  23
ATOM     23  C   UNL     1       3.409   3.188  20.646  0.00  0.00    +0.000 C 
ATOM     24  C   UNL     1       2.366   2.685  21.645  0.00  0.00    +0.000 C 
ATOM     25  C   UNL     1       4.442   2.090  20.380  0.00  0.00    +0.000 C 
ENDBRANCH  16  23
BRANCH  16  27
ATOM     26  C   UNL     1       0.846   2.331  18.591  0.00  0.00    +0.000 C 
ATOM     27  C   UNL     1       2.291   2.766  18.375  0.00  0.00    +0.000 C 
ENDBRANCH  16  27
ENDBRANCH   1  20
TORSDOF 4
ENDMDL
MODEL 7
REMARK VINA RESULT:      -6.9      6.392      7.938
REMARK  Name = 
REMARK  8 active torsions:
REMARK  status: ('A' for Active; 'I' for Inactive)
REMARK    1  A    between atoms: C_1  and  C_2
REMARK    2  A    between atoms: C_2  and  N_3
REMARK    3  A    between atoms: N_3  and  C_23
REMARK    4  A    between atoms: C_7  and  C_8
REMARK    5  A    between atoms: N_10  and  C_11
REMARK    6  A    between atoms: C_17  and  C_18
REMARK    7  A    between atoms: C_23  and  C_24
REMARK    8  A    between atoms: C_23  and  C_25
REMARK                            x       y       z     vdW  Elec       q    Type
REMARK                         _______ _______ _______ _____ _____    ______ ____
ROOT
ATOM      1  C   UNL     1       1.575   8.022  20.105  0.00  0.00    +0.000 C 
ATOM      2  O   UNL     1       1.606   7.224  21.036  0.00  0.00    +0.000 OA
ATOM      3  N   UNL     1       2.154   7.826  18.864  0.00  0.00    +0.000 N 
ATOM      4  H   UNL     1       2.240   8.624  18.247  0.00  0.00    +0.000 HD
ENDROOT
BRANCH   3   5
ATOM      5  C   UNL     1       2.802   6.633  18.449  0.00  0.00    +0.000 A 
ATOM      6  C   UNL     1       4.053   6.599  17.813  0.00  0.00    +0.000 A 
ATOM      7  N   UNL     1       4.718   5.486  17.399  0.00  0.00    +0.000 NA
ATOM      8  C   UNL     1       4.028   4.359  17.642  0.00  0.00    +0.000 A 
ATOM      9  N   UNL     1       4.416   3.091  17.329  0.00  0.00    +0.000 N 
ATOM     10  N   UNL     1       3.517   2.143  17.673  0.00  0.00    +0.000 NA
ATOM     11  C   UNL     1       2.520   2.848  18.232  0.00  0.00    +0.000 A 
ATOM     12  C   UNL     1       1.303   2.164  18.728  0.00  0.00    +0.000 C 
ATOM     13  C   UNL     1       2.792   4.241  18.252  0.00  0.00    +0.000 A 
ATOM     14  C   UNL     1       2.157   5.417  18.691  0.00  0.00    +0.000 A 
ATOM     15  H   UNL     1       5.279   2.817  16.876  0.00  0.00    +0.000 HD
ENDBRANCH   3   5
BRANCH   1  20
ATOM     16  N   UNL     1      -0.951  12.899  21.443  0.00  0.00    +0.000 N 
ATOM     17  C   UNL     1      -0.339  11.714  21.056  0.00  0.00    +0.000 A 
ATOM     18  C   UNL     1      -0.487  11.179  19.770  0.00  0.00    +0.000 A 
ATOM     19  C   UNL     1       0.126   9.973  19.410  0.00  0.00    +0.000 A 
ATOM     20  C   UNL     1       0.916   9.322  20.345  0.00  0.00    +0.000 A 
ATOM     21  C   UNL     1       1.023   9.899  21.599  0.00  0.00    +0.000 A 
ATOM     22  N   UNL     1       0.413  11.057  21.964  0.00  0.00    +0.000 NA
BRANCH  16  23
ATOM     23  C   UNL     1      -1.264  13.950  20.464  0.00  0.00    +0.000 C 
ATOM     24  C   UNL     1      -2.377  14.874  20.963  0.00  0.00    +0.000 C 
ATOM     25  C   UNL     1      -0.035  14.780  20.085  0.00  0.00    +0.000 C 
ENDBRANCH  16  23
BRANCH  16  27
ATOM     26  C   UNL     1      -2.574  12.095  23.170  0.00  0.00    +0.000 C 
ATOM     27  C   UNL     1      -1.386  12.994  22.843  0.00  0.00    +0.000 C 
ENDBRANCH  16  27
ENDBRANCH   1  20
TORSDOF 4
ENDMDL
MODEL 8
REMARK VINA RESULT:      -6.9      6.662      7.778
REMARK  Name = 
REMARK  8 active torsions:
REMARK  status: ('A' for Active; 'I' for Inactive)
REMARK    1  A    between atoms: C_1  and  C_2
REMARK    2  A    between atoms: C_2  and  N_3
REMARK    3  A    between atoms: N_3  and  C_23
REMARK    4  A    between atoms: C_7  and  C_8
REMARK    5  A    between atoms: N_10  and  C_11
REMARK    6  A    between atoms: C_17  and  C_18
REMARK    7  A    between atoms: C_23  and  C_24
REMARK    8  A    between atoms: C_23  and  C_25
REMARK                            x       y       z     vdW  Elec       q    Type
REMARK                         _______ _______ _______ _____ _____    ______ ____
ROOT
ATOM      1  C   UNL     1       1.818   8.371  19.125  0.00  0.00    +0.000 C 
ATOM      2  O   UNL     1       1.785   8.287  17.901  0.00  0.00    +0.000 OA
ATOM      3  N   UNL     1       2.266   7.382  19.983  0.00  0.00    +0.000 N 
ATOM      4  H   UNL     1       2.062   7.479  20.969  0.00  0.00    +0.000 HD
ENDROOT
BRANCH   3   5
ATOM      5  C   UNL     1       2.835   6.147  19.573  0.00  0.00    +0.000 A 
ATOM      6  C   UNL     1       4.197   5.967  19.285  0.00  0.00    +0.000 A 
ATOM      7  N   UNL     1       4.792   4.808  18.892  0.00  0.00    +0.000 NA
ATOM      8  C   UNL     1       3.915   3.797  18.775  0.00  0.00    +0.000 A 
ATOM      9  N   UNL     1       4.198   2.523  18.385  0.00  0.00    +0.000 N 
ATOM     10  N   UNL     1       3.117   1.713  18.338  0.00  0.00    +0.000 NA
ATOM     11  C   UNL     1       2.110   2.514  18.720  0.00  0.00    +0.000 A 
ATOM     12  C   UNL     1       0.721   2.000  18.776  0.00  0.00    +0.000 C 
ATOM     13  C   UNL     1       2.553   3.829  19.021  0.00  0.00    +0.000 A 
ATOM     14  C   UNL     1       1.988   5.042  19.454  0.00  0.00    +0.000 A 
ATOM     15  H   UNL     1       5.107   2.155  18.134  0.00  0.00    +0.000 HD
ENDBRANCH   3   5
BRANCH   1  20
ATOM     16  N   UNL     1      -0.355  12.851  21.800  0.00  0.00    +0.000 N 
ATOM     17  C   UNL     1       0.188  11.786  21.094  0.00  0.00    +0.000 A 
ATOM     18  C   UNL     1       0.329  11.803  19.701  0.00  0.00    +0.000 A 
ATOM     19  C   UNL     1       0.863  10.708  19.011  0.00  0.00    +0.000 A 
ATOM     20  C   UNL     1       1.284   9.605  19.737  0.00  0.00    +0.000 A 
ATOM     21  C   UNL     1       1.118   9.646  21.111  0.00  0.00    +0.000 A 
ATOM     22  N   UNL     1       0.579  10.695  21.785  0.00  0.00    +0.000 NA
BRANCH  16  23
ATOM     23  C   UNL     1      -0.260  14.228  21.294  0.00  0.00    +0.000 C 
ATOM     24  C   UNL     1      -1.586  14.705  20.699  0.00  0.00    +0.000 C 
ATOM     25  C   UNL     1       0.209  15.214  22.367  0.00  0.00    +0.000 C 
ENDBRANCH  16  23
BRANCH  16  27
ATOM     26  C   UNL     1      -2.571  12.104  22.690  0.00  0.00    +0.000 C 
ATOM     27  C   UNL     1      -1.138  12.522  22.998  0.00  0.00    +0.000 C 
ENDBRANCH  16  27
ENDBRANCH   1  20
TORSDOF 4
ENDMDL
MODEL 9
REMARK VINA RESULT:      -6.9      6.068      8.175
REMARK  Name = 
REMARK  8 active torsions:
REMARK  status: ('A' for Active; 'I' for Inactive)
REMARK    1  A    between atoms: C_1  and  C_2
REMARK    2  A    between atoms: C_2  and  N_3
REMARK    3  A    between atoms: N_3  and  C_23
REMARK    4  A    between atoms: C_7  and  C_8
REMARK    5  A    between atoms: N_10  and  C_11
REMARK    6  A    between atoms: C_17  and  C_18
REMARK    7  A    between atoms: C_23  and  C_24
REMARK    8  A    between atoms: C_23  and  C_25
REMARK                            x       y       z     vdW  Elec       q    Type
REMARK                         _______ _______ _______ _____ _____    ______ ____
ROOT
ATOM      1  C   UNL     1       1.632   7.548  20.282  0.00  0.00    +0.000 C 
ATOM      2  O   UNL     1       1.599   6.560  21.008  0.00  0.00    +0.000 OA
ATOM      3  N   UNL     1       2.256   7.614  19.048  0.00  0.00    +0.000 N 
ATOM      4  H   UNL     1       2.392   8.527  18.632  0.00  0.00    +0.000 HD
ENDROOT
BRANCH   3   5
ATOM      5  C   UNL     1       2.885   6.521  18.397  0.00  0.00    +0.000 A 
ATOM      6  C   UNL     1       2.256   5.294  18.135  0.00  0.00    +0.000 A 
ATOM      7  N   UNL     1       2.811   4.218  17.514  0.00  0.00    +0.000 NA
ATOM      8  C   UNL     1       4.092   4.432  17.170  0.00  0.00    +0.000 A 
ATOM      9  N   UNL     1       4.922   3.545  16.553  0.00  0.00    +0.000 N 
ATOM     10  N   UNL     1       6.170   4.019  16.342  0.00  0.00    +0.000 NA
ATOM     11  C   UNL     1       6.120   5.262  16.846  0.00  0.00    +0.000 A 
ATOM     12  C   UNL     1       7.324   6.127  16.833  0.00  0.00    +0.000 C 
ATOM     13  C   UNL     1       4.838   5.581  17.367  0.00  0.00    +0.000 A 
ATOM     14  C   UNL     1       4.212   6.677  17.986  0.00  0.00    +0.000 A 
ATOM     15  H   UNL     1       4.691   2.604  16.260  0.00  0.00    +0.000 HD
ENDBRANCH   3   5
BRANCH   1  20
ATOM     16  N   UNL     1      -0.571  12.496  21.901  0.00  0.00    +0.000 N 
ATOM     17  C   UNL     1      -0.053  11.255  21.553  0.00  0.00    +0.000 A 
ATOM     18  C   UNL     1       0.070  10.209  22.476  0.00  0.00    +0.000 A 
ATOM     19  C   UNL     1       0.613   8.972  22.104  0.00  0.00    +0.000 A 
ATOM     20  C   UNL     1       1.002   8.785  20.787  0.00  0.00    +0.000 A 
ATOM     21  C   UNL     1       0.857   9.857  19.922  0.00  0.00    +0.000 A 
ATOM     22  N   UNL     1       0.354  11.067  20.281  0.00  0.00    +0.000 NA
BRANCH  16  23
ATOM     23  C   UNL     1      -1.542  12.637  22.996  0.00  0.00    +0.000 C 
ATOM     24  C   UNL     1      -1.418  13.994  23.691  0.00  0.00    +0.000 C 
ATOM     25  C   UNL     1      -2.984  12.426  22.528  0.00  0.00    +0.000 C 
ENDBRANCH  16  23
BRANCH  16  27
ATOM     26  C   UNL     1      -0.901  14.214  20.111  0.00  0.00    +0.000 C 
ATOM     27  C   UNL     1      -0.005  13.666  21.217  0.00  0.00    +0.000 C 
ENDBRANCH  16  27
ENDBRANCH   1  20
TORSDOF 4
ENDMDL
