MODEL 1
REMARK VINA RESULT:      -8.8      0.000      0.000
REMARK  Name = 
REMARK  3 active torsions:
REMARK  status: ('A' for Active; 'I' for Inactive)
REMARK    1  A    between atoms: C_2  and  C_3
REMARK    2  A    between atoms: C_6  and  C_7
REMARK    3  A    between atoms: C_7  and  N_8
REMARK                            x       y       z     vdW  Elec       q    Type
REMARK                         _______ _______ _______ _____ _____    ______ ____
ROOT
ATOM      1  N   UNL     1       3.180   5.473  17.744  0.00  0.00    +0.000 N 
ATOM      2  C   UNL     1       4.269   5.357  16.882  0.00  0.00    +0.000 A 
ATOM      3  C   UNL     1       5.086   6.327  16.278  0.00  0.00    +0.000 A 
ATOM      4  C   UNL     1       6.188   5.878  15.537  0.00  0.00    +0.000 A 
ATOM      5  C   UNL     1       6.482   4.521  15.437  0.00  0.00    +0.000 A 
ATOM      6  C   UNL     1       5.686   3.569  16.086  0.00  0.00    +0.000 A 
ATOM      7  C   UNL     1       4.552   3.989  16.810  0.00  0.00    +0.000 A 
ATOM      8  C   UNL     1       3.544   3.311  17.562  0.00  0.00    +0.000 A 
ATOM      9  C   UNL     1       3.358   2.004  18.048  0.00  0.00    +0.000 A 
ATOM     10  C   UNL     1       2.144   1.677  18.663  0.00  0.00    +0.000 A 
ATOM     11  C   UNL     1       1.088   2.593  18.688  0.00  0.00    +0.000 A 
ATOM     12  C   UNL     1       1.256   3.893  18.234  0.00  0.00    +0.000 A 
ATOM     13  C   UNL     1       2.533   4.242  17.787  0.00  0.00    +0.000 A 
ENDROOT
BRANCH   1  14
ATOM     14  C   UNL     1       3.286   6.248  18.994  0.00  0.00    +0.000 C 
BRANCH  14  18
ATOM     15  C   UNL     1       0.696   9.693  19.124  0.00  0.00    +0.000 A 
ATOM     16  C   UNL     1       1.354   9.355  17.938  0.00  0.00    +0.000 A 
ATOM     17  C   UNL     1       2.226   8.263  17.899  0.00  0.00    +0.000 A 
ATOM     18  C   UNL     1       2.478   7.509  19.053  0.00  0.00    +0.000 A 
ATOM     19  C   UNL     1       1.842   7.869  20.246  0.00  0.00    +0.000 A 
ATOM     20  C   UNL     1       0.951   8.944  20.277  0.00  0.00    +0.000 A 
BRANCH  15  22
ATOM     21 BR   UNL     1      -1.713  10.458  17.872  0.00  0.00    +0.000 Br
ATOM     22  C   UNL     1      -0.295  10.817  19.151  0.00  0.00    +0.000 C 
ENDBRANCH  15  22
ENDBRANCH  14  18
ENDBRANCH   1  14
TORSDOF 3
ENDMDL
MODEL 2
REMARK VINA RESULT:      -8.7      0.207      1.048
REMARK  Name = 
REMARK  3 active torsions:
REMARK  status: ('A' for Active; 'I' for Inactive)
REMARK    1  A    between atoms: C_2  and  C_3
REMARK    2  A    between atoms: C_6  and  C_7
REMARK    3  A    between atoms: C_7  and  N_8
REMARK                            x       y       z     vdW  Elec       q    Type
REMARK                         _______ _______ _______ _____ _____    ______ ____
ROOT
ATOM      1  N   UNL     1       3.262   5.482  17.659  0.00  0.00    +0.000 N 
ATOM      2  C   UNL     1       4.359   5.343  16.811  0.00  0.00    +0.000 A 
ATOM      3  C   UNL     1       5.181   6.297  16.189  0.00  0.00    +0.000 A 
ATOM      4  C   UNL     1       6.290   5.829  15.470  0.00  0.00    +0.000 A 
ATOM      5  C   UNL     1       6.585   4.469  15.409  0.00  0.00    +0.000 A 
ATOM      6  C   UNL     1       5.783   3.534  16.074  0.00  0.00    +0.000 A 
ATOM      7  C   UNL     1       4.642   3.974  16.777  0.00  0.00    +0.000 A 
ATOM      8  C   UNL     1       3.627   3.315  17.537  0.00  0.00    +0.000 A 
ATOM      9  C   UNL     1       3.437   2.022  18.055  0.00  0.00    +0.000 A 
ATOM     10  C   UNL     1       2.216   1.710  18.667  0.00  0.00    +0.000 A 
ATOM     11  C   UNL     1       1.161   2.627  18.658  0.00  0.00    +0.000 A 
ATOM     12  C   UNL     1       1.333   3.914  18.172  0.00  0.00    +0.000 A 
ATOM     13  C   UNL     1       2.614   4.252  17.728  0.00  0.00    +0.000 A 
ENDROOT
BRANCH   1  14
ATOM     14  C   UNL     1       3.357   6.288  18.889  0.00  0.00    +0.000 C 
BRANCH  14  18
ATOM     15  C   UNL     1       0.833   9.766  19.250  0.00  0.00    +0.000 A 
ATOM     16  C   UNL     1       1.044   8.935  20.354  0.00  0.00    +0.000 A 
ATOM     17  C   UNL     1       1.828   7.785  20.234  0.00  0.00    +0.000 A 
ATOM     18  C   UNL     1       2.390   7.429  19.000  0.00  0.00    +0.000 A 
ATOM     19  C   UNL     1       2.151   8.245  17.890  0.00  0.00    +0.000 A 
ATOM     20  C   UNL     1       1.389   9.409  18.018  0.00  0.00    +0.000 A 
BRANCH  15  22
ATOM     21 BR   UNL     1      -1.584  10.911  18.353  0.00  0.00    +0.000 Br
ATOM     22  C   UNL     1       0.053  11.039  19.392  0.00  0.00    +0.000 C 
ENDBRANCH  15  22
ENDBRANCH  14  18
ENDBRANCH   1  14
TORSDOF 3
ENDMDL
MODEL 3
REMARK VINA RESULT:      -8.4      1.147      1.547
REMARK  Name = 
REMARK  3 active torsions:
REMARK  status: ('A' for Active; 'I' for Inactive)
REMARK    1  A    between atoms: C_2  and  C_3
REMARK    2  A    between atoms: C_6  and  C_7
REMARK    3  A    between atoms: C_7  and  N_8
REMARK                            x       y       z     vdW  Elec       q    Type
REMARK                         _______ _______ _______ _____ _____    ______ ____
ROOT
ATOM      1  N   UNL     1       3.175   5.525  17.868  0.00  0.00    +0.000 N 
ATOM      2  C   UNL     1       4.207   5.437  16.936  0.00  0.00    +0.000 A 
ATOM      3  C   UNL     1       4.992   6.426  16.319  0.00  0.00    +0.000 A 
ATOM      4  C   UNL     1       6.042   6.001  15.494  0.00  0.00    +0.000 A 
ATOM      5  C   UNL     1       6.319   4.647  15.323  0.00  0.00    +0.000 A 
ATOM      6  C   UNL     1       5.558   3.674  15.983  0.00  0.00    +0.000 A 
ATOM      7  C   UNL     1       4.474   4.072  16.792  0.00  0.00    +0.000 A 
ATOM      8  C   UNL     1       3.511   3.369  17.580  0.00  0.00    +0.000 A 
ATOM      9  C   UNL     1       3.346   2.046  18.025  0.00  0.00    +0.000 A 
ATOM     10  C   UNL     1       2.169   1.700  18.702  0.00  0.00    +0.000 A 
ATOM     11  C   UNL     1       1.124   2.621  18.828  0.00  0.00    +0.000 A 
ATOM     12  C   UNL     1       1.273   3.936  18.415  0.00  0.00    +0.000 A 
ATOM     13  C   UNL     1       2.522   4.296  17.904  0.00  0.00    +0.000 A 
ENDROOT
BRANCH   1  14
ATOM     14  C   UNL     1       3.365   6.249  19.138  0.00  0.00    +0.000 C 
BRANCH  14  18
ATOM     15  C   UNL     1       0.617   9.402  20.190  0.00  0.00    +0.000 A 
ATOM     16  C   UNL     1       0.819   8.327  21.060  0.00  0.00    +0.000 A 
ATOM     17  C   UNL     1       1.676   7.282  20.708  0.00  0.00    +0.000 A 
ATOM     18  C   UNL     1       2.326   7.278  19.466  0.00  0.00    +0.000 A 
ATOM     19  C   UNL     1       2.099   8.340  18.583  0.00  0.00    +0.000 A 
ATOM     20  C   UNL     1       1.261   9.397  18.948  0.00  0.00    +0.000 A 
BRANCH  15  22
ATOM     21 BR   UNL     1      -0.425  10.584  22.529  0.00  0.00    +0.000 Br
ATOM     22  C   UNL     1      -0.245  10.560  20.594  0.00  0.00    +0.000 C 
ENDBRANCH  15  22
ENDBRANCH  14  18
ENDBRANCH   1  14
TORSDOF 3
ENDMDL
MODEL 4
REMARK VINA RESULT:      -8.3      1.508      3.710
REMARK  Name = 
REMARK  3 active torsions:
REMARK  status: ('A' for Active; 'I' for Inactive)
REMARK    1  A    between atoms: C_2  and  C_3
REMARK    2  A    between atoms: C_6  and  C_7
REMARK    3  A    between atoms: C_7  and  N_8
REMARK                            x       y       z     vdW  Elec       q    Type
REMARK                         _______ _______ _______ _____ _____    ______ ____
ROOT
ATOM      1  N   UNL     1       3.637   5.838  18.256  0.00  0.00    +0.000 N 
ATOM      2  C   UNL     1       2.945   4.642  18.436  0.00  0.00    +0.000 A 
ATOM      3  C   UNL     1       1.717   4.360  19.057  0.00  0.00    +0.000 A 
ATOM      4  C   UNL     1       1.233   3.047  18.975  0.00  0.00    +0.000 A 
ATOM      5  C   UNL     1       1.929   2.068  18.270  0.00  0.00    +0.000 A 
ATOM      6  C   UNL     1       3.128   2.376  17.615  0.00  0.00    +0.000 A 
ATOM      7  C   UNL     1       3.655   3.680  17.710  0.00  0.00    +0.000 A 
ATOM      8  C   UNL     1       4.823   4.321  17.193  0.00  0.00    +0.000 A 
ATOM      9  C   UNL     1       5.814   3.998  16.249  0.00  0.00    +0.000 A 
ATOM     10  C   UNL     1       6.907   4.860  16.092  0.00  0.00    +0.000 A 
ATOM     11  C   UNL     1       7.074   5.958  16.942  0.00  0.00    +0.000 A 
ATOM     12  C   UNL     1       6.100   6.306  17.865  0.00  0.00    +0.000 A 
ATOM     13  C   UNL     1       4.939   5.529  17.876  0.00  0.00    +0.000 A 
ENDROOT
BRANCH   1  14
ATOM     14  C   UNL     1       2.984   6.999  17.625  0.00  0.00    +0.000 C 
BRANCH  14  18
ATOM     15  C   UNL     1       0.711   9.541  20.264  0.00  0.00    +0.000 A 
ATOM     16  C   UNL     1       0.890   9.901  18.926  0.00  0.00    +0.000 A 
ATOM     17  C   UNL     1       1.659   9.103  18.075  0.00  0.00    +0.000 A 
ATOM     18  C   UNL     1       2.287   7.945  18.555  0.00  0.00    +0.000 A 
ATOM     19  C   UNL     1       2.132   7.604  19.903  0.00  0.00    +0.000 A 
ATOM     20  C   UNL     1       1.341   8.389  20.746  0.00  0.00    +0.000 A 
BRANCH  15  22
ATOM     21 BR   UNL     1      -0.174   9.578  22.943  0.00  0.00    +0.000 Br
ATOM     22  C   UNL     1      -0.172  10.355  21.161  0.00  0.00    +0.000 C 
ENDBRANCH  15  22
ENDBRANCH  14  18
ENDBRANCH   1  14
TORSDOF 3
ENDMDL
MODEL 5
REMARK VINA RESULT:      -8.2      2.767      6.471
REMARK  Name = 
REMARK  3 active torsions:
REMARK  status: ('A' for Active; 'I' for Inactive)
REMARK    1  A    between atoms: C_2  and  C_3
REMARK    2  A    between atoms: C_6  and  C_7
REMARK    3  A    between atoms: C_7  and  N_8
REMARK                            x       y       z     vdW  Elec       q    Type
REMARK                         _______ _______ _______ _____ _____    ______ ____
ROOT
ATOM      1  N   UNL     1       3.128   5.569  18.266  0.00  0.00    +0.000 N 
ATOM      2  C   UNL     1       2.629   4.441  18.915  0.00  0.00    +0.000 A 
ATOM      3  C   UNL     1       2.873   3.072  18.723  0.00  0.00    +0.000 A 
ATOM      4  C   UNL     1       2.289   2.174  19.627  0.00  0.00    +0.000 A 
ATOM      5  C   UNL     1       1.525   2.629  20.699  0.00  0.00    +0.000 A 
ATOM      6  C   UNL     1       1.331   4.000  20.905  0.00  0.00    +0.000 A 
ATOM      7  C   UNL     1       1.878   4.924  19.992  0.00  0.00    +0.000 A 
ATOM      8  C   UNL     1       1.869   6.350  19.893  0.00  0.00    +0.000 A 
ATOM      9  C   UNL     1       1.490   7.414  20.729  0.00  0.00    +0.000 A 
ATOM     10  C   UNL     1       1.517   8.719  20.220  0.00  0.00    +0.000 A 
ATOM     11  C   UNL     1       1.799   8.950  18.870  0.00  0.00    +0.000 A 
ATOM     12  C   UNL     1       2.196   7.918  18.033  0.00  0.00    +0.000 A 
ATOM     13  C   UNL     1       2.330   6.654  18.615  0.00  0.00    +0.000 A 
ENDROOT
BRANCH   1  14
ATOM     14  C   UNL     1       4.581   5.786  18.141  0.00  0.00    +0.000 C 
BRANCH  14  18
ATOM     15  C   UNL     1       6.077   4.371  14.352  0.00  0.00    +0.000 A 
ATOM     16  C   UNL     1       6.099   3.534  15.472  0.00  0.00    +0.000 A 
ATOM     17  C   UNL     1       5.654   4.000  16.712  0.00  0.00    +0.000 A 
ATOM     18  C   UNL     1       5.205   5.319  16.861  0.00  0.00    +0.000 A 
ATOM     19  C   UNL     1       5.213   6.164  15.745  0.00  0.00    +0.000 A 
ATOM     20  C   UNL     1       5.634   5.689  14.501  0.00  0.00    +0.000 A 
BRANCH  15  22
ATOM     21 BR   UNL     1       4.902   3.317  12.014  0.00  0.00    +0.000 Br
ATOM     22  C   UNL     1       6.485   3.853  13.006  0.00  0.00    +0.000 C 
ENDBRANCH  15  22
ENDBRANCH  14  18
ENDBRANCH   1  14
TORSDOF 3
ENDMDL
MODEL 6
REMARK VINA RESULT:      -8.2      1.529      3.820
REMARK  Name = 
REMARK  3 active torsions:
REMARK  status: ('A' for Active; 'I' for Inactive)
REMARK    1  A    between atoms: C_2  and  C_3
REMARK    2  A    between atoms: C_6  and  C_7
REMARK    3  A    between atoms: C_7  and  N_8
REMARK                            x       y       z     vdW  Elec       q    Type
REMARK                         _______ _______ _______ _____ _____    ______ ____
ROOT
ATOM      1  N   UNL     1       3.721   5.866  18.298  0.00  0.00    +0.000 N 
ATOM      2  C   UNL     1       2.971   4.700  18.439  0.00  0.00    +0.000 A 
ATOM      3  C   UNL     1       1.726   4.461  19.043  0.00  0.00    +0.000 A 
ATOM      4  C   UNL     1       1.179   3.177  18.920  0.00  0.00    +0.000 A 
ATOM      5  C   UNL     1       1.833   2.185  18.192  0.00  0.00    +0.000 A 
ATOM      6  C   UNL     1       3.051   2.452  17.556  0.00  0.00    +0.000 A 
ATOM      7  C   UNL     1       3.640   3.726  17.691  0.00  0.00    +0.000 A 
ATOM      8  C   UNL     1       4.842   4.323  17.201  0.00  0.00    +0.000 A 
ATOM      9  C   UNL     1       5.824   3.979  16.256  0.00  0.00    +0.000 A 
ATOM     10  C   UNL     1       6.959   4.791  16.132  0.00  0.00    +0.000 A 
ATOM     11  C   UNL     1       7.172   5.855  17.013  0.00  0.00    +0.000 A 
ATOM     12  C   UNL     1       6.208   6.224  17.938  0.00  0.00    +0.000 A 
ATOM     13  C   UNL     1       5.011   5.504  17.919  0.00  0.00    +0.000 A 
ENDROOT
BRANCH   1  14
ATOM     14  C   UNL     1       3.132   7.074  17.695  0.00  0.00    +0.000 C 
BRANCH  14  18
ATOM     15  C   UNL     1       0.746   9.568  20.280  0.00  0.00    +0.000 A 
ATOM     16  C   UNL     1       1.372   8.428  20.789  0.00  0.00    +0.000 A 
ATOM     17  C   UNL     1       2.113   7.593  19.949  0.00  0.00    +0.000 A 
ATOM     18  C   UNL     1       2.217   7.868  18.578  0.00  0.00    +0.000 A 
ATOM     19  C   UNL     1       1.563   8.994  18.066  0.00  0.00    +0.000 A 
ATOM     20  C   UNL     1       0.844   9.842  18.913  0.00  0.00    +0.000 A 
BRANCH  15  22
ATOM     21 BR   UNL     1      -0.245   9.655  22.920  0.00  0.00    +0.000 Br
ATOM     22  C   UNL     1       0.011  10.505  21.191  0.00  0.00    +0.000 C 
ENDBRANCH  15  22
ENDBRANCH  14  18
ENDBRANCH   1  14
TORSDOF 3
ENDMDL
MODEL 7
REMARK VINA RESULT:      -7.9      1.315      1.403
REMARK  Name = 
REMARK  3 active torsions:
REMARK  status: ('A' for Active; 'I' for Inactive)
REMARK    1  A    between atoms: C_2  and  C_3
REMARK    2  A    between atoms: C_6  and  C_7
REMARK    3  A    between atoms: C_7  and  N_8
REMARK                            x       y       z     vdW  Elec       q    Type
REMARK                         _______ _______ _______ _____ _____    ______ ____
ROOT
ATOM      1  N   UNL     1       2.659   5.917  18.795  0.00  0.00    +0.000 N 
ATOM      2  C   UNL     1       3.634   5.677  17.829  0.00  0.00    +0.000 A 
ATOM      3  C   UNL     1       4.201   6.511  16.851  0.00  0.00    +0.000 A 
ATOM      4  C   UNL     1       5.258   5.994  16.090  0.00  0.00    +0.000 A 
ATOM      5  C   UNL     1       5.752   4.713  16.322  0.00  0.00    +0.000 A 
ATOM      6  C   UNL     1       5.208   3.912  17.333  0.00  0.00    +0.000 A 
ATOM      7  C   UNL     1       4.122   4.393  18.092  0.00  0.00    +0.000 A 
ATOM      8  C   UNL     1       3.340   3.857  19.161  0.00  0.00    +0.000 A 
ATOM      9  C   UNL     1       3.430   2.743  20.014  0.00  0.00    +0.000 A 
ATOM     10  C   UNL     1       2.371   2.474  20.891  0.00  0.00    +0.000 A 
ATOM     11  C   UNL     1       1.193   3.226  20.837  0.00  0.00    +0.000 A 
ATOM     12  C   UNL     1       1.092   4.341  20.019  0.00  0.00    +0.000 A 
ATOM     13  C   UNL     1       2.229   4.688  19.286  0.00  0.00    +0.000 A 
ENDROOT
BRANCH   1  14
ATOM     14  C   UNL     1       2.796   7.036  19.744  0.00  0.00    +0.000 C 
BRANCH  14  18
ATOM     15  C   UNL     1      -0.107  10.156  19.087  0.00  0.00    +0.000 A 
ATOM     16  C   UNL     1       0.706   9.722  18.037  0.00  0.00    +0.000 A 
ATOM     17  C   UNL     1       1.677   8.740  18.252  0.00  0.00    +0.000 A 
ATOM     18  C   UNL     1       1.871   8.195  19.529  0.00  0.00    +0.000 A 
ATOM     19  C   UNL     1       1.076   8.653  20.585  0.00  0.00    +0.000 A 
ATOM     20  C   UNL     1       0.088   9.616  20.362  0.00  0.00    +0.000 A 
BRANCH  15  22
ATOM     21 BR   UNL     1      -2.511  10.395  17.630  0.00  0.00    +0.000 Br
ATOM     22  C   UNL     1      -1.198  11.156  18.844  0.00  0.00    +0.000 C 
ENDBRANCH  15  22
ENDBRANCH  14  18
ENDBRANCH   1  14
TORSDOF 3
ENDMDL
MODEL 8
REMARK VINA RESULT:      -7.8      1.656      3.814
REMARK  Name = 
REMARK  3 active torsions:
REMARK  status: ('A' for Active; 'I' for Inactive)
REMARK    1  A    between atoms: C_2  and  C_3
REMARK    2  A    between atoms: C_6  and  C_7
REMARK    3  A    between atoms: C_7  and  N_8
REMARK                            x       y       z     vdW  Elec       q    Type
REMARK                         _______ _______ _______ _____ _____    ______ ____
ROOT
ATOM      1  N   UNL     1       2.997   6.135  18.635  0.00  0.00    +0.000 N 
ATOM      2  C   UNL     1       2.485   4.987  19.236  0.00  0.00    +0.000 A 
ATOM      3  C   UNL     1       1.524   4.813  20.245  0.00  0.00    +0.000 A 
ATOM      4  C   UNL     1       1.139   3.502  20.558  0.00  0.00    +0.000 A 
ATOM      5  C   UNL     1       1.665   2.415  19.865  0.00  0.00    +0.000 A 
ATOM      6  C   UNL     1       2.586   2.607  18.828  0.00  0.00    +0.000 A 
ATOM      7  C   UNL     1       3.016   3.912  18.515  0.00  0.00    +0.000 A 
ATOM      8  C   UNL     1       3.924   4.457  17.555  0.00  0.00    +0.000 A 
ATOM      9  C   UNL     1       4.609   3.971  16.428  0.00  0.00    +0.000 A 
ATOM     10  C   UNL     1       5.536   4.803  15.787  0.00  0.00    +0.000 A 
ATOM     11  C   UNL     1       5.865   6.050  16.327  0.00  0.00    +0.000 A 
ATOM     12  C   UNL     1       5.187   6.558  17.425  0.00  0.00    +0.000 A 
ATOM     13  C   UNL     1       4.146   5.779  17.935  0.00  0.00    +0.000 A 
ENDROOT
BRANCH   1  14
ATOM     14  C   UNL     1       2.099   7.137  18.034  0.00  0.00    +0.000 C 
BRANCH  14  18
ATOM     15  C   UNL     1       0.751  10.384  20.531  0.00  0.00    +0.000 A 
ATOM     16  C   UNL     1       0.946  10.586  19.162  0.00  0.00    +0.000 A 
ATOM     17  C   UNL     1       1.421   9.550  18.354  0.00  0.00    +0.000 A 
ATOM     18  C   UNL     1       1.738   8.301  18.906  0.00  0.00    +0.000 A 
ATOM     19  C   UNL     1       1.572   8.111  20.282  0.00  0.00    +0.000 A 
ATOM     20  C   UNL     1       1.072   9.140  21.084  0.00  0.00    +0.000 A 
BRANCH  15  22
ATOM     21 BR   UNL     1      -0.815  10.674  22.859  0.00  0.00    +0.000 Br
ATOM     22  C   UNL     1       0.173  11.470  21.387  0.00  0.00    +0.000 C 
ENDBRANCH  15  22
ENDBRANCH  14  18
ENDBRANCH   1  14
TORSDOF 3
ENDMDL
MODEL 9
REMARK VINA RESULT:      -7.7      1.159      1.594
REMARK  Name = 
REMARK  3 active torsions:
REMARK  status: ('A' for Active; 'I' for Inactive)
REMARK    1  A    between atoms: C_2  and  C_3
REMARK    2  A    between atoms: C_6  and  C_7
REMARK    3  A    between atoms: C_7  and  N_8
REMARK                            x       y       z     vdW  Elec       q    Type
REMARK                         _______ _______ _______ _____ _____    ______ ____
ROOT
ATOM      1  N   UNL     1       2.720   5.877  18.624  0.00  0.00    +0.000 N 
ATOM      2  C   UNL     1       3.692   5.671  17.647  0.00  0.00    +0.000 A 
ATOM      3  C   UNL     1       4.286   6.549  16.725  0.00  0.00    +0.000 A 
ATOM      4  C   UNL     1       5.332   6.051  15.936  0.00  0.00    +0.000 A 
ATOM      5  C   UNL     1       5.788   4.744  16.088  0.00  0.00    +0.000 A 
ATOM      6  C   UNL     1       5.217   3.896  17.045  0.00  0.00    +0.000 A 
ATOM      7  C   UNL     1       4.142   4.360  17.830  0.00  0.00    +0.000 A 
ATOM      8  C   UNL     1       3.341   3.779  18.861  0.00  0.00    +0.000 A 
ATOM      9  C   UNL     1       3.396   2.612  19.642  0.00  0.00    +0.000 A 
ATOM     10  C   UNL     1       2.327   2.318  20.498  0.00  0.00    +0.000 A 
ATOM     11  C   UNL     1       1.171   3.105  20.489  0.00  0.00    +0.000 A 
ATOM     12  C   UNL     1       1.104   4.272  19.743  0.00  0.00    +0.000 A 
ATOM     13  C   UNL     1       2.253   4.632  19.035  0.00  0.00    +0.000 A 
ENDROOT
BRANCH   1  14
ATOM     14  C   UNL     1       2.884   6.929  19.643  0.00  0.00    +0.000 C 
BRANCH  14  18
ATOM     15  C   UNL     1       0.207  10.309  19.623  0.00  0.00    +0.000 A 
ATOM     16  C   UNL     1       0.344   9.530  20.775  0.00  0.00    +0.000 A 
ATOM     17  C   UNL     1       1.179   8.409  20.776  0.00  0.00    +0.000 A 
ATOM     18  C   UNL     1       1.869   8.032  19.616  0.00  0.00    +0.000 A 
ATOM     19  C   UNL     1       1.706   8.796  18.456  0.00  0.00    +0.000 A 
ATOM     20  C   UNL     1       0.891   9.931  18.464  0.00  0.00    +0.000 A 
BRANCH  15  22
ATOM     21 BR   UNL     1      -1.742  11.602  18.046  0.00  0.00    +0.000 Br
ATOM     22  C   UNL     1      -0.631  11.553  19.639  0.00  0.00    +0.000 C 
ENDBRANCH  15  22
ENDBRANCH  14  18
ENDBRANCH   1  14
TORSDOF 3
ENDMDL
