MODEL 1
REMARK VINA RESULT:      -8.4      0.000      0.000
REMARK  Name = 
REMARK  5 active torsions:
REMARK  status: ('A' for Active; 'I' for Inactive)
REMARK    1  A    between atoms: C_2  and  C_13
REMARK    2  A    between atoms: N_3  and  C_4
REMARK    3  A    between atoms: C_4  and  C_5
REMARK    4  A    between atoms: C_5  and  C_6
REMARK    5  A    between atoms: C_6  and  C_7
REMARK                            x       y       z     vdW  Elec       q    Type
REMARK                         _______ _______ _______ _____ _____    ______ ____
ROOT
ATOM      1  O   UNL     1       7.771   4.527  17.026  0.00  0.00    +0.000 OA
ATOM      2  C   UNL     1       6.811   5.151  17.462  0.00  0.00    +0.000 C 
ATOM      3  N   UNL     1       6.823   6.501  17.715  0.00  0.00    +0.000 N 
ATOM      4  H   UNL     1       6.026   6.895  18.193  0.00  0.00    +0.000 HD
ENDROOT
BRANCH   2   5
ATOM      5  C   UNL     1       5.546   4.532  17.793  0.00  0.00    +0.000 A 
ATOM      6  C   UNL     1       4.321   4.627  17.157  0.00  0.00    +0.000 A 
ATOM      7  C   UNL     1       3.373   3.868  17.884  0.00  0.00    +0.000 A 
ATOM      8  C   UNL     1       2.002   3.606  17.715  0.00  0.00    +0.000 A 
ATOM      9  C   UNL     1       1.330   2.838  18.671  0.00  0.00    +0.000 A 
ATOM     10  C   UNL     1       2.008   2.341  19.782  0.00  0.00    +0.000 A 
ATOM     11  C   UNL     1       3.380   2.564  19.955  0.00  0.00    +0.000 A 
ATOM     12  C   UNL     1       4.041   3.322  18.981  0.00  0.00    +0.000 A 
ATOM     13  N   UNL     1       5.368   3.674  18.857  0.00  0.00    +0.000 N 
ATOM     14  H   UNL     1       6.109   3.385  19.483  0.00  0.00    +0.000 HD
ENDBRANCH   2   5
BRANCH   3  15
ATOM     15  C   UNL     1       7.894   7.395  17.342  0.00  0.00    +0.000 C 
BRANCH  15  16
ATOM     16  C   UNL     1       8.163   8.450  18.417  0.00  0.00    +0.000 C 
BRANCH  16  17
ATOM     17  C   UNL     1       8.324   9.860  17.834  0.00  0.00    +0.000 C 
BRANCH  17  18
ATOM     18  C   UNL     1       9.397  10.650  18.542  0.00  0.00    +0.000 A 
ATOM     19  C   UNL     1       9.411  10.730  19.942  0.00  0.00    +0.000 A 
ATOM     20  C   UNL     1      10.394  11.470  20.600  0.00  0.00    +0.000 A 
ATOM     21  C   UNL     1      11.371  12.140  19.866  0.00  0.00    +0.000 A 
ATOM     22  C   UNL     1      11.366  12.069  18.475  0.00  0.00    +0.000 A 
ATOM     23  C   UNL     1      10.384  11.328  17.814  0.00  0.00    +0.000 A 
ENDBRANCH  17  18
ENDBRANCH  16  17
ENDBRANCH  15  16
ENDBRANCH   3  15
TORSDOF 5
ENDMDL
MODEL 2
REMARK VINA RESULT:      -8.4      0.514      1.171
REMARK  Name = 
REMARK  5 active torsions:
REMARK  status: ('A' for Active; 'I' for Inactive)
REMARK    1  A    between atoms: C_2  and  C_13
REMARK    2  A    between atoms: N_3  and  C_4
REMARK    3  A    between atoms: C_4  and  C_5
REMARK    4  A    between atoms: C_5  and  C_6
REMARK    5  A    between atoms: C_6  and  C_7
REMARK                            x       y       z     vdW  Elec       q    Type
REMARK                         _______ _______ _______ _____ _____    ______ ____
ROOT
ATOM      1  O   UNL     1       7.775   4.856  18.626  0.00  0.00    +0.000 OA
ATOM      2  C   UNL     1       6.747   5.371  18.202  0.00  0.00    +0.000 C 
ATOM      3  N   UNL     1       6.691   6.619  17.632  0.00  0.00    +0.000 N 
ATOM      4  H   UNL     1       5.779   7.002  17.432  0.00  0.00    +0.000 HD
ENDROOT
BRANCH   2   5
ATOM      5  C   UNL     1       5.452   4.731  18.274  0.00  0.00    +0.000 A 
ATOM      6  C   UNL     1       4.241   5.120  17.729  0.00  0.00    +0.000 A 
ATOM      7  C   UNL     1       3.250   4.183  18.112  0.00  0.00    +0.000 A 
ATOM      8  C   UNL     1       1.871   4.070  17.862  0.00  0.00    +0.000 A 
ATOM      9  C   UNL     1       1.153   3.025  18.451  0.00  0.00    +0.000 A 
ATOM     10  C   UNL     1       1.794   2.108  19.282  0.00  0.00    +0.000 A 
ATOM     11  C   UNL     1       3.171   2.184  19.521  0.00  0.00    +0.000 A 
ATOM     12  C   UNL     1       3.879   3.227  18.911  0.00  0.00    +0.000 A 
ATOM     13  N   UNL     1       5.221   3.539  18.926  0.00  0.00    +0.000 N 
ATOM     14  H   UNL     1       5.940   2.997  19.389  0.00  0.00    +0.000 HD
ENDBRANCH   2   5
BRANCH   3  15
ATOM     15  C   UNL     1       7.846   7.420  17.297  0.00  0.00    +0.000 C 
BRANCH  15  16
ATOM     16  C   UNL     1       8.176   8.439  18.388  0.00  0.00    +0.000 C 
BRANCH  16  17
ATOM     17  C   UNL     1       8.301   9.868  17.844  0.00  0.00    +0.000 C 
BRANCH  17  18
ATOM     18  C   UNL     1       9.372  10.657  18.558  0.00  0.00    +0.000 A 
ATOM     19  C   UNL     1      10.415  11.250  17.833  0.00  0.00    +0.000 A 
ATOM     20  C   UNL     1      11.416  11.969  18.490  0.00  0.00    +0.000 A 
ATOM     21  C   UNL     1      11.385  12.098  19.877  0.00  0.00    +0.000 A 
ATOM     22  C   UNL     1      10.354  11.511  20.607  0.00  0.00    +0.000 A 
ATOM     23  C   UNL     1       9.352  10.792  19.952  0.00  0.00    +0.000 A 
ENDBRANCH  17  18
ENDBRANCH  16  17
ENDBRANCH  15  16
ENDBRANCH   3  15
TORSDOF 5
ENDMDL
MODEL 3
REMARK VINA RESULT:      -8.2      1.232      1.262
REMARK  Name = 
REMARK  5 active torsions:
REMARK  status: ('A' for Active; 'I' for Inactive)
REMARK    1  A    between atoms: C_2  and  C_13
REMARK    2  A    between atoms: N_3  and  C_4
REMARK    3  A    between atoms: C_4  and  C_5
REMARK    4  A    between atoms: C_5  and  C_6
REMARK    5  A    between atoms: C_6  and  C_7
REMARK                            x       y       z     vdW  Elec       q    Type
REMARK                         _______ _______ _______ _____ _____    ______ ____
ROOT
ATOM      1  O   UNL     1       7.351   5.359  19.566  0.00  0.00    +0.000 OA
ATOM      2  C   UNL     1       6.412   5.597  18.814  0.00  0.00    +0.000 C 
ATOM      3  N   UNL     1       6.465   6.499  17.781  0.00  0.00    +0.000 N 
ATOM      4  H   UNL     1       5.602   6.715  17.303  0.00  0.00    +0.000 HD
ENDROOT
BRANCH   2   5
ATOM      5  C   UNL     1       5.115   4.970  18.943  0.00  0.00    +0.000 A 
ATOM      6  C   UNL     1       4.503   4.028  18.135  0.00  0.00    +0.000 A 
ATOM      7  C   UNL     1       3.215   3.753  18.654  0.00  0.00    +0.000 A 
ATOM      8  C   UNL     1       2.168   2.903  18.258  0.00  0.00    +0.000 A 
ATOM      9  C   UNL     1       0.971   2.911  18.979  0.00  0.00    +0.000 A 
ATOM     10  C   UNL     1       0.812   3.755  20.077  0.00  0.00    +0.000 A 
ATOM     11  C   UNL     1       1.852   4.588  20.508  0.00  0.00    +0.000 A 
ATOM     12  C   UNL     1       3.050   4.557  19.784  0.00  0.00    +0.000 A 
ATOM     13  N   UNL     1       4.242   5.221  19.979  0.00  0.00    +0.000 N 
ATOM     14  H   UNL     1       4.441   5.846  20.750  0.00  0.00    +0.000 HD
ENDBRANCH   2   5
BRANCH   3  15
ATOM     15  C   UNL     1       7.669   7.157  17.328  0.00  0.00    +0.000 C 
BRANCH  15  16
ATOM     16  C   UNL     1       8.222   8.127  18.373  0.00  0.00    +0.000 C 
BRANCH  16  17
ATOM     17  C   UNL     1       8.175   9.588  17.908  0.00  0.00    +0.000 C 
BRANCH  17  18
ATOM     18  C   UNL     1       9.227  10.434  18.583  0.00  0.00    +0.000 A 
ATOM     19  C   UNL     1       9.198  10.626  19.972  0.00  0.00    +0.000 A 
ATOM     20  C   UNL     1      10.160  11.419  20.598  0.00  0.00    +0.000 A 
ATOM     21  C   UNL     1      11.160  12.030  19.844  0.00  0.00    +0.000 A 
ATOM     22  C   UNL     1      11.197  11.848  18.463  0.00  0.00    +0.000 A 
ATOM     23  C   UNL     1      10.235  11.055  17.834  0.00  0.00    +0.000 A 
ENDBRANCH  17  18
ENDBRANCH  16  17
ENDBRANCH  15  16
ENDBRANCH   3  15
TORSDOF 5
ENDMDL
MODEL 4
REMARK VINA RESULT:      -8.1      1.470      1.836
REMARK  Name = 
REMARK  5 active torsions:
REMARK  status: ('A' for Active; 'I' for Inactive)
REMARK    1  A    between atoms: C_2  and  C_13
REMARK    2  A    between atoms: N_3  and  C_4
REMARK    3  A    between atoms: C_4  and  C_5
REMARK    4  A    between atoms: C_5  and  C_6
REMARK    5  A    between atoms: C_6  and  C_7
REMARK                            x       y       z     vdW  Elec       q    Type
REMARK                         _______ _______ _______ _____ _____    ______ ____
ROOT
ATOM      1  O   UNL     1       7.331   5.428  19.976  0.00  0.00    +0.000 OA
ATOM      2  C   UNL     1       6.482   5.586  19.107  0.00  0.00    +0.000 C 
ATOM      3  N   UNL     1       6.635   6.420  18.027  0.00  0.00    +0.000 N 
ATOM      4  H   UNL     1       5.829   6.577  17.439  0.00  0.00    +0.000 HD
ENDROOT
BRANCH   2   5
ATOM      5  C   UNL     1       5.194   4.929  19.129  0.00  0.00    +0.000 A 
ATOM      6  C   UNL     1       3.973   5.388  19.591  0.00  0.00    +0.000 A 
ATOM      7  C   UNL     1       3.012   4.360  19.433  0.00  0.00    +0.000 A 
ATOM      8  C   UNL     1       1.641   4.259  19.723  0.00  0.00    +0.000 A 
ATOM      9  C   UNL     1       0.980   3.049  19.489  0.00  0.00    +0.000 A 
ATOM     10  C   UNL     1       1.673   1.953  18.979  0.00  0.00    +0.000 A 
ATOM     11  C   UNL     1       3.033   2.040  18.655  0.00  0.00    +0.000 A 
ATOM     12  C   UNL     1       3.676   3.263  18.880  0.00  0.00    +0.000 A 
ATOM     13  N   UNL     1       4.972   3.661  18.635  0.00  0.00    +0.000 N 
ATOM     14  H   UNL     1       5.683   3.092  18.194  0.00  0.00    +0.000 HD
ENDBRANCH   2   5
BRANCH   3  15
ATOM     15  C   UNL     1       7.867   7.084  17.671  0.00  0.00    +0.000 C 
BRANCH  15  16
ATOM     16  C   UNL     1       7.741   8.607  17.741  0.00  0.00    +0.000 C 
BRANCH  16  17
ATOM     17  C   UNL     1       8.751   9.241  18.707  0.00  0.00    +0.000 C 
BRANCH  17  18
ATOM     18  C   UNL     1       9.170  10.622  18.267  0.00  0.00    +0.000 A 
ATOM     19  C   UNL     1      10.526  10.979  18.252  0.00  0.00    +0.000 A 
ATOM     20  C   UNL     1      10.917  12.260  17.858  0.00  0.00    +0.000 A 
ATOM     21  C   UNL     1       9.958  13.196  17.479  0.00  0.00    +0.000 A 
ATOM     22  C   UNL     1       8.608  12.853  17.493  0.00  0.00    +0.000 A 
ATOM     23  C   UNL     1       8.214  11.572  17.885  0.00  0.00    +0.000 A 
ENDBRANCH  17  18
ENDBRANCH  16  17
ENDBRANCH  15  16
ENDBRANCH   3  15
TORSDOF 5
ENDMDL
MODEL 5
REMARK VINA RESULT:      -8.1      1.260      1.651
REMARK  Name = 
REMARK  5 active torsions:
REMARK  status: ('A' for Active; 'I' for Inactive)
REMARK    1  A    between atoms: C_2  and  C_13
REMARK    2  A    between atoms: N_3  and  C_4
REMARK    3  A    between atoms: C_4  and  C_5
REMARK    4  A    between atoms: C_5  and  C_6
REMARK    5  A    between atoms: C_6  and  C_7
REMARK                            x       y       z     vdW  Elec       q    Type
REMARK                         _______ _______ _______ _____ _____    ______ ____
ROOT
ATOM      1  O   UNL     1       6.073   5.706  15.711  0.00  0.00    +0.000 OA
ATOM      2  C   UNL     1       5.815   5.976  16.877  0.00  0.00    +0.000 C 
ATOM      3  N   UNL     1       6.559   6.833  17.650  0.00  0.00    +0.000 N 
ATOM      4  H   UNL     1       6.337   6.889  18.634  0.00  0.00    +0.000 HD
ENDROOT
BRANCH   2   5
ATOM      5  C   UNL     1       4.700   5.399  17.597  0.00  0.00    +0.000 A 
ATOM      6  C   UNL     1       3.737   4.503  17.167  0.00  0.00    +0.000 A 
ATOM      7  C   UNL     1       2.831   4.268  18.229  0.00  0.00    +0.000 A 
ATOM      8  C   UNL     1       1.680   3.472  18.366  0.00  0.00    +0.000 A 
ATOM      9  C   UNL     1       0.962   3.510  19.565  0.00  0.00    +0.000 A 
ATOM     10  C   UNL     1       1.376   4.331  20.611  0.00  0.00    +0.000 A 
ATOM     11  C   UNL     1       2.535   5.111  20.508  0.00  0.00    +0.000 A 
ATOM     12  C   UNL     1       3.252   5.049  19.306  0.00  0.00    +0.000 A 
ATOM     13  N   UNL     1       4.426   5.660  18.922  0.00  0.00    +0.000 N 
ATOM     14  H   UNL     1       4.993   6.256  19.512  0.00  0.00    +0.000 HD
ENDBRANCH   2   5
BRANCH   3  15
ATOM     15  C   UNL     1       7.632   7.662  17.154  0.00  0.00    +0.000 C 
BRANCH  15  16
ATOM     16  C   UNL     1       8.304   8.464  18.270  0.00  0.00    +0.000 C 
BRANCH  16  17
ATOM     17  C   UNL     1       8.217   9.979  18.046  0.00  0.00    +0.000 C 
BRANCH  17  18
ATOM     18  C   UNL     1       9.361  10.717  18.695  0.00  0.00    +0.000 A 
ATOM     19  C   UNL     1      10.431  11.187  17.920  0.00  0.00    +0.000 A 
ATOM     20  C   UNL     1      11.499  11.858  18.518  0.00  0.00    +0.000 A 
ATOM     21  C   UNL     1      11.509  12.064  19.897  0.00  0.00    +0.000 A 
ATOM     22  C   UNL     1      10.452  11.599  20.676  0.00  0.00    +0.000 A 
ATOM     23  C   UNL     1       9.383  10.928  20.080  0.00  0.00    +0.000 A 
ENDBRANCH  17  18
ENDBRANCH  16  17
ENDBRANCH  15  16
ENDBRANCH   3  15
TORSDOF 5
ENDMDL
MODEL 6
REMARK VINA RESULT:      -8.0      3.041      4.356
REMARK  Name = 
REMARK  5 active torsions:
REMARK  status: ('A' for Active; 'I' for Inactive)
REMARK    1  A    between atoms: C_2  and  C_13
REMARK    2  A    between atoms: N_3  and  C_4
REMARK    3  A    between atoms: C_4  and  C_5
REMARK    4  A    between atoms: C_5  and  C_6
REMARK    5  A    between atoms: C_6  and  C_7
REMARK                            x       y       z     vdW  Elec       q    Type
REMARK                         _______ _______ _______ _____ _____    ______ ____
ROOT
ATOM      1  O   UNL     1       7.492   5.044  18.227  0.00  0.00    +0.000 OA
ATOM      2  C   UNL     1       7.365   5.746  17.230  0.00  0.00    +0.000 C 
ATOM      3  N   UNL     1       7.549   7.106  17.220  0.00  0.00    +0.000 N 
ATOM      4  H   UNL     1       7.296   7.607  16.381  0.00  0.00    +0.000 HD
ENDROOT
BRANCH   2   5
ATOM      5  C   UNL     1       6.976   5.225  15.938  0.00  0.00    +0.000 A 
ATOM      6  C   UNL     1       5.869   4.474  15.583  0.00  0.00    +0.000 A 
ATOM      7  C   UNL     1       5.951   4.170  14.203  0.00  0.00    +0.000 A 
ATOM      8  C   UNL     1       5.131   3.452  13.315  0.00  0.00    +0.000 A 
ATOM      9  C   UNL     1       5.540   3.287  11.988  0.00  0.00    +0.000 A 
ATOM     10  C   UNL     1       6.749   3.823  11.550  0.00  0.00    +0.000 A 
ATOM     11  C   UNL     1       7.568   4.568  12.408  0.00  0.00    +0.000 A 
ATOM     12  C   UNL     1       7.136   4.737  13.730  0.00  0.00    +0.000 A 
ATOM     13  N   UNL     1       7.694   5.433  14.780  0.00  0.00    +0.000 N 
ATOM     14  H   UNL     1       8.539   5.987  14.729  0.00  0.00    +0.000 HD
ENDBRANCH   2   5
BRANCH   3  15
ATOM     15  C   UNL     1       8.082   7.870  18.325  0.00  0.00    +0.000 C 
BRANCH  15  16
ATOM     16  C   UNL     1       8.299   9.339  17.958  0.00  0.00    +0.000 C 
BRANCH  16  17
ATOM     17  C   UNL     1       9.187  10.076  18.968  0.00  0.00    +0.000 C 
BRANCH  17  18
ATOM     18  C   UNL     1       9.743  11.361  18.405  0.00  0.00    +0.000 A 
ATOM     19  C   UNL     1       8.908  12.472  18.218  0.00  0.00    +0.000 A 
ATOM     20  C   UNL     1       9.414  13.658  17.685  0.00  0.00    +0.000 A 
ATOM     21  C   UNL     1      10.759  13.746  17.330  0.00  0.00    +0.000 A 
ATOM     22  C   UNL     1      11.597  12.647  17.509  0.00  0.00    +0.000 A 
ATOM     23  C   UNL     1      11.093  11.459  18.043  0.00  0.00    +0.000 A 
ENDBRANCH  17  18
ENDBRANCH  16  17
ENDBRANCH  15  16
ENDBRANCH   3  15
TORSDOF 5
ENDMDL
MODEL 7
REMARK VINA RESULT:      -8.0      0.992      1.053
REMARK  Name = 
REMARK  5 active torsions:
REMARK  status: ('A' for Active; 'I' for Inactive)
REMARK    1  A    between atoms: C_2  and  C_13
REMARK    2  A    between atoms: N_3  and  C_4
REMARK    3  A    between atoms: C_4  and  C_5
REMARK    4  A    between atoms: C_5  and  C_6
REMARK    5  A    between atoms: C_6  and  C_7
REMARK                            x       y       z     vdW  Elec       q    Type
REMARK                         _______ _______ _______ _____ _____    ______ ____
ROOT
ATOM      1  O   UNL     1       7.842   5.507  19.232  0.00  0.00    +0.000 OA
ATOM      2  C   UNL     1       6.921   5.856  18.502  0.00  0.00    +0.000 C 
ATOM      3  N   UNL     1       6.967   6.955  17.680  0.00  0.00    +0.000 N 
ATOM      4  H   UNL     1       6.113   7.229  17.217  0.00  0.00    +0.000 HD
ENDROOT
BRANCH   2   5
ATOM      5  C   UNL     1       5.654   5.162  18.438  0.00  0.00    +0.000 A 
ATOM      6  C   UNL     1       4.412   5.623  18.039  0.00  0.00    +0.000 A 
ATOM      7  C   UNL     1       3.470   4.577  18.191  0.00  0.00    +0.000 A 
ATOM      8  C   UNL     1       2.089   4.469  17.952  0.00  0.00    +0.000 A 
ATOM      9  C   UNL     1       1.430   3.278  18.271  0.00  0.00    +0.000 A 
ATOM     10  C   UNL     1       2.132   2.209  18.825  0.00  0.00    +0.000 A 
ATOM     11  C   UNL     1       3.513   2.283  19.044  0.00  0.00    +0.000 A 
ATOM     12  C   UNL     1       4.160   3.477  18.705  0.00  0.00    +0.000 A 
ATOM     13  N   UNL     1       5.490   3.834  18.769  0.00  0.00    +0.000 N 
ATOM     14  H   UNL     1       6.243   3.226  19.062  0.00  0.00    +0.000 HD
ENDBRANCH   2   5
BRANCH   3  15
ATOM     15  C   UNL     1       8.151   7.743  17.430  0.00  0.00    +0.000 C 
BRANCH  15  16
ATOM     16  C   UNL     1       8.023   9.166  17.978  0.00  0.00    +0.000 C 
BRANCH  16  17
ATOM     17  C   UNL     1       8.889   9.400  19.222  0.00  0.00    +0.000 C 
BRANCH  17  18
ATOM     18  C   UNL     1       9.678  10.683  19.132  0.00  0.00    +0.000 A 
ATOM     19  C   UNL     1      10.109  11.334  20.297  0.00  0.00    +0.000 A 
ATOM     20  C   UNL     1      10.827  12.528  20.219  0.00  0.00    +0.000 A 
ATOM     21  C   UNL     1      11.120  13.085  18.976  0.00  0.00    +0.000 A 
ATOM     22  C   UNL     1      10.695  12.448  17.812  0.00  0.00    +0.000 A 
ATOM     23  C   UNL     1       9.977  11.253  17.887  0.00  0.00    +0.000 A 
ENDBRANCH  17  18
ENDBRANCH  16  17
ENDBRANCH  15  16
ENDBRANCH   3  15
TORSDOF 5
ENDMDL
MODEL 8
REMARK VINA RESULT:      -8.0      0.722      1.328
REMARK  Name = 
REMARK  5 active torsions:
REMARK  status: ('A' for Active; 'I' for Inactive)
REMARK    1  A    between atoms: C_2  and  C_13
REMARK    2  A    between atoms: N_3  and  C_4
REMARK    3  A    between atoms: C_4  and  C_5
REMARK    4  A    between atoms: C_5  and  C_6
REMARK    5  A    between atoms: C_6  and  C_7
REMARK                            x       y       z     vdW  Elec       q    Type
REMARK                         _______ _______ _______ _____ _____    ______ ____
ROOT
ATOM      1  O   UNL     1       7.503   5.033  16.529  0.00  0.00    +0.000 OA
ATOM      2  C   UNL     1       6.664   5.582  17.233  0.00  0.00    +0.000 C 
ATOM      3  N   UNL     1       6.746   6.887  17.651  0.00  0.00    +0.000 N 
ATOM      4  H   UNL     1       6.071   7.204  18.331  0.00  0.00    +0.000 HD
ENDROOT
BRANCH   2   5
ATOM      5  C   UNL     1       5.487   4.907  17.736  0.00  0.00    +0.000 A 
ATOM      6  C   UNL     1       5.365   3.990  18.765  0.00  0.00    +0.000 A 
ATOM      7  C   UNL     1       4.011   3.584  18.852  0.00  0.00    +0.000 A 
ATOM      8  C   UNL     1       3.315   2.691  19.685  0.00  0.00    +0.000 A 
ATOM      9  C   UNL     1       1.953   2.470  19.465  0.00  0.00    +0.000 A 
ATOM     10  C   UNL     1       1.290   3.122  18.427  0.00  0.00    +0.000 A 
ATOM     11  C   UNL     1       1.956   4.038  17.602  0.00  0.00    +0.000 A 
ATOM     12  C   UNL     1       3.317   4.260  17.846  0.00  0.00    +0.000 A 
ATOM     13  N   UNL     1       4.217   5.110  17.240  0.00  0.00    +0.000 N 
ATOM     14  H   UNL     1       3.994   5.764  16.501  0.00  0.00    +0.000 HD
ENDBRANCH   2   5
BRANCH   3  15
ATOM     15  C   UNL     1       7.728   7.838  17.183  0.00  0.00    +0.000 C 
BRANCH  15  16
ATOM     16  C   UNL     1       8.380   8.605  18.335  0.00  0.00    +0.000 C 
BRANCH  16  17
ATOM     17  C   UNL     1       8.335  10.125  18.134  0.00  0.00    +0.000 C 
BRANCH  17  18
ATOM     18  C   UNL     1       9.534  10.814  18.736  0.00  0.00    +0.000 A 
ATOM     19  C   UNL     1       9.558  11.130  20.102  0.00  0.00    +0.000 A 
ATOM     20  C   UNL     1      10.660  11.780  20.661  0.00  0.00    +0.000 A 
ATOM     21  C   UNL     1      11.747  12.124  19.860  0.00  0.00    +0.000 A 
ATOM     22  C   UNL     1      11.733  11.817  18.501  0.00  0.00    +0.000 A 
ATOM     23  C   UNL     1      10.632  11.166  17.940  0.00  0.00    +0.000 A 
ENDBRANCH  17  18
ENDBRANCH  16  17
ENDBRANCH  15  16
ENDBRANCH   3  15
TORSDOF 5
ENDMDL
MODEL 9
REMARK VINA RESULT:      -7.9      1.189      1.650
REMARK  Name = 
REMARK  5 active torsions:
REMARK  status: ('A' for Active; 'I' for Inactive)
REMARK    1  A    between atoms: C_2  and  C_13
REMARK    2  A    between atoms: N_3  and  C_4
REMARK    3  A    between atoms: C_4  and  C_5
REMARK    4  A    between atoms: C_5  and  C_6
REMARK    5  A    between atoms: C_6  and  C_7
REMARK                            x       y       z     vdW  Elec       q    Type
REMARK                         _______ _______ _______ _____ _____    ______ ____
ROOT
ATOM      1  O   UNL     1       6.083   5.297  16.176  0.00  0.00    +0.000 OA
ATOM      2  C   UNL     1       5.843   5.678  17.316  0.00  0.00    +0.000 C 
ATOM      3  N   UNL     1       6.582   6.624  17.982  0.00  0.00    +0.000 N 
ATOM      4  H   UNL     1       6.379   6.774  18.960  0.00  0.00    +0.000 HD
ENDROOT
BRANCH   2   5
ATOM      5  C   UNL     1       4.757   5.153  18.114  0.00  0.00    +0.000 A 
ATOM      6  C   UNL     1       3.888   5.809  18.968  0.00  0.00    +0.000 A 
ATOM      7  C   UNL     1       3.021   4.855  19.553  0.00  0.00    +0.000 A 
ATOM      8  C   UNL     1       1.964   4.940  20.477  0.00  0.00    +0.000 A 
ATOM      9  C   UNL     1       1.333   3.767  20.902  0.00  0.00    +0.000 A 
ATOM     10  C   UNL     1       1.747   2.527  20.421  0.00  0.00    +0.000 A 
ATOM     11  C   UNL     1       2.778   2.421  19.479  0.00  0.00    +0.000 A 
ATOM     12  C   UNL     1       3.390   3.606  19.052  0.00  0.00    +0.000 A 
ATOM     13  N   UNL     1       4.387   3.825  18.126  0.00  0.00    +0.000 N 
ATOM     14  H   UNL     1       4.826   3.109  17.561  0.00  0.00    +0.000 HD
ENDBRANCH   2   5
BRANCH   3  15
ATOM     15  C   UNL     1       7.626   7.421  17.381  0.00  0.00    +0.000 C 
BRANCH  15  16
ATOM     16  C   UNL     1       8.312   8.333  18.400  0.00  0.00    +0.000 C 
BRANCH  16  17
ATOM     17  C   UNL     1       8.280   9.810  17.988  0.00  0.00    +0.000 C 
BRANCH  17  18
ATOM     18  C   UNL     1       9.383  10.607  18.641  0.00  0.00    +0.000 A 
ATOM     19  C   UNL     1      10.445  11.107  17.873  0.00  0.00    +0.000 A 
ATOM     20  C   UNL     1      11.474  11.833  18.475  0.00  0.00    +0.000 A 
ATOM     21  C   UNL     1      11.455  12.063  19.849  0.00  0.00    +0.000 A 
ATOM     22  C   UNL     1      10.406  11.568  20.621  0.00  0.00    +0.000 A 
ATOM     23  C   UNL     1       9.375  10.843  20.022  0.00  0.00    +0.000 A 
ENDBRANCH  17  18
ENDBRANCH  16  17
ENDBRANCH  15  16
ENDBRANCH   3  15
TORSDOF 5
ENDMDL
