MODEL 1
REMARK VINA RESULT:      -8.3      0.000      0.000
REMARK  Name = 
REMARK  7 active torsions:
REMARK  status: ('A' for Active; 'I' for Inactive)
REMARK    1  A    between atoms: N_6  and  C_7
REMARK    2  A    between atoms: C_11  and  O_12
REMARK    3  A    between atoms: O_12  and  C_13
REMARK    4  A    between atoms: C_13  and  C_14
REMARK    5  A    between atoms: C_22  and  N_23
REMARK    6  A    between atoms: N_23  and  C_24
REMARK    7  A    between atoms: C_26  and  C_27
REMARK                            x       y       z     vdW  Elec       q    Type
REMARK                         _______ _______ _______ _____ _____    ______ ____
ROOT
ATOM      1 BR   UNL     1       8.176   7.873  17.480  0.00  0.00    +0.000 Br
ATOM      2  C   UNL     1       7.228   6.306  17.931  0.00  0.00    +0.000 A 
ATOM      3  C   UNL     1       6.843   6.086  19.229  0.00  0.00    +0.000 A 
ATOM      4  N   UNL     1       6.105   5.031  19.610  0.00  0.00    +0.000 NA
ATOM      5  C   UNL     1       5.732   4.159  18.662  0.00  0.00    +0.000 A 
ATOM      6  N   UNL     1       4.879   3.102  18.995  0.00  0.00    +0.000 N 
ATOM      7  N   UNL     1       6.086   4.275  17.374  0.00  0.00    +0.000 NA
ATOM      8  C   UNL     1       6.823   5.355  17.004  0.00  0.00    +0.000 A 
ATOM      9  H   UNL     1       4.637   2.599  18.151  0.00  0.00    +0.000 HD
ENDROOT
BRANCH   6  10
ATOM     10  C   UNL     1       3.789   3.201  19.890  0.00  0.00    +0.000 A 
ATOM     11  C   UNL     1       3.500   2.201  20.826  0.00  0.00    +0.000 A 
ATOM     12  C   UNL     1       2.404   2.310  21.681  0.00  0.00    +0.000 A 
ATOM     13  C   UNL     1       1.600   3.442  21.631  0.00  0.00    +0.000 A 
ATOM     14  C   UNL     1       1.916   4.485  20.759  0.00  0.00    +0.000 A 
ATOM     15  C   UNL     1       3.002   4.358  19.886  0.00  0.00    +0.000 A 
BRANCH  14  16
ATOM     16  O   UNL     1       1.220   5.659  20.671  0.00  0.00    +0.000 OA
BRANCH  16  17
ATOM     17  C   UNL     1       1.958   6.824  21.043  0.00  0.00    +0.000 C 
BRANCH  17  18
ATOM     18  C   UNL     1       1.774   7.858  19.966  0.00  0.00    +0.000 A 
ATOM     19  C   UNL     1       0.974   8.986  20.180  0.00  0.00    +0.000 A 
ATOM     20  C   UNL     1       0.800   9.924  19.164  0.00  0.00    +0.000 A 
ATOM     21  C   UNL     1       1.419   9.740  17.928  0.00  0.00    +0.000 A 
ATOM     22  C   UNL     1       2.211   8.615  17.704  0.00  0.00    +0.000 A 
ATOM     23  C   UNL     1       2.386   7.676  18.717  0.00  0.00    +0.000 A 
ENDBRANCH  17  18
ENDBRANCH  16  17
ENDBRANCH  14  16
ENDBRANCH   6  10
BRANCH   8  24
ATOM     24  N   UNL     1       7.083   5.565  15.620  0.00  0.00    +0.000 N 
ATOM     25  H   UNL     1       7.286   6.538  15.406  0.00  0.00    +0.000 HD
BRANCH  24  26
ATOM     26  C   UNL     1       6.616   4.752  14.640  0.00  0.00    +0.000 A 
ATOM     27  C   UNL     1       7.246   4.094  13.609  0.00  0.00    +0.000 A 
ATOM     28  C   UNL     1       6.187   3.644  12.789  0.00  0.00    +0.000 A 
ATOM     29  N   UNL     1       4.986   3.849  13.337  0.00  0.00    +0.000 NA
ATOM     30  N   UNL     1       5.281   4.492  14.475  0.00  0.00    +0.000 N 
ATOM     31  H   UNL     1       4.535   4.818  15.079  0.00  0.00    +0.000 HD
BRANCH  28  32
ATOM     32  C   UNL     1       6.381   3.085  11.389  0.00  0.00    +0.000 C 
ATOM     33  C   UNL     1       7.548   2.165  11.101  0.00  0.00    +0.000 C 
ATOM     34  C   UNL     1       6.179   1.588  11.219  0.00  0.00    +0.000 C 
ENDBRANCH  28  32
ENDBRANCH  24  26
ENDBRANCH   8  24
TORSDOF 7
ENDMDL
MODEL 2
REMARK VINA RESULT:      -8.3      3.120      4.769
REMARK  Name = 
REMARK  7 active torsions:
REMARK  status: ('A' for Active; 'I' for Inactive)
REMARK    1  A    between atoms: N_6  and  C_7
REMARK    2  A    between atoms: C_11  and  O_12
REMARK    3  A    between atoms: O_12  and  C_13
REMARK    4  A    between atoms: C_13  and  C_14
REMARK    5  A    between atoms: C_22  and  N_23
REMARK    6  A    between atoms: N_23  and  C_24
REMARK    7  A    between atoms: C_26  and  C_27
REMARK                            x       y       z     vdW  Elec       q    Type
REMARK                         _______ _______ _______ _____ _____    ______ ____
ROOT
ATOM      1 BR   UNL     1       4.487   1.972  19.531  0.00  0.00    +0.000 Br
ATOM      2  C   UNL     1       3.763   3.615  18.952  0.00  0.00    +0.000 A 
ATOM      3  C   UNL     1       2.580   4.069  19.479  0.00  0.00    +0.000 A 
ATOM      4  N   UNL     1       2.043   5.260  19.168  0.00  0.00    +0.000 NA
ATOM      5  C   UNL     1       2.709   6.032  18.298  0.00  0.00    +0.000 A 
ATOM      6  N   UNL     1       2.240   7.321  18.022  0.00  0.00    +0.000 N 
ATOM      7  N   UNL     1       3.854   5.661  17.708  0.00  0.00    +0.000 NA
ATOM      8  C   UNL     1       4.390   4.458  18.044  0.00  0.00    +0.000 A 
ATOM      9  H   UNL     1       2.903   7.787  17.417  0.00  0.00    +0.000 HD
ENDROOT
BRANCH   6  10
ATOM     10  C   UNL     1       1.686   8.197  18.985  0.00  0.00    +0.000 A 
ATOM     11  C   UNL     1       1.835   7.982  20.360  0.00  0.00    +0.000 A 
ATOM     12  C   UNL     1       1.258   8.845  21.290  0.00  0.00    +0.000 A 
ATOM     13  C   UNL     1       0.549   9.958  20.852  0.00  0.00    +0.000 A 
ATOM     14  C   UNL     1       0.454  10.232  19.487  0.00  0.00    +0.000 A 
ATOM     15  C   UNL     1       1.014   9.347  18.558  0.00  0.00    +0.000 A 
BRANCH  14  16
ATOM     16  O   UNL     1      -0.174  11.325  18.957  0.00  0.00    +0.000 OA
BRANCH  16  17
ATOM     17  C   UNL     1      -1.533  11.493  19.363  0.00  0.00    +0.000 C 
BRANCH  17  18
ATOM     18  C   UNL     1      -2.411  11.253  18.165  0.00  0.00    +0.000 A 
ATOM     19  C   UNL     1      -3.739  11.694  18.145  0.00  0.00    +0.000 A 
ATOM     20  C   UNL     1      -4.542  11.447  17.034  0.00  0.00    +0.000 A 
ATOM     21  C   UNL     1      -4.027  10.755  15.938  0.00  0.00    +0.000 A 
ATOM     22  C   UNL     1      -2.708  10.305  15.952  0.00  0.00    +0.000 A 
ATOM     23  C   UNL     1      -1.903  10.550  17.062  0.00  0.00    +0.000 A 
ENDBRANCH  17  18
ENDBRANCH  16  17
ENDBRANCH  14  16
ENDBRANCH   6  10
BRANCH   8  24
ATOM     24  N   UNL     1       5.674   4.114  17.536  0.00  0.00    +0.000 N 
ATOM     25  H   UNL     1       6.371   4.021  18.271  0.00  0.00    +0.000 HD
BRANCH  24  26
ATOM     26  C   UNL     1       6.076   4.391  16.271  0.00  0.00    +0.000 A 
ATOM     27  C   UNL     1       5.601   3.989  15.043  0.00  0.00    +0.000 A 
ATOM     28  C   UNL     1       6.606   4.394  14.136  0.00  0.00    +0.000 A 
ATOM     29  N   UNL     1       7.554   5.138  14.712  0.00  0.00    +0.000 NA
ATOM     30  N   UNL     1       7.187   5.147  16.001  0.00  0.00    +0.000 N 
ATOM     31  H   UNL     1       7.768   5.611  16.689  0.00  0.00    +0.000 HD
BRANCH  28  32
ATOM     32  C   UNL     1       6.664   3.946  12.685  0.00  0.00    +0.000 C 
ATOM     33  C   UNL     1       5.985   2.660  12.266  0.00  0.00    +0.000 C 
ATOM     34  C   UNL     1       5.353   3.962  11.913  0.00  0.00    +0.000 C 
ENDBRANCH  28  32
ENDBRANCH  24  26
ENDBRANCH   8  24
TORSDOF 7
ENDMDL
MODEL 3
REMARK VINA RESULT:      -8.2      4.998      9.121
REMARK  Name = 
REMARK  7 active torsions:
REMARK  status: ('A' for Active; 'I' for Inactive)
REMARK    1  A    between atoms: N_6  and  C_7
REMARK    2  A    between atoms: C_11  and  O_12
REMARK    3  A    between atoms: O_12  and  C_13
REMARK    4  A    between atoms: C_13  and  C_14
REMARK    5  A    between atoms: C_22  and  N_23
REMARK    6  A    between atoms: N_23  and  C_24
REMARK    7  A    between atoms: C_26  and  C_27
REMARK                            x       y       z     vdW  Elec       q    Type
REMARK                         _______ _______ _______ _____ _____    ______ ____
ROOT
ATOM      1 BR   UNL     1      -1.313  11.495  22.867  0.00  0.00    +0.000 Br
ATOM      2  C   UNL     1      -0.132  10.463  21.820  0.00  0.00    +0.000 A 
ATOM      3  C   UNL     1       0.419   9.316  22.333  0.00  0.00    +0.000 A 
ATOM      4  N   UNL     1       1.210   8.495  21.622  0.00  0.00    +0.000 NA
ATOM      5  C   UNL     1       1.462   8.827  20.348  0.00  0.00    +0.000 A 
ATOM      6  N   UNL     1       2.196   7.951  19.541  0.00  0.00    +0.000 N 
ATOM      7  N   UNL     1       0.994   9.942  19.770  0.00  0.00    +0.000 NA
ATOM      8  C   UNL     1       0.186  10.755  20.500  0.00  0.00    +0.000 A 
ATOM      9  H   UNL     1       2.219   8.317  18.599  0.00  0.00    +0.000 HD
ENDROOT
BRANCH   6  10
ATOM     10  C   UNL     1       2.073   6.543  19.566  0.00  0.00    +0.000 A 
ATOM     11  C   UNL     1       1.557   5.859  20.674  0.00  0.00    +0.000 A 
ATOM     12  C   UNL     1       1.469   4.468  20.684  0.00  0.00    +0.000 A 
ATOM     13  C   UNL     1       1.868   3.743  19.568  0.00  0.00    +0.000 A 
ATOM     14  C   UNL     1       2.312   4.409  18.425  0.00  0.00    +0.000 A 
ATOM     15  C   UNL     1       2.422   5.804  18.430  0.00  0.00    +0.000 A 
BRANCH  14  16
ATOM     16  O   UNL     1       2.676   3.792  17.260  0.00  0.00    +0.000 OA
BRANCH  16  17
ATOM     17  C   UNL     1       3.872   3.015  17.339  0.00  0.00    +0.000 C 
BRANCH  17  18
ATOM     18  C   UNL     1       5.025   3.890  16.929  0.00  0.00    +0.000 A 
ATOM     19  C   UNL     1       5.194   4.279  15.595  0.00  0.00    +0.000 A 
ATOM     20  C   UNL     1       6.278   5.075  15.231  0.00  0.00    +0.000 A 
ATOM     21  C   UNL     1       7.201   5.484  16.193  0.00  0.00    +0.000 A 
ATOM     22  C   UNL     1       7.044   5.095  17.522  0.00  0.00    +0.000 A 
ATOM     23  C   UNL     1       5.962   4.298  17.889  0.00  0.00    +0.000 A 
ENDBRANCH  17  18
ENDBRANCH  16  17
ENDBRANCH  14  16
ENDBRANCH   6  10
BRANCH   8  24
ATOM     24  N   UNL     1      -0.432  11.864  19.856  0.00  0.00    +0.000 N 
ATOM     25  H   UNL     1      -0.370  12.717  20.406  0.00  0.00    +0.000 HD
BRANCH  24  26
ATOM     26  C   UNL     1      -1.417  11.738  18.933  0.00  0.00    +0.000 A 
ATOM     27  C   UNL     1      -2.786  11.836  19.026  0.00  0.00    +0.000 A 
ATOM     28  C   UNL     1      -3.252  11.336  17.790  0.00  0.00    +0.000 A 
ATOM     29  N   UNL     1      -2.266  11.099  16.922  0.00  0.00    +0.000 NA
ATOM     30  N   UNL     1      -1.166  11.385  17.633  0.00  0.00    +0.000 N 
ATOM     31  H   UNL     1      -0.249  11.245  17.224  0.00  0.00    +0.000 HD
BRANCH  28  32
ATOM     32  C   UNL     1      -4.708  10.999  17.509  0.00  0.00    +0.000 C 
ATOM     33  C   UNL     1      -5.794  11.538  18.416  0.00  0.00    +0.000 C 
ATOM     34  C   UNL     1      -5.602  12.149  17.071  0.00  0.00    +0.000 C 
ENDBRANCH  28  32
ENDBRANCH  24  26
ENDBRANCH   8  24
TORSDOF 7
ENDMDL
MODEL 4
REMARK VINA RESULT:      -8.1      4.783      8.863
REMARK  Name = 
REMARK  7 active torsions:
REMARK  status: ('A' for Active; 'I' for Inactive)
REMARK    1  A    between atoms: N_6  and  C_7
REMARK    2  A    between atoms: C_11  and  O_12
REMARK    3  A    between atoms: O_12  and  C_13
REMARK    4  A    between atoms: C_13  and  C_14
REMARK    5  A    between atoms: C_22  and  N_23
REMARK    6  A    between atoms: N_23  and  C_24
REMARK    7  A    between atoms: C_26  and  C_27
REMARK                            x       y       z     vdW  Elec       q    Type
REMARK                         _______ _______ _______ _____ _____    ______ ____
ROOT
ATOM      1 BR   UNL     1      -1.205  11.417  22.549  0.00  0.00    +0.000 Br
ATOM      2  C   UNL     1      -0.009  10.296  21.616  0.00  0.00    +0.000 A 
ATOM      3  C   UNL     1       0.563   9.221  22.250  0.00  0.00    +0.000 A 
ATOM      4  N   UNL     1       1.365   8.341  21.629  0.00  0.00    +0.000 NA
ATOM      5  C   UNL     1       1.608   8.535  20.325  0.00  0.00    +0.000 A 
ATOM      6  N   UNL     1       2.355   7.588  19.616  0.00  0.00    +0.000 N 
ATOM      7  N   UNL     1       1.120   9.572  19.630  0.00  0.00    +0.000 NA
ATOM      8  C   UNL     1       0.300  10.446  20.271  0.00  0.00    +0.000 A 
ATOM      9  H   UNL     1       2.368   7.848  18.638  0.00  0.00    +0.000 HD
ENDROOT
BRANCH   6  10
ATOM     10  C   UNL     1       2.255   6.189  19.795  0.00  0.00    +0.000 A 
ATOM     11  C   UNL     1       1.187   5.600  20.483  0.00  0.00    +0.000 A 
ATOM     12  C   UNL     1       1.124   4.220  20.669  0.00  0.00    +0.000 A 
ATOM     13  C   UNL     1       2.118   3.406  20.139  0.00  0.00    +0.000 A 
ATOM     14  C   UNL     1       3.150   3.966  19.385  0.00  0.00    +0.000 A 
ATOM     15  C   UNL     1       3.221   5.354  19.223  0.00  0.00    +0.000 A 
BRANCH  14  16
ATOM     16  O   UNL     1       4.144   3.248  18.778  0.00  0.00    +0.000 OA
BRANCH  16  17
ATOM     17  C   UNL     1       4.004   3.104  17.364  0.00  0.00    +0.000 C 
BRANCH  17  18
ATOM     18  C   UNL     1       5.144   3.831  16.705  0.00  0.00    +0.000 A 
ATOM     19  C   UNL     1       6.252   4.256  17.448  0.00  0.00    +0.000 A 
ATOM     20  C   UNL     1       7.291   4.945  16.823  0.00  0.00    +0.000 A 
ATOM     21  C   UNL     1       7.228   5.216  15.457  0.00  0.00    +0.000 A 
ATOM     22  C   UNL     1       6.126   4.802  14.712  0.00  0.00    +0.000 A 
ATOM     23  C   UNL     1       5.086   4.115  15.333  0.00  0.00    +0.000 A 
ENDBRANCH  17  18
ENDBRANCH  16  17
ENDBRANCH  14  16
ENDBRANCH   6  10
BRANCH   8  24
ATOM     24  N   UNL     1      -0.338  11.467  19.512  0.00  0.00    +0.000 N 
ATOM     25  H   UNL     1      -0.329  12.368  19.985  0.00  0.00    +0.000 HD
BRANCH  24  26
ATOM     26  C   UNL     1      -1.287  11.219  18.575  0.00  0.00    +0.000 A 
ATOM     27  C   UNL     1      -2.595  11.628  18.456  0.00  0.00    +0.000 A 
ATOM     28  C   UNL     1      -3.117  10.817  17.423  0.00  0.00    +0.000 A 
ATOM     29  N   UNL     1      -2.181  10.079  16.822  0.00  0.00    +0.000 NA
ATOM     30  N   UNL     1      -1.074  10.369  17.521  0.00  0.00    +0.000 N 
ATOM     31  H   UNL     1      -0.202   9.902  17.304  0.00  0.00    +0.000 HD
BRANCH  28  32
ATOM     32  C   UNL     1      -4.598  10.713  17.097  0.00  0.00    +0.000 C 
ATOM     33  C   UNL     1      -5.627  11.032  18.160  0.00  0.00    +0.000 C 
ATOM     34  C   UNL     1      -5.383  12.015  17.068  0.00  0.00    +0.000 C 
ENDBRANCH  28  32
ENDBRANCH  24  26
ENDBRANCH   8  24
TORSDOF 7
ENDMDL
MODEL 5
REMARK VINA RESULT:      -8.1      1.076      1.455
REMARK  Name = 
REMARK  7 active torsions:
REMARK  status: ('A' for Active; 'I' for Inactive)
REMARK    1  A    between atoms: N_6  and  C_7
REMARK    2  A    between atoms: C_11  and  O_12
REMARK    3  A    between atoms: O_12  and  C_13
REMARK    4  A    between atoms: C_13  and  C_14
REMARK    5  A    between atoms: C_22  and  N_23
REMARK    6  A    between atoms: N_23  and  C_24
REMARK    7  A    between atoms: C_26  and  C_27
REMARK                            x       y       z     vdW  Elec       q    Type
REMARK                         _______ _______ _______ _____ _____    ______ ____
ROOT
ATOM      1 BR   UNL     1       7.840   8.050  17.530  0.00  0.00    +0.000 Br
ATOM      2  C   UNL     1       6.940   6.425  17.860  0.00  0.00    +0.000 A 
ATOM      3  C   UNL     1       6.219   6.261  19.016  0.00  0.00    +0.000 A 
ATOM      4  N   UNL     1       5.497   5.161  19.285  0.00  0.00    +0.000 NA
ATOM      5  C   UNL     1       5.488   4.185  18.366  0.00  0.00    +0.000 A 
ATOM      6  N   UNL     1       4.670   3.066  18.558  0.00  0.00    +0.000 N 
ATOM      7  N   UNL     1       6.185   4.242  17.223  0.00  0.00    +0.000 NA
ATOM      8  C   UNL     1       6.901   5.367  16.961  0.00  0.00    +0.000 A 
ATOM      9  H   UNL     1       4.724   2.478  17.737  0.00  0.00    +0.000 HD
ENDROOT
BRANCH   6  10
ATOM     10  C   UNL     1       3.364   3.110  19.099  0.00  0.00    +0.000 A 
ATOM     11  C   UNL     1       2.546   1.976  19.162  0.00  0.00    +0.000 A 
ATOM     12  C   UNL     1       1.252   2.050  19.678  0.00  0.00    +0.000 A 
ATOM     13  C   UNL     1       0.773   3.258  20.168  0.00  0.00    +0.000 A 
ATOM     14  C   UNL     1       1.600   4.382  20.185  0.00  0.00    +0.000 A 
ATOM     15  C   UNL     1       2.888   4.308  19.643  0.00  0.00    +0.000 A 
BRANCH  14  16
ATOM     16  O   UNL     1       1.241   5.600  20.693  0.00  0.00    +0.000 OA
BRANCH  16  17
ATOM     17  C   UNL     1       2.297   6.561  20.754  0.00  0.00    +0.000 C 
BRANCH  17  18
ATOM     18  C   UNL     1       1.936   7.709  19.851  0.00  0.00    +0.000 A 
ATOM     19  C   UNL     1       2.389   7.754  18.527  0.00  0.00    +0.000 A 
ATOM     20  C   UNL     1       2.060   8.834  17.711  0.00  0.00    +0.000 A 
ATOM     21  C   UNL     1       1.280   9.877  18.211  0.00  0.00    +0.000 A 
ATOM     22  C   UNL     1       0.832   9.844  19.530  0.00  0.00    +0.000 A 
ATOM     23  C   UNL     1       1.160   8.766  20.348  0.00  0.00    +0.000 A 
ENDBRANCH  17  18
ENDBRANCH  16  17
ENDBRANCH  14  16
ENDBRANCH   6  10
BRANCH   8  24
ATOM     24  N   UNL     1       7.528   5.500  15.691  0.00  0.00    +0.000 N 
ATOM     25  H   UNL     1       8.153   6.301  15.647  0.00  0.00    +0.000 HD
BRANCH  24  26
ATOM     26  C   UNL     1       7.004   5.003  14.543  0.00  0.00    +0.000 A 
ATOM     27  C   UNL     1       5.877   4.255  14.292  0.00  0.00    +0.000 A 
ATOM     28  C   UNL     1       6.035   3.832  12.953  0.00  0.00    +0.000 A 
ATOM     29  N   UNL     1       7.084   4.398  12.352  0.00  0.00    +0.000 NA
ATOM     30  N   UNL     1       7.633   5.129  13.332  0.00  0.00    +0.000 N 
ATOM     31  H   UNL     1       8.492   5.640  13.162  0.00  0.00    +0.000 HD
BRANCH  28  32
ATOM     32  C   UNL     1       5.172   2.766  12.297  0.00  0.00    +0.000 C 
ATOM     33  C   UNL     1       4.736   2.933  10.857  0.00  0.00    +0.000 C 
ATOM     34  C   UNL     1       5.816   1.960  11.180  0.00  0.00    +0.000 C 
ENDBRANCH  28  32
ENDBRANCH  24  26
ENDBRANCH   8  24
TORSDOF 7
ENDMDL
MODEL 6
REMARK VINA RESULT:      -8.1      4.693      9.409
REMARK  Name = 
REMARK  7 active torsions:
REMARK  status: ('A' for Active; 'I' for Inactive)
REMARK    1  A    between atoms: N_6  and  C_7
REMARK    2  A    between atoms: C_11  and  O_12
REMARK    3  A    between atoms: O_12  and  C_13
REMARK    4  A    between atoms: C_13  and  C_14
REMARK    5  A    between atoms: C_22  and  N_23
REMARK    6  A    between atoms: N_23  and  C_24
REMARK    7  A    between atoms: C_26  and  C_27
REMARK                            x       y       z     vdW  Elec       q    Type
REMARK                         _______ _______ _______ _____ _____    ______ ____
ROOT
ATOM      1 BR   UNL     1      -0.517   9.823  22.354  0.00  0.00    +0.000 Br
ATOM      2  C   UNL     1       0.621   9.160  21.004  0.00  0.00    +0.000 A 
ATOM      3  C   UNL     1       1.340   8.010  21.215  0.00  0.00    +0.000 A 
ATOM      4  N   UNL     1       2.113   7.442  20.275  0.00  0.00    +0.000 NA
ATOM      5  C   UNL     1       2.172   8.038  19.076  0.00  0.00    +0.000 A 
ATOM      6  N   UNL     1       2.883   7.426  18.038  0.00  0.00    +0.000 N 
ATOM      7  N   UNL     1       1.530   9.178  18.787  0.00  0.00    +0.000 NA
ATOM      8  C   UNL     1       0.743   9.734  19.745  0.00  0.00    +0.000 A 
ATOM      9  H   UNL     1       2.753   7.965  17.191  0.00  0.00    +0.000 HD
ENDROOT
BRANCH   6  10
ATOM     10  C   UNL     1       2.902   6.034  17.788  0.00  0.00    +0.000 A 
ATOM     11  C   UNL     1       1.779   5.225  17.998  0.00  0.00    +0.000 A 
ATOM     12  C   UNL     1       1.830   3.851  17.769  0.00  0.00    +0.000 A 
ATOM     13  C   UNL     1       3.001   3.273  17.295  0.00  0.00    +0.000 A 
ATOM     14  C   UNL     1       4.107   4.073  17.006  0.00  0.00    +0.000 A 
ATOM     15  C   UNL     1       4.058   5.448  17.262  0.00  0.00    +0.000 A 
BRANCH  14  16
ATOM     16  O   UNL     1       5.285   3.610  16.487  0.00  0.00    +0.000 OA
BRANCH  16  17
ATOM     17  C   UNL     1       6.214   4.625  16.105  0.00  0.00    +0.000 C 
BRANCH  17  18
ATOM     18  C   UNL     1       6.483   4.481  14.632  0.00  0.00    +0.000 A 
ATOM     19  C   UNL     1       5.757   3.573  13.853  0.00  0.00    +0.000 A 
ATOM     20  C   UNL     1       6.032   3.441  12.493  0.00  0.00    +0.000 A 
ATOM     21  C   UNL     1       7.035   4.211  11.904  0.00  0.00    +0.000 A 
ATOM     22  C   UNL     1       7.768   5.113  12.674  0.00  0.00    +0.000 A 
ATOM     23  C   UNL     1       7.495   5.246  14.034  0.00  0.00    +0.000 A 
ENDBRANCH  17  18
ENDBRANCH  16  17
ENDBRANCH  14  16
ENDBRANCH   6  10
BRANCH   8  24
ATOM     24  N   UNL     1      -0.056  10.862  19.406  0.00  0.00    +0.000 N 
ATOM     25  H   UNL     1      -0.888  10.606  18.880  0.00  0.00    +0.000 HD
BRANCH  24  26
ATOM     26  C   UNL     1       0.437  12.121  19.298  0.00  0.00    +0.000 A 
ATOM     27  C   UNL     1       0.179  13.275  20.001  0.00  0.00    +0.000 A 
ATOM     28  C   UNL     1       0.798  14.289  19.236  0.00  0.00    +0.000 A 
ATOM     29  N   UNL     1       1.528  13.805  18.228  0.00  0.00    +0.000 NA
ATOM     30  N   UNL     1       1.316  12.484  18.312  0.00  0.00    +0.000 N 
ATOM     31  H   UNL     1       1.723  11.862  17.623  0.00  0.00    +0.000 HD
BRANCH  28  32
ATOM     32  C   UNL     1       0.574  15.776  19.465  0.00  0.00    +0.000 C 
ATOM     33  C   UNL     1       1.070  16.778  18.445  0.00  0.00    +0.000 C 
ATOM     34  C   UNL     1      -0.386  16.475  18.516  0.00  0.00    +0.000 C 
ENDBRANCH  28  32
ENDBRANCH  24  26
ENDBRANCH   8  24
TORSDOF 7
ENDMDL
MODEL 7
REMARK VINA RESULT:      -7.8      4.143      6.054
REMARK  Name = 
REMARK  7 active torsions:
REMARK  status: ('A' for Active; 'I' for Inactive)
REMARK    1  A    between atoms: N_6  and  C_7
REMARK    2  A    between atoms: C_11  and  O_12
REMARK    3  A    between atoms: O_12  and  C_13
REMARK    4  A    between atoms: C_13  and  C_14
REMARK    5  A    between atoms: C_22  and  N_23
REMARK    6  A    between atoms: N_23  and  C_24
REMARK    7  A    between atoms: C_26  and  C_27
REMARK                            x       y       z     vdW  Elec       q    Type
REMARK                         _______ _______ _______ _____ _____    ______ ____
ROOT
ATOM      1 BR   UNL     1       4.184   3.688  18.459  0.00  0.00    +0.000 Br
ATOM      2  C   UNL     1       3.439   5.385  18.110  0.00  0.00    +0.000 A 
ATOM      3  C   UNL     1       2.128   5.638  18.426  0.00  0.00    +0.000 A 
ATOM      4  N   UNL     1       1.551   6.841  18.272  0.00  0.00    +0.000 NA
ATOM      5  C   UNL     1       2.309   7.834  17.786  0.00  0.00    +0.000 A 
ATOM      6  N   UNL     1       1.780   9.127  17.705  0.00  0.00    +0.000 N 
ATOM      7  N   UNL     1       3.589   7.675  17.421  0.00  0.00    +0.000 NA
ATOM      8  C   UNL     1       4.160   6.454  17.595  0.00  0.00    +0.000 A 
ATOM      9  H   UNL     1       2.508   9.759  17.399  0.00  0.00    +0.000 HD
ENDROOT
BRANCH   6  10
ATOM     10  C   UNL     1       0.937   9.713  18.678  0.00  0.00    +0.000 A 
ATOM     11  C   UNL     1       1.339   9.878  20.009  0.00  0.00    +0.000 A 
ATOM     12  C   UNL     1       0.481  10.434  20.956  0.00  0.00    +0.000 A 
ATOM     13  C   UNL     1      -0.784  10.864  20.573  0.00  0.00    +0.000 A 
ATOM     14  C   UNL     1      -1.175  10.780  19.236  0.00  0.00    +0.000 A 
ATOM     15  C   UNL     1      -0.318  10.196  18.296  0.00  0.00    +0.000 A 
BRANCH  14  16
ATOM     16  O   UNL     1      -2.374  11.222  18.750  0.00  0.00    +0.000 OA
BRANCH  16  17
ATOM     17  C   UNL     1      -2.985  12.263  19.513  0.00  0.00    +0.000 C 
BRANCH  17  18
ATOM     18  C   UNL     1      -4.477  12.111  19.400  0.00  0.00    +0.000 A 
ATOM     19  C   UNL     1      -5.065  11.626  18.226  0.00  0.00    +0.000 A 
ATOM     20  C   UNL     1      -6.451  11.509  18.133  0.00  0.00    +0.000 A 
ATOM     21  C   UNL     1      -7.258  11.878  19.209  0.00  0.00    +0.000 A 
ATOM     22  C   UNL     1      -6.681  12.369  20.379  0.00  0.00    +0.000 A 
ATOM     23  C   UNL     1      -5.297  12.488  20.474  0.00  0.00    +0.000 A 
ENDBRANCH  17  18
ENDBRANCH  16  17
ENDBRANCH  14  16
ENDBRANCH   6  10
BRANCH   8  24
ATOM     24  N   UNL     1       5.554   6.308  17.346  0.00  0.00    +0.000 N 
ATOM     25  H   UNL     1       6.116   6.958  17.890  0.00  0.00    +0.000 HD
BRANCH  24  26
ATOM     26  C   UNL     1       6.058   5.793  16.198  0.00  0.00    +0.000 A 
ATOM     27  C   UNL     1       5.486   5.053  15.189  0.00  0.00    +0.000 A 
ATOM     28  C   UNL     1       6.587   4.601  14.427  0.00  0.00    +0.000 A 
ATOM     29  N   UNL     1       7.743   5.144  14.815  0.00  0.00    +0.000 NA
ATOM     30  N   UNL     1       7.386   5.889  15.871  0.00  0.00    +0.000 N 
ATOM     31  H   UNL     1       8.091   6.387  16.400  0.00  0.00    +0.000 HD
BRANCH  28  32
ATOM     32  C   UNL     1       6.487   3.531  13.352  0.00  0.00    +0.000 C 
ATOM     33  C   UNL     1       5.444   3.654  12.262  0.00  0.00    +0.000 C 
ATOM     34  C   UNL     1       6.868   3.947  11.939  0.00  0.00    +0.000 C 
ENDBRANCH  28  32
ENDBRANCH  24  26
ENDBRANCH   8  24
TORSDOF 7
ENDMDL
MODEL 8
REMARK VINA RESULT:      -7.8      1.123      1.422
REMARK  Name = 
REMARK  7 active torsions:
REMARK  status: ('A' for Active; 'I' for Inactive)
REMARK    1  A    between atoms: N_6  and  C_7
REMARK    2  A    between atoms: C_11  and  O_12
REMARK    3  A    between atoms: O_12  and  C_13
REMARK    4  A    between atoms: C_13  and  C_14
REMARK    5  A    between atoms: C_22  and  N_23
REMARK    6  A    between atoms: N_23  and  C_24
REMARK    7  A    between atoms: C_26  and  C_27
REMARK                            x       y       z     vdW  Elec       q    Type
REMARK                         _______ _______ _______ _____ _____    ______ ____
ROOT
ATOM      1 BR   UNL     1       8.053   8.049  17.639  0.00  0.00    +0.000 Br
ATOM      2  C   UNL     1       7.110   6.460  18.015  0.00  0.00    +0.000 A 
ATOM      3  C   UNL     1       6.411   6.337  19.190  0.00  0.00    +0.000 A 
ATOM      4  N   UNL     1       5.660   5.266  19.492  0.00  0.00    +0.000 NA
ATOM      5  C   UNL     1       5.599   4.276  18.590  0.00  0.00    +0.000 A 
ATOM      6  N   UNL     1       4.749   3.188  18.818  0.00  0.00    +0.000 N 
ATOM      7  N   UNL     1       6.270   4.293  17.430  0.00  0.00    +0.000 NA
ATOM      8  C   UNL     1       7.016   5.390  17.135  0.00  0.00    +0.000 A 
ATOM      9  H   UNL     1       4.766   2.586  18.005  0.00  0.00    +0.000 HD
ENDROOT
BRANCH   6  10
ATOM     10  C   UNL     1       3.459   3.283  19.388  0.00  0.00    +0.000 A 
ATOM     11  C   UNL     1       2.644   2.160  19.577  0.00  0.00    +0.000 A 
ATOM     12  C   UNL     1       1.365   2.282  20.118  0.00  0.00    +0.000 A 
ATOM     13  C   UNL     1       0.897   3.531  20.508  0.00  0.00    +0.000 A 
ATOM     14  C   UNL     1       1.723   4.651  20.401  0.00  0.00    +0.000 A 
ATOM     15  C   UNL     1       2.996   4.525  19.833  0.00  0.00    +0.000 A 
BRANCH  14  16
ATOM     16  O   UNL     1       1.377   5.911  20.805  0.00  0.00    +0.000 OA
BRANCH  16  17
ATOM     17  C   UNL     1       2.240   6.949  20.341  0.00  0.00    +0.000 C 
BRANCH  17  18
ATOM     18  C   UNL     1       1.443   8.223  20.270  0.00  0.00    +0.000 A 
ATOM     19  C   UNL     1       0.732   8.690  21.382  0.00  0.00    +0.000 A 
ATOM     20  C   UNL     1      -0.016   9.863  21.292  0.00  0.00    +0.000 A 
ATOM     21  C   UNL     1      -0.062  10.573  20.093  0.00  0.00    +0.000 A 
ATOM     22  C   UNL     1       0.637  10.111  18.979  0.00  0.00    +0.000 A 
ATOM     23  C   UNL     1       1.384   8.939  19.066  0.00  0.00    +0.000 A 
ENDBRANCH  17  18
ENDBRANCH  16  17
ENDBRANCH  14  16
ENDBRANCH   6  10
BRANCH   8  24
ATOM     24  N   UNL     1       7.618   5.483  15.848  0.00  0.00    +0.000 N 
ATOM     25  H   UNL     1       8.314   6.223  15.796  0.00  0.00    +0.000 HD
BRANCH  24  26
ATOM     26  C   UNL     1       7.017   5.056  14.710  0.00  0.00    +0.000 A 
ATOM     27  C   UNL     1       5.851   4.359  14.488  0.00  0.00    +0.000 A 
ATOM     28  C   UNL     1       5.925   3.990  13.126  0.00  0.00    +0.000 A 
ATOM     29  N   UNL     1       6.962   4.546  12.494  0.00  0.00    +0.000 NA
ATOM     30  N   UNL     1       7.587   5.214  13.474  0.00  0.00    +0.000 N 
ATOM     31  H   UNL     1       8.454   5.701  13.280  0.00  0.00    +0.000 HD
BRANCH  28  32
ATOM     32  C   UNL     1       4.991   2.985  12.471  0.00  0.00    +0.000 C 
ATOM     33  C   UNL     1       4.578   3.171  11.027  0.00  0.00    +0.000 C 
ATOM     34  C   UNL     1       5.582   2.124  11.366  0.00  0.00    +0.000 C 
ENDBRANCH  28  32
ENDBRANCH  24  26
ENDBRANCH   8  24
TORSDOF 7
ENDMDL
MODEL 9
REMARK VINA RESULT:      -7.6      3.332      5.010
REMARK  Name = 
REMARK  7 active torsions:
REMARK  status: ('A' for Active; 'I' for Inactive)
REMARK    1  A    between atoms: N_6  and  C_7
REMARK    2  A    between atoms: C_11  and  O_12
REMARK    3  A    between atoms: O_12  and  C_13
REMARK    4  A    between atoms: C_13  and  C_14
REMARK    5  A    between atoms: C_22  and  N_23
REMARK    6  A    between atoms: N_23  and  C_24
REMARK    7  A    between atoms: C_26  and  C_27
REMARK                            x       y       z     vdW  Elec       q    Type
REMARK                         _______ _______ _______ _____ _____    ______ ____
ROOT
ATOM      1 BR   UNL     1       3.777   1.706  18.552  0.00  0.00    +0.000 Br
ATOM      2  C   UNL     1       3.331   3.522  18.304  0.00  0.00    +0.000 A 
ATOM      3  C   UNL     1       2.141   4.009  18.785  0.00  0.00    +0.000 A 
ATOM      4  N   UNL     1       1.790   5.303  18.708  0.00  0.00    +0.000 NA
ATOM      5  C   UNL     1       2.657   6.149  18.133  0.00  0.00    +0.000 A 
ATOM      6  N   UNL     1       2.378   7.520  18.122  0.00  0.00    +0.000 N 
ATOM      7  N   UNL     1       3.828   5.761  17.608  0.00  0.00    +0.000 NA
ATOM      8  C   UNL     1       4.173   4.450  17.705  0.00  0.00    +0.000 A 
ATOM      9  H   UNL     1       3.170   8.011  17.728  0.00  0.00    +0.000 HD
ENDROOT
BRANCH   6  10
ATOM     10  C   UNL     1       1.789   8.227  19.195  0.00  0.00    +0.000 A 
ATOM     11  C   UNL     1       1.831   7.753  20.512  0.00  0.00    +0.000 A 
ATOM     12  C   UNL     1       1.221   8.456  21.550  0.00  0.00    +0.000 A 
ATOM     13  C   UNL     1       0.587   9.665  21.286  0.00  0.00    +0.000 A 
ATOM     14  C   UNL     1       0.601  10.192  19.994  0.00  0.00    +0.000 A 
ATOM     15  C   UNL     1       1.193   9.469  18.952  0.00  0.00    +0.000 A 
BRANCH  14  16
ATOM     16  O   UNL     1       0.053  11.395  19.642  0.00  0.00    +0.000 OA
BRANCH  16  17
ATOM     17  C   UNL     1      -1.335  11.348  19.306  0.00  0.00    +0.000 C 
BRANCH  17  18
ATOM     18  C   UNL     1      -2.076  12.250  20.255  0.00  0.00    +0.000 A 
ATOM     19  C   UNL     1      -1.466  12.724  21.423  0.00  0.00    +0.000 A 
ATOM     20  C   UNL     1      -2.175  13.544  22.299  0.00  0.00    +0.000 A 
ATOM     21  C   UNL     1      -3.495  13.894  22.017  0.00  0.00    +0.000 A 
ATOM     22  C   UNL     1      -4.112  13.421  20.860  0.00  0.00    +0.000 A 
ATOM     23  C   UNL     1      -3.406  12.600  19.983  0.00  0.00    +0.000 A 
ENDBRANCH  17  18
ENDBRANCH  16  17
ENDBRANCH  14  16
ENDBRANCH   6  10
BRANCH   8  24
ATOM     24  N   UNL     1       5.472   4.050  17.282  0.00  0.00    +0.000 N 
ATOM     25  H   UNL     1       6.105   3.896  18.063  0.00  0.00    +0.000 HD
BRANCH  24  26
ATOM     26  C   UNL     1       5.983   4.343  16.060  0.00  0.00    +0.000 A 
ATOM     27  C   UNL     1       5.448   4.267  14.795  0.00  0.00    +0.000 A 
ATOM     28  C   UNL     1       6.559   4.445  13.940  0.00  0.00    +0.000 A 
ATOM     29  N   UNL     1       7.672   4.774  14.600  0.00  0.00    +0.000 NA
ATOM     30  N   UNL     1       7.283   4.737  15.882  0.00  0.00    +0.000 N 
ATOM     31  H   UNL     1       7.957   4.904  16.620  0.00  0.00    +0.000 HD
BRANCH  28  32
ATOM     32  C   UNL     1       6.522   4.187  12.442  0.00  0.00    +0.000 C 
ATOM     33  C   UNL     1       7.175   2.945  11.876  0.00  0.00    +0.000 C 
ATOM     34  C   UNL     1       5.690   3.004  11.974  0.00  0.00    +0.000 C 
ENDBRANCH  28  32
ENDBRANCH  24  26
ENDBRANCH   8  24
TORSDOF 7
ENDMDL
