MODEL 1
REMARK VINA RESULT:      -7.2      0.000      0.000
REMARK  Name = 
REMARK  6 active torsions:
REMARK  status: ('A' for Active; 'I' for Inactive)
REMARK    1  A    between atoms: N_1  and  C_2
REMARK    2  A    between atoms: C_3  and  N_4
REMARK    3  A    between atoms: N_4  and  C_5
REMARK    4  A    between atoms: C_5  and  C_6
REMARK    5  A    between atoms: C_6  and  C_7
REMARK    6  A    between atoms: C_7  and  N_8
REMARK                            x       y       z     vdW  Elec       q    Type
REMARK                         _______ _______ _______ _____ _____    ______ ____
ROOT
ATOM      1  C   UNL     1       5.967   5.275  17.584  0.00  0.00    +0.000 A 
ATOM      2  C   UNL     1       5.252   4.614  16.644  0.00  0.00    +0.000 A 
ATOM      3  C   UNL     1       5.829   4.517  15.275  0.00  0.00    +0.000 A 
ATOM      4  C   UNL     1       5.275   3.731  14.249  0.00  0.00    +0.000 A 
ATOM      5  C   UNL     1       5.889   3.632  12.992  0.00  0.00    +0.000 A 
ATOM      6  C   UNL     1       7.058   4.337  12.724  0.00  0.00    +0.000 A 
ATOM      7  C   UNL     1       7.612   5.139  13.714  0.00  0.00    +0.000 A 
ATOM      8  C   UNL     1       6.999   5.208  14.970  0.00  0.00    +0.000 A 
ATOM      9  O   UNL     1       7.646   6.016  15.908  0.00  0.00    +0.000 OA
ATOM     10  C   UNL     1       7.201   6.059  17.209  0.00  0.00    +0.000 A 
ATOM     11  O   UNL     1       7.768   6.750  18.056  0.00  0.00    +0.000 OA
ENDROOT
BRANCH   1  12
ATOM     12  N   UNL     1       5.684   5.311  18.956  0.00  0.00    +0.000 N 
ATOM     13  H   UNL     1       5.102   4.547  19.262  0.00  0.00    +0.000 HD
ATOM     14  H   UNL     1       5.283   6.220  19.207  0.00  0.00    +0.000 HD
ENDBRANCH   1  12
BRANCH   2  15
ATOM     15  N   UNL     1       4.039   3.925  16.830  0.00  0.00    +0.000 N 
ATOM     16  H   UNL     1       3.485   3.991  15.977  0.00  0.00    +0.000 HD
BRANCH  15  17
ATOM     17  C   UNL     1       3.829   2.666  17.536  0.00  0.00    +0.000 C 
BRANCH  17  18
ATOM     18  C   UNL     1       2.336   2.377  17.762  0.00  0.00    +0.000 C 
BRANCH  18  19
ATOM     19  C   UNL     1       1.540   3.656  18.028  0.00  0.00    +0.000 C 
BRANCH  19  20
ATOM     20  N   UNL     1       1.131   3.927  19.397  0.00  0.00    +0.000 NA
ATOM     21  C   UNL     1       1.814   5.004  20.112  0.00  0.00    +0.000 C 
ATOM     22  C   UNL     1       2.816   4.515  21.165  0.00  0.00    +0.000 C 
ATOM     23  O   UNL     1       2.186   3.613  22.082  0.00  0.00    +0.000 OA
ATOM     24  C   UNL     1       1.723   2.452  21.384  0.00  0.00    +0.000 C 
ATOM     25  C   UNL     1       0.750   2.798  20.243  0.00  0.00    +0.000 C 
ENDBRANCH  19  20
ENDBRANCH  18  19
ENDBRANCH  17  18
ENDBRANCH  15  17
ENDBRANCH   2  15
TORSDOF 6
ENDMDL
MODEL 2
REMARK VINA RESULT:      -7.0      1.475      2.017
REMARK  Name = 
REMARK  6 active torsions:
REMARK  status: ('A' for Active; 'I' for Inactive)
REMARK    1  A    between atoms: N_1  and  C_2
REMARK    2  A    between atoms: C_3  and  N_4
REMARK    3  A    between atoms: N_4  and  C_5
REMARK    4  A    between atoms: C_5  and  C_6
REMARK    5  A    between atoms: C_6  and  C_7
REMARK    6  A    between atoms: C_7  and  N_8
REMARK                            x       y       z     vdW  Elec       q    Type
REMARK                         _______ _______ _______ _____ _____    ______ ____
ROOT
ATOM      1  C   UNL     1       7.284   5.627  18.728  0.00  0.00    +0.000 A 
ATOM      2  C   UNL     1       6.540   4.646  18.166  0.00  0.00    +0.000 A 
ATOM      3  C   UNL     1       6.448   4.610  16.681  0.00  0.00    +0.000 A 
ATOM      4  C   UNL     1       5.844   3.563  15.962  0.00  0.00    +0.000 A 
ATOM      5  C   UNL     1       5.833   3.551  14.560  0.00  0.00    +0.000 A 
ATOM      6  C   UNL     1       6.401   4.600  13.844  0.00  0.00    +0.000 A 
ATOM      7  C   UNL     1       6.983   5.658  14.532  0.00  0.00    +0.000 A 
ATOM      8  C   UNL     1       7.006   5.642  15.930  0.00  0.00    +0.000 A 
ATOM      9  O   UNL     1       7.639   6.733  16.531  0.00  0.00    +0.000 OA
ATOM     10  C   UNL     1       7.830   6.760  17.893  0.00  0.00    +0.000 A 
ATOM     11  O   UNL     1       8.400   7.704  18.440  0.00  0.00    +0.000 OA
ENDROOT
BRANCH   1  12
ATOM     12  N   UNL     1       7.640   5.716  20.081  0.00  0.00    +0.000 N 
ATOM     13  H   UNL     1       8.125   6.569  20.308  0.00  0.00    +0.000 HD
ATOM     14  H   UNL     1       8.177   4.888  20.356  0.00  0.00    +0.000 HD
ENDBRANCH   1  12
BRANCH   2  15
ATOM     15  N   UNL     1       5.893   3.587  18.829  0.00  0.00    +0.000 N 
ATOM     16  H   UNL     1       6.578   3.073  19.382  0.00  0.00    +0.000 HD
BRANCH  15  17
ATOM     17  C   UNL     1       4.572   3.599  19.449  0.00  0.00    +0.000 C 
BRANCH  17  18
ATOM     18  C   UNL     1       4.090   5.028  19.746  0.00  0.00    +0.000 C 
BRANCH  18  19
ATOM     19  C   UNL     1       2.948   5.451  18.819  0.00  0.00    +0.000 C 
BRANCH  19  20
ATOM     20  N   UNL     1       1.653   4.816  19.005  0.00  0.00    +0.000 NA
ATOM     21  C   UNL     1       1.181   4.615  20.374  0.00  0.00    +0.000 C 
ATOM     22  C   UNL     1       1.270   3.162  20.857  0.00  0.00    +0.000 C 
ATOM     23  O   UNL     1       0.591   2.286  19.950  0.00  0.00    +0.000 OA
ATOM     24  C   UNL     1       1.219   2.331  18.666  0.00  0.00    +0.000 C 
ATOM     25  C   UNL     1       1.264   3.754  18.080  0.00  0.00    +0.000 C 
ENDBRANCH  19  20
ENDBRANCH  18  19
ENDBRANCH  17  18
ENDBRANCH  15  17
ENDBRANCH   2  15
TORSDOF 6
ENDMDL
MODEL 3
REMARK VINA RESULT:      -7.0      4.027      6.250
REMARK  Name = 
REMARK  6 active torsions:
REMARK  status: ('A' for Active; 'I' for Inactive)
REMARK    1  A    between atoms: N_1  and  C_2
REMARK    2  A    between atoms: C_3  and  N_4
REMARK    3  A    between atoms: N_4  and  C_5
REMARK    4  A    between atoms: C_5  and  C_6
REMARK    5  A    between atoms: C_6  and  C_7
REMARK    6  A    between atoms: C_7  and  N_8
REMARK                            x       y       z     vdW  Elec       q    Type
REMARK                         _______ _______ _______ _____ _____    ______ ____
ROOT
ATOM      1  C   UNL     1       4.801   5.568  18.169  0.00  0.00    +0.000 A 
ATOM      2  C   UNL     1       3.467   5.562  18.398  0.00  0.00    +0.000 A 
ATOM      3  C   UNL     1       2.929   4.536  19.334  0.00  0.00    +0.000 A 
ATOM      4  C   UNL     1       1.597   4.512  19.783  0.00  0.00    +0.000 A 
ATOM      5  C   UNL     1       1.155   3.555  20.708  0.00  0.00    +0.000 A 
ATOM      6  C   UNL     1       2.028   2.582  21.184  0.00  0.00    +0.000 A 
ATOM      7  C   UNL     1       3.343   2.571  20.737  0.00  0.00    +0.000 A 
ATOM      8  C   UNL     1       3.774   3.547  19.832  0.00  0.00    +0.000 A 
ATOM      9  O   UNL     1       5.120   3.471  19.464  0.00  0.00    +0.000 OA
ATOM     10  C   UNL     1       5.680   4.452  18.679  0.00  0.00    +0.000 A 
ATOM     11  O   UNL     1       6.868   4.413  18.358  0.00  0.00    +0.000 OA
ENDROOT
BRANCH   1  12
ATOM     12  N   UNL     1       5.511   6.559  17.477  0.00  0.00    +0.000 N 
ATOM     13  H   UNL     1       5.674   7.387  18.028  0.00  0.00    +0.000 HD
ATOM     14  H   UNL     1       5.039   6.776  16.594  0.00  0.00    +0.000 HD
ENDBRANCH   1  12
BRANCH   2  15
ATOM     15  N   UNL     1       2.518   6.478  17.909  0.00  0.00    +0.000 N 
ATOM     16  H   UNL     1       1.623   6.003  17.797  0.00  0.00    +0.000 HD
BRANCH  15  17
ATOM     17  C   UNL     1       2.363   7.881  18.277  0.00  0.00    +0.000 C 
BRANCH  17  18
ATOM     18  C   UNL     1       1.970   8.046  19.754  0.00  0.00    +0.000 C 
BRANCH  18  19
ATOM     19  C   UNL     1       0.960   9.178  19.955  0.00  0.00    +0.000 C 
BRANCH  19  20
ATOM     20  N   UNL     1       1.100  10.008  21.141  0.00  0.00    +0.000 NA
ATOM     21  C   UNL     1       0.979   9.361  22.446  0.00  0.00    +0.000 C 
ATOM     22  C   UNL     1      -0.347   9.645  23.162  0.00  0.00    +0.000 C 
ATOM     23  O   UNL     1      -0.572  11.055  23.269  0.00  0.00    +0.000 OA
ATOM     24  C   UNL     1      -0.678  11.633  21.964  0.00  0.00    +0.000 C 
ATOM     25  C   UNL     1       0.568  11.369  21.099  0.00  0.00    +0.000 C 
ENDBRANCH  19  20
ENDBRANCH  18  19
ENDBRANCH  17  18
ENDBRANCH  15  17
ENDBRANCH   2  15
TORSDOF 6
ENDMDL
MODEL 4
REMARK VINA RESULT:      -7.0      1.119      1.359
REMARK  Name = 
REMARK  6 active torsions:
REMARK  status: ('A' for Active; 'I' for Inactive)
REMARK    1  A    between atoms: N_1  and  C_2
REMARK    2  A    between atoms: C_3  and  N_4
REMARK    3  A    between atoms: N_4  and  C_5
REMARK    4  A    between atoms: C_5  and  C_6
REMARK    5  A    between atoms: C_6  and  C_7
REMARK    6  A    between atoms: C_7  and  N_8
REMARK                            x       y       z     vdW  Elec       q    Type
REMARK                         _______ _______ _______ _____ _____    ______ ____
ROOT
ATOM      1  C   UNL     1       6.423   5.131  18.150  0.00  0.00    +0.000 A 
ATOM      2  C   UNL     1       5.706   4.358  17.300  0.00  0.00    +0.000 A 
ATOM      3  C   UNL     1       6.066   4.399  15.856  0.00  0.00    +0.000 A 
ATOM      4  C   UNL     1       5.515   3.537  14.891  0.00  0.00    +0.000 A 
ATOM      5  C   UNL     1       5.929   3.581  13.552  0.00  0.00    +0.000 A 
ATOM      6  C   UNL     1       6.884   4.506  13.141  0.00  0.00    +0.000 A 
ATOM      7  C   UNL     1       7.426   5.383  14.071  0.00  0.00    +0.000 A 
ATOM      8  C   UNL     1       7.019   5.311  15.408  0.00  0.00    +0.000 A 
ATOM      9  O   UNL     1       7.641   6.213  16.274  0.00  0.00    +0.000 OA
ATOM     10  C   UNL     1       7.410   6.147  17.628  0.00  0.00    +0.000 A 
ATOM     11  O   UNL     1       7.962   6.922  18.410  0.00  0.00    +0.000 OA
ENDROOT
BRANCH   1  12
ATOM     12  N   UNL     1       6.361   5.088  19.550  0.00  0.00    +0.000 N 
ATOM     13  H   UNL     1       5.424   5.187  19.908  0.00  0.00    +0.000 HD
ATOM     14  H   UNL     1       6.997   5.785  19.950  0.00  0.00    +0.000 HD
ENDBRANCH   1  12
BRANCH   2  15
ATOM     15  N   UNL     1       4.693   3.443  17.637  0.00  0.00    +0.000 N 
ATOM     16  H   UNL     1       4.500   2.848  16.832  0.00  0.00    +0.000 HD
BRANCH  15  17
ATOM     17  C   UNL     1       4.510   2.743  18.904  0.00  0.00    +0.000 C 
BRANCH  17  18
ATOM     18  C   UNL     1       3.193   1.950  18.937  0.00  0.00    +0.000 C 
BRANCH  18  19
ATOM     19  C   UNL     1       2.122   2.583  18.046  0.00  0.00    +0.000 C 
BRANCH  19  20
ATOM     20  N   UNL     1       1.409   3.741  18.561  0.00  0.00    +0.000 NA
ATOM     21  C   UNL     1       1.745   5.052  18.008  0.00  0.00    +0.000 C 
ATOM     22  C   UNL     1       2.584   5.928  18.945  0.00  0.00    +0.000 C 
ATOM     23  O   UNL     1       1.945   6.062  20.220  0.00  0.00    +0.000 OA
ATOM     24  C   UNL     1       1.832   4.780  20.846  0.00  0.00    +0.000 C 
ATOM     25  C   UNL     1       1.062   3.766  19.981  0.00  0.00    +0.000 C 
ENDBRANCH  19  20
ENDBRANCH  18  19
ENDBRANCH  17  18
ENDBRANCH  15  17
ENDBRANCH   2  15
TORSDOF 6
ENDMDL
MODEL 5
REMARK VINA RESULT:      -6.9      1.142      1.309
REMARK  Name = 
REMARK  6 active torsions:
REMARK  status: ('A' for Active; 'I' for Inactive)
REMARK    1  A    between atoms: N_1  and  C_2
REMARK    2  A    between atoms: C_3  and  N_4
REMARK    3  A    between atoms: N_4  and  C_5
REMARK    4  A    between atoms: C_5  and  C_6
REMARK    5  A    between atoms: C_6  and  C_7
REMARK    6  A    between atoms: C_7  and  N_8
REMARK                            x       y       z     vdW  Elec       q    Type
REMARK                         _______ _______ _______ _____ _____    ______ ____
ROOT
ATOM      1  C   UNL     1       7.111   5.561  18.592  0.00  0.00    +0.000 A 
ATOM      2  C   UNL     1       6.397   4.598  17.962  0.00  0.00    +0.000 A 
ATOM      3  C   UNL     1       6.434   4.569  16.474  0.00  0.00    +0.000 A 
ATOM      4  C   UNL     1       5.872   3.539  15.700  0.00  0.00    +0.000 A 
ATOM      5  C   UNL     1       5.982   3.532  14.302  0.00  0.00    +0.000 A 
ATOM      6  C   UNL     1       6.634   4.570  13.644  0.00  0.00    +0.000 A 
ATOM      7  C   UNL     1       7.177   5.612  14.385  0.00  0.00    +0.000 A 
ATOM      8  C   UNL     1       7.079   5.591  15.781  0.00  0.00    +0.000 A 
ATOM      9  O   UNL     1       7.681   6.665  16.440  0.00  0.00    +0.000 OA
ATOM     10  C   UNL     1       7.753   6.683  17.813  0.00  0.00    +0.000 A 
ATOM     11  O   UNL     1       8.295   7.612  18.413  0.00  0.00    +0.000 OA
ENDROOT
BRANCH   1  12
ATOM     12  N   UNL     1       7.351   5.636  19.971  0.00  0.00    +0.000 N 
ATOM     13  H   UNL     1       7.209   6.560  20.348  0.00  0.00    +0.000 HD
ATOM     14  H   UNL     1       8.286   5.277  20.184  0.00  0.00    +0.000 HD
ENDBRANCH   1  12
BRANCH   2  15
ATOM     15  N   UNL     1       5.672   3.552  18.561  0.00  0.00    +0.000 N 
ATOM     16  H   UNL     1       6.097   3.324  19.459  0.00  0.00    +0.000 HD
BRANCH  15  17
ATOM     17  C   UNL     1       4.226   3.359  18.564  0.00  0.00    +0.000 C 
BRANCH  17  18
ATOM     18  C   UNL     1       3.473   4.655  18.224  0.00  0.00    +0.000 C 
BRANCH  18  19
ATOM     19  C   UNL     1       1.960   4.437  18.151  0.00  0.00    +0.000 C 
BRANCH  19  20
ATOM     20  N   UNL     1       1.243   4.233  19.399  0.00  0.00    +0.000 NA
ATOM     21  C   UNL     1       1.606   5.073  20.540  0.00  0.00    +0.000 C 
ATOM     22  C   UNL     1       2.426   4.346  21.613  0.00  0.00    +0.000 C 
ATOM     23  O   UNL     1       1.752   3.159  22.047  0.00  0.00    +0.000 OA
ATOM     24  C   UNL     1       1.611   2.250  20.951  0.00  0.00    +0.000 C 
ATOM     25  C   UNL     1       0.856   2.871  19.762  0.00  0.00    +0.000 C 
ENDBRANCH  19  20
ENDBRANCH  18  19
ENDBRANCH  17  18
ENDBRANCH  15  17
ENDBRANCH   2  15
TORSDOF 6
ENDMDL
MODEL 6
REMARK VINA RESULT:      -6.9      0.935      1.469
REMARK  Name = 
REMARK  6 active torsions:
REMARK  status: ('A' for Active; 'I' for Inactive)
REMARK    1  A    between atoms: N_1  and  C_2
REMARK    2  A    between atoms: C_3  and  N_4
REMARK    3  A    between atoms: N_4  and  C_5
REMARK    4  A    between atoms: C_5  and  C_6
REMARK    5  A    between atoms: C_6  and  C_7
REMARK    6  A    between atoms: C_7  and  N_8
REMARK                            x       y       z     vdW  Elec       q    Type
REMARK                         _______ _______ _______ _____ _____    ______ ____
ROOT
ATOM      1  C   UNL     1       6.360   5.012  17.726  0.00  0.00    +0.000 A 
ATOM      2  C   UNL     1       5.693   4.253  16.826  0.00  0.00    +0.000 A 
ATOM      3  C   UNL     1       6.116   4.335  15.401  0.00  0.00    +0.000 A 
ATOM      4  C   UNL     1       5.620   3.492  14.391  0.00  0.00    +0.000 A 
ATOM      5  C   UNL     1       6.092   3.576  13.073  0.00  0.00    +0.000 A 
ATOM      6  C   UNL     1       7.051   4.523  12.729  0.00  0.00    +0.000 A 
ATOM      7  C   UNL     1       7.539   5.383  13.704  0.00  0.00    +0.000 A 
ATOM      8  C   UNL     1       7.074   5.271  15.019  0.00  0.00    +0.000 A 
ATOM      9  O   UNL     1       7.645   6.158  15.935  0.00  0.00    +0.000 OA
ATOM     10  C   UNL     1       7.355   6.054  17.275  0.00  0.00    +0.000 A 
ATOM     11  O   UNL     1       7.861   6.815  18.100  0.00  0.00    +0.000 OA
ENDROOT
BRANCH   1  12
ATOM     12  N   UNL     1       6.237   4.933  19.120  0.00  0.00    +0.000 N 
ATOM     13  H   UNL     1       7.117   5.024  19.602  0.00  0.00    +0.000 HD
ATOM     14  H   UNL     1       5.748   4.071  19.380  0.00  0.00    +0.000 HD
ENDBRANCH   1  12
BRANCH   2  15
ATOM     15  N   UNL     1       4.678   3.316  17.094  0.00  0.00    +0.000 N 
ATOM     16  H   UNL     1       4.959   2.739  17.886  0.00  0.00    +0.000 HD
BRANCH  15  17
ATOM     17  C   UNL     1       3.235   3.527  17.041  0.00  0.00    +0.000 C 
BRANCH  17  18
ATOM     18  C   UNL     1       2.457   2.290  17.519  0.00  0.00    +0.000 C 
BRANCH  18  19
ATOM     19  C   UNL     1       2.999   1.749  18.844  0.00  0.00    +0.000 C 
BRANCH  19  20
ATOM     20  N   UNL     1       2.621   2.444  20.064  0.00  0.00    +0.000 NA
ATOM     21  C   UNL     1       1.196   2.628  20.332  0.00  0.00    +0.000 C 
ATOM     22  C   UNL     1       0.698   4.060  20.100  0.00  0.00    +0.000 C 
ATOM     23  O   UNL     1       1.483   4.996  20.849  0.00  0.00    +0.000 OA
ATOM     24  C   UNL     1       2.843   4.956  20.406  0.00  0.00    +0.000 C 
ATOM     25  C   UNL     1       3.460   3.551  20.519  0.00  0.00    +0.000 C 
ENDBRANCH  19  20
ENDBRANCH  18  19
ENDBRANCH  17  18
ENDBRANCH  15  17
ENDBRANCH   2  15
TORSDOF 6
ENDMDL
MODEL 7
REMARK VINA RESULT:      -6.9      3.848      5.942
REMARK  Name = 
REMARK  6 active torsions:
REMARK  status: ('A' for Active; 'I' for Inactive)
REMARK    1  A    between atoms: N_1  and  C_2
REMARK    2  A    between atoms: C_3  and  N_4
REMARK    3  A    between atoms: N_4  and  C_5
REMARK    4  A    between atoms: C_5  and  C_6
REMARK    5  A    between atoms: C_6  and  C_7
REMARK    6  A    between atoms: C_7  and  N_8
REMARK                            x       y       z     vdW  Elec       q    Type
REMARK                         _______ _______ _______ _____ _____    ______ ____
ROOT
ATOM      1  C   UNL     1       5.064   5.690  18.079  0.00  0.00    +0.000 A 
ATOM      2  C   UNL     1       3.723   5.782  18.242  0.00  0.00    +0.000 A 
ATOM      3  C   UNL     1       3.067   4.795  19.143  0.00  0.00    +0.000 A 
ATOM      4  C   UNL     1       1.716   4.869  19.526  0.00  0.00    +0.000 A 
ATOM      5  C   UNL     1       1.159   3.944  20.422  0.00  0.00    +0.000 A 
ATOM      6  C   UNL     1       1.934   2.908  20.934  0.00  0.00    +0.000 A 
ATOM      7  C   UNL     1       3.265   2.801  20.552  0.00  0.00    +0.000 A 
ATOM      8  C   UNL     1       3.811   3.745  19.676  0.00  0.00    +0.000 A 
ATOM      9  O   UNL     1       5.164   3.572  19.374  0.00  0.00    +0.000 OA
ATOM     10  C   UNL     1       5.833   4.511  18.624  0.00  0.00    +0.000 A 
ATOM     11  O   UNL     1       7.029   4.386  18.362  0.00  0.00    +0.000 OA
ENDROOT
BRANCH   1  12
ATOM     12  N   UNL     1       5.879   6.629  17.430  0.00  0.00    +0.000 N 
ATOM     13  H   UNL     1       5.624   6.775  16.465  0.00  0.00    +0.000 HD
ATOM     14  H   UNL     1       6.864   6.365  17.528  0.00  0.00    +0.000 HD
ENDBRANCH   1  12
BRANCH   2  15
ATOM     15  N   UNL     1       2.871   6.767  17.713  0.00  0.00    +0.000 N 
ATOM     16  H   UNL     1       1.937   6.374  17.602  0.00  0.00    +0.000 HD
BRANCH  15  17
ATOM     17  C   UNL     1       2.842   8.189  18.039  0.00  0.00    +0.000 C 
BRANCH  17  18
ATOM     18  C   UNL     1       1.421   8.770  17.948  0.00  0.00    +0.000 C 
BRANCH  18  19
ATOM     19  C   UNL     1       1.190   9.880  18.975  0.00  0.00    +0.000 C 
BRANCH  19  20
ATOM     20  N   UNL     1       0.329   9.586  20.110  0.00  0.00    +0.000 NA
ATOM     21  C   UNL     1      -0.555  10.647  20.590  0.00  0.00    +0.000 C 
ATOM     22  C   UNL     1      -0.094  11.297  21.900  0.00  0.00    +0.000 C 
ATOM     23  O   UNL     1       0.108  10.305  22.913  0.00  0.00    +0.000 OA
ATOM     24  C   UNL     1       1.146   9.404  22.514  0.00  0.00    +0.000 C 
ATOM     25  C   UNL     1       0.848   8.720  21.167  0.00  0.00    +0.000 C 
ENDBRANCH  19  20
ENDBRANCH  18  19
ENDBRANCH  17  18
ENDBRANCH  15  17
ENDBRANCH   2  15
TORSDOF 6
ENDMDL
MODEL 8
REMARK VINA RESULT:      -6.9      1.655      2.234
REMARK  Name = 
REMARK  6 active torsions:
REMARK  status: ('A' for Active; 'I' for Inactive)
REMARK    1  A    between atoms: N_1  and  C_2
REMARK    2  A    between atoms: C_3  and  N_4
REMARK    3  A    between atoms: N_4  and  C_5
REMARK    4  A    between atoms: C_5  and  C_6
REMARK    5  A    between atoms: C_6  and  C_7
REMARK    6  A    between atoms: C_7  and  N_8
REMARK                            x       y       z     vdW  Elec       q    Type
REMARK                         _______ _______ _______ _____ _____    ______ ____
ROOT
ATOM      1  C   UNL     1       5.937   5.133  17.494  0.00  0.00    +0.000 A 
ATOM      2  C   UNL     1       5.220   4.518  16.523  0.00  0.00    +0.000 A 
ATOM      3  C   UNL     1       5.815   4.451  15.160  0.00  0.00    +0.000 A 
ATOM      4  C   UNL     1       5.257   3.712  14.102  0.00  0.00    +0.000 A 
ATOM      5  C   UNL     1       5.886   3.637  12.851  0.00  0.00    +0.000 A 
ATOM      6  C   UNL     1       7.075   4.323  12.622  0.00  0.00    +0.000 A 
ATOM      7  C   UNL     1       7.634   5.079  13.644  0.00  0.00    +0.000 A 
ATOM      8  C   UNL     1       7.005   5.123  14.893  0.00  0.00    +0.000 A 
ATOM      9  O   UNL     1       7.657   5.885  15.866  0.00  0.00    +0.000 OA
ATOM     10  C   UNL     1       7.196   5.897  17.161  0.00  0.00    +0.000 A 
ATOM     11  O   UNL     1       7.766   6.548  18.037  0.00  0.00    +0.000 OA
ENDROOT
BRANCH   1  12
ATOM     12  N   UNL     1       5.636   5.132  18.863  0.00  0.00    +0.000 N 
ATOM     13  H   UNL     1       6.423   4.884  19.442  0.00  0.00    +0.000 HD
ATOM     14  H   UNL     1       4.826   4.531  19.043  0.00  0.00    +0.000 HD
ENDBRANCH   1  12
BRANCH   2  15
ATOM     15  N   UNL     1       3.989   3.854  16.671  0.00  0.00    +0.000 N 
ATOM     16  H   UNL     1       3.607   3.653  15.748  0.00  0.00    +0.000 HD
BRANCH  15  17
ATOM     17  C   UNL     1       3.640   2.834  17.654  0.00  0.00    +0.000 C 
BRANCH  17  18
ATOM     18  C   UNL     1       2.425   3.246  18.501  0.00  0.00    +0.000 C 
BRANCH  18  19
ATOM     19  C   UNL     1       1.966   4.672  18.189  0.00  0.00    +0.000 C 
BRANCH  19  20
ATOM     20  N   UNL     1       2.599   5.761  18.916  0.00  0.00    +0.000 NA
ATOM     21  C   UNL     1       2.325   5.876  20.348  0.00  0.00    +0.000 C 
ATOM     22  C   UNL     1       1.366   7.017  20.709  0.00  0.00    +0.000 C 
ATOM     23  O   UNL     1       1.837   8.261  20.179  0.00  0.00    +0.000 OA
ATOM     24  C   UNL     1       1.880   8.197  18.750  0.00  0.00    +0.000 C 
ATOM     25  C   UNL     1       2.762   7.045  18.237  0.00  0.00    +0.000 C 
ENDBRANCH  19  20
ENDBRANCH  18  19
ENDBRANCH  17  18
ENDBRANCH  15  17
ENDBRANCH   2  15
TORSDOF 6
ENDMDL
MODEL 9
REMARK VINA RESULT:      -6.8      4.324      6.519
REMARK  Name = 
REMARK  6 active torsions:
REMARK  status: ('A' for Active; 'I' for Inactive)
REMARK    1  A    between atoms: N_1  and  C_2
REMARK    2  A    between atoms: C_3  and  N_4
REMARK    3  A    between atoms: N_4  and  C_5
REMARK    4  A    between atoms: C_5  and  C_6
REMARK    5  A    between atoms: C_6  and  C_7
REMARK    6  A    between atoms: C_7  and  N_8
REMARK                            x       y       z     vdW  Elec       q    Type
REMARK                         _______ _______ _______ _____ _____    ______ ____
ROOT
ATOM      1  C   UNL     1       4.736   5.609  18.260  0.00  0.00    +0.000 A 
ATOM      2  C   UNL     1       3.415   5.636  18.558  0.00  0.00    +0.000 A 
ATOM      3  C   UNL     1       2.889   4.582  19.468  0.00  0.00    +0.000 A 
ATOM      4  C   UNL     1       1.581   4.580  19.983  0.00  0.00    +0.000 A 
ATOM      5  C   UNL     1       1.151   3.592  20.881  0.00  0.00    +0.000 A 
ATOM      6  C   UNL     1       2.012   2.567  21.262  0.00  0.00    +0.000 A 
ATOM      7  C   UNL     1       3.301   2.534  20.748  0.00  0.00    +0.000 A 
ATOM      8  C   UNL     1       3.721   3.541  19.872  0.00  0.00    +0.000 A 
ATOM      9  O   UNL     1       5.043   3.439  19.431  0.00  0.00    +0.000 OA
ATOM     10  C   UNL     1       5.599   4.440  18.668  0.00  0.00    +0.000 A 
ATOM     11  O   UNL     1       6.767   4.378  18.285  0.00  0.00    +0.000 OA
ENDROOT
BRANCH   1  12
ATOM     12  N   UNL     1       5.446   6.611  17.583  0.00  0.00    +0.000 N 
ATOM     13  H   UNL     1       6.425   6.399  17.476  0.00  0.00    +0.000 HD
ATOM     14  H   UNL     1       5.299   7.515  18.042  0.00  0.00    +0.000 HD
ENDBRANCH   1  12
BRANCH   2  15
ATOM     15  N   UNL     1       2.478   6.607  18.164  0.00  0.00    +0.000 N 
ATOM     16  H   UNL     1       1.629   6.141  17.844  0.00  0.00    +0.000 HD
BRANCH  15  17
ATOM     17  C   UNL     1       2.202   7.890  18.803  0.00  0.00    +0.000 C 
BRANCH  17  18
ATOM     18  C   UNL     1       2.112   9.033  17.779  0.00  0.00    +0.000 C 
BRANCH  18  19
ATOM     19  C   UNL     1       1.478  10.290  18.378  0.00  0.00    +0.000 C 
BRANCH  19  20
ATOM     20  N   UNL     1       0.488  10.115  19.429  0.00  0.00    +0.000 NA
ATOM     21  C   UNL     1      -0.921  10.274  19.074  0.00  0.00    +0.000 C 
ATOM     22  C   UNL     1      -1.543  11.587  19.563  0.00  0.00    +0.000 C 
ATOM     23  O   UNL     1      -1.352  11.743  20.974  0.00  0.00    +0.000 OA
ATOM     24  C   UNL     1       0.046  11.814  21.272  0.00  0.00    +0.000 C 
ATOM     25  C   UNL     1       0.818  10.579  20.776  0.00  0.00    +0.000 C 
ENDBRANCH  19  20
ENDBRANCH  18  19
ENDBRANCH  17  18
ENDBRANCH  15  17
ENDBRANCH   2  15
TORSDOF 6
ENDMDL
