MODEL 1
REMARK VINA RESULT:      -8.1      0.000      0.000
REMARK  Name = 
REMARK  9 active torsions:
REMARK  status: ('A' for Active; 'I' for Inactive)
REMARK    1  A    between atoms: C_1  and  C_2
REMARK    2  A    between atoms: C_5  and  N_6
REMARK    3  A    between atoms: C_8  and  C_9
REMARK    4  A    between atoms: C_10  and  C_11
REMARK    5  A    between atoms: C_11  and  C_12
REMARK    6  A    between atoms: C_12  and  C_14
REMARK    7  A    between atoms: C_16  and  O_17
REMARK    8  A    between atoms: C_20  and  O_21
REMARK    9  A    between atoms: C_22  and  C_23
REMARK                            x       y       z     vdW  Elec       q    Type
REMARK                         _______ _______ _______ _____ _____    ______ ____
ROOT
ATOM      1  N   UNL     1       1.829   6.809  20.214  0.00  0.00    +0.000 N 
ATOM      2  N   UNL     1       1.353   5.852  21.056  0.00  0.00    +0.000 NA
ATOM      3  C   UNL     1       1.834   4.696  20.590  0.00  0.00    +0.000 A 
ATOM      4  C   UNL     1       1.530   3.417  21.279  0.00  0.00    +0.000 C 
ATOM      5  C   UNL     1       2.603   4.872  19.416  0.00  0.00    +0.000 A 
ATOM      6  C   UNL     1       2.551   6.236  19.167  0.00  0.00    +0.000 A 
ATOM      7  C   UNL     1       3.051   6.967  17.971  0.00  0.00    +0.000 C 
ENDROOT
BRANCH   1  12
ATOM      8  C   UNL     1      -0.158  12.108  21.109  0.00  0.00    +0.000 C 
ATOM      9  C   UNL     1       0.498  10.779  20.884  0.00  0.00    +0.000 A 
ATOM     10  C   UNL     1       0.828  10.363  19.594  0.00  0.00    +0.000 A 
ATOM     11  C   UNL     1       1.340   9.082  19.375  0.00  0.00    +0.000 A 
ATOM     12  C   UNL     1       1.501   8.183  20.436  0.00  0.00    +0.000 A 
ATOM     13  C   UNL     1       1.277   8.638  21.742  0.00  0.00    +0.000 A 
ATOM     14  C   UNL     1       0.764   9.924  21.960  0.00  0.00    +0.000 A 
ENDBRANCH   1  12
BRANCH   5  15
ATOM     15  C   UNL     1       3.302   3.822  18.608  0.00  0.00    +0.000 C 
BRANCH  15  16
ATOM     16  C   UNL     1       4.793   3.703  18.887  0.00  0.00    +0.000 C 
ATOM     17  O   UNL     1       5.257   2.889  19.688  0.00  0.00    +0.000 OA
BRANCH  16  18
ATOM     18  C   UNL     1       5.754   4.618  18.180  0.00  0.00    +0.000 A 
ATOM     19  C   UNL     1       5.614   4.738  16.783  0.00  0.00    +0.000 A 
ATOM     20  C   UNL     1       6.456   5.579  16.059  0.00  0.00    +0.000 A 
ATOM     21  C   UNL     1       7.447   6.313  16.695  0.00  0.00    +0.000 A 
ATOM     22  C   UNL     1       7.606   6.204  18.074  0.00  0.00    +0.000 A 
ATOM     23  C   UNL     1       6.762   5.362  18.812  0.00  0.00    +0.000 A 
BRANCH  20  24
ATOM     24  O   UNL     1       6.338   5.717  14.709  0.00  0.00    +0.000 OA
ATOM     25  H   UNL     1       6.855   5.022  14.274  0.00  0.00    +0.000 HD
ENDBRANCH  20  24
BRANCH  23  26
ATOM     26  O   UNL     1       6.959   5.294  20.162  0.00  0.00    +0.000 OA
ATOM     27  H   UNL     1       6.351   5.905  20.612  0.00  0.00    +0.000 HD
ENDBRANCH  23  26
ENDBRANCH  16  18
ENDBRANCH  15  16
ENDBRANCH   5  15
TORSDOF 6
ENDMDL
MODEL 2
REMARK VINA RESULT:      -7.9      0.897      1.048
REMARK  Name = 
REMARK  9 active torsions:
REMARK  status: ('A' for Active; 'I' for Inactive)
REMARK    1  A    between atoms: C_1  and  C_2
REMARK    2  A    between atoms: C_5  and  N_6
REMARK    3  A    between atoms: C_8  and  C_9
REMARK    4  A    between atoms: C_10  and  C_11
REMARK    5  A    between atoms: C_11  and  C_12
REMARK    6  A    between atoms: C_12  and  C_14
REMARK    7  A    between atoms: C_16  and  O_17
REMARK    8  A    between atoms: C_20  and  O_21
REMARK    9  A    between atoms: C_22  and  C_23
REMARK                            x       y       z     vdW  Elec       q    Type
REMARK                         _______ _______ _______ _____ _____    ______ ____
ROOT
ATOM      1  N   UNL     1       1.793   6.816  20.149  0.00  0.00    +0.000 N 
ATOM      2  N   UNL     1       1.320   5.830  20.960  0.00  0.00    +0.000 NA
ATOM      3  C   UNL     1       1.768   4.688  20.432  0.00  0.00    +0.000 A 
ATOM      4  C   UNL     1       1.457   3.385  21.072  0.00  0.00    +0.000 C 
ATOM      5  C   UNL     1       2.512   4.903  19.249  0.00  0.00    +0.000 A 
ATOM      6  C   UNL     1       2.480   6.276  19.060  0.00  0.00    +0.000 A 
ATOM      7  C   UNL     1       2.965   7.051  17.886  0.00  0.00    +0.000 C 
ENDROOT
BRANCH   1  12
ATOM      8  C   UNL     1      -0.074  12.104  21.323  0.00  0.00    +0.000 C 
ATOM      9  C   UNL     1       0.552  10.775  21.024  0.00  0.00    +0.000 A 
ATOM     10  C   UNL     1       0.844  10.410  19.709  0.00  0.00    +0.000 A 
ATOM     11  C   UNL     1       1.328   9.131  19.422  0.00  0.00    +0.000 A 
ATOM     12  C   UNL     1       1.496   8.184  20.439  0.00  0.00    +0.000 A 
ATOM     13  C   UNL     1       1.310   8.584  21.769  0.00  0.00    +0.000 A 
ATOM     14  C   UNL     1       0.827   9.868  22.055  0.00  0.00    +0.000 A 
ENDBRANCH   1  12
BRANCH   5  15
ATOM     15  C   UNL     1       3.172   3.877  18.379  0.00  0.00    +0.000 C 
BRANCH  15  16
ATOM     16  C   UNL     1       4.686   3.816  18.517  0.00  0.00    +0.000 C 
ATOM     17  O   UNL     1       5.247   3.512  19.571  0.00  0.00    +0.000 OA
BRANCH  16  18
ATOM     18  C   UNL     1       5.552   4.154  17.334  0.00  0.00    +0.000 A 
ATOM     19  C   UNL     1       4.983   3.988  16.056  0.00  0.00    +0.000 A 
ATOM     20  C   UNL     1       5.716   4.295  14.912  0.00  0.00    +0.000 A 
ATOM     21  C   UNL     1       7.017   4.770  15.006  0.00  0.00    +0.000 A 
ATOM     22  C   UNL     1       7.599   4.935  16.260  0.00  0.00    +0.000 A 
ATOM     23  C   UNL     1       6.869   4.631  17.417  0.00  0.00    +0.000 A 
BRANCH  20  24
ATOM     24  O   UNL     1       5.188   4.149  13.665  0.00  0.00    +0.000 OA
ATOM     25  H   UNL     1       4.351   3.664  13.731  0.00  0.00    +0.000 HD
ENDBRANCH  20  24
BRANCH  23  26
ATOM     26  O   UNL     1       7.487   4.814  18.622  0.00  0.00    +0.000 OA
ATOM     27  H   UNL     1       8.448   4.695  18.517  0.00  0.00    +0.000 HD
ENDBRANCH  23  26
ENDBRANCH  16  18
ENDBRANCH  15  16
ENDBRANCH   5  15
TORSDOF 6
ENDMDL
MODEL 3
REMARK VINA RESULT:      -7.8      1.292      2.420
REMARK  Name = 
REMARK  9 active torsions:
REMARK  status: ('A' for Active; 'I' for Inactive)
REMARK    1  A    between atoms: C_1  and  C_2
REMARK    2  A    between atoms: C_5  and  N_6
REMARK    3  A    between atoms: C_8  and  C_9
REMARK    4  A    between atoms: C_10  and  C_11
REMARK    5  A    between atoms: C_11  and  C_12
REMARK    6  A    between atoms: C_12  and  C_14
REMARK    7  A    between atoms: C_16  and  O_17
REMARK    8  A    between atoms: C_20  and  O_21
REMARK    9  A    between atoms: C_22  and  C_23
REMARK                            x       y       z     vdW  Elec       q    Type
REMARK                         _______ _______ _______ _____ _____    ______ ____
ROOT
ATOM      1  N   UNL     1       1.520   8.024  20.363  0.00  0.00    +0.000 N 
ATOM      2  N   UNL     1       1.633   6.823  20.994  0.00  0.00    +0.000 NA
ATOM      3  C   UNL     1       2.174   5.997  20.095  0.00  0.00    +0.000 A 
ATOM      4  C   UNL     1       2.463   4.584  20.443  0.00  0.00    +0.000 C 
ATOM      5  C   UNL     1       2.391   6.632  18.850  0.00  0.00    +0.000 A 
ATOM      6  C   UNL     1       1.923   7.925  19.030  0.00  0.00    +0.000 A 
ATOM      7  C   UNL     1       1.756   8.990  18.004  0.00  0.00    +0.000 C 
ENDROOT
BRANCH   1  12
ATOM      8  C   UNL     1      -1.291  12.330  22.890  0.00  0.00    +0.000 C 
ATOM      9  C   UNL     1      -0.433  11.253  22.296  0.00  0.00    +0.000 A 
ATOM     10  C   UNL     1       0.229  11.463  21.087  0.00  0.00    +0.000 A 
ATOM     11  C   UNL     1       0.940  10.423  20.482  0.00  0.00    +0.000 A 
ATOM     12  C   UNL     1       0.974   9.148  21.058  0.00  0.00    +0.000 A 
ATOM     13  C   UNL     1       0.405   8.967  22.325  0.00  0.00    +0.000 A 
ATOM     14  C   UNL     1      -0.306  10.012  22.932  0.00  0.00    +0.000 A 
ENDBRANCH   1  12
BRANCH   5  15
ATOM     15  C   UNL     1       2.977   6.039  17.605  0.00  0.00    +0.000 C 
BRANCH  15  16
ATOM     16  C   UNL     1       4.157   5.109  17.846  0.00  0.00    +0.000 C 
ATOM     17  O   UNL     1       4.042   3.882  17.877  0.00  0.00    +0.000 OA
BRANCH  16  18
ATOM     18  C   UNL     1       5.524   5.692  18.076  0.00  0.00    +0.000 A 
ATOM     19  C   UNL     1       6.190   5.312  19.259  0.00  0.00    +0.000 A 
ATOM     20  C   UNL     1       7.466   5.797  19.535  0.00  0.00    +0.000 A 
ATOM     21  C   UNL     1       8.106   6.660  18.657  0.00  0.00    +0.000 A 
ATOM     22  C   UNL     1       7.462   7.051  17.486  0.00  0.00    +0.000 A 
ATOM     23  C   UNL     1       6.179   6.567  17.197  0.00  0.00    +0.000 A 
BRANCH  20  24
ATOM     24  O   UNL     1       8.135   5.442  20.668  0.00  0.00    +0.000 OA
ATOM     25  H   UNL     1       7.494   5.143  21.332  0.00  0.00    +0.000 HD
ENDBRANCH  20  24
BRANCH  23  26
ATOM     26  O   UNL     1       5.594   6.981  16.034  0.00  0.00    +0.000 OA
ATOM     27  H   UNL     1       6.129   7.689  15.634  0.00  0.00    +0.000 HD
ENDBRANCH  23  26
ENDBRANCH  16  18
ENDBRANCH  15  16
ENDBRANCH   5  15
TORSDOF 6
ENDMDL
MODEL 4
REMARK VINA RESULT:      -7.8      0.276      1.001
REMARK  Name = 
REMARK  9 active torsions:
REMARK  status: ('A' for Active; 'I' for Inactive)
REMARK    1  A    between atoms: C_1  and  C_2
REMARK    2  A    between atoms: C_5  and  N_6
REMARK    3  A    between atoms: C_8  and  C_9
REMARK    4  A    between atoms: C_10  and  C_11
REMARK    5  A    between atoms: C_11  and  C_12
REMARK    6  A    between atoms: C_12  and  C_14
REMARK    7  A    between atoms: C_16  and  O_17
REMARK    8  A    between atoms: C_20  and  O_21
REMARK    9  A    between atoms: C_22  and  C_23
REMARK                            x       y       z     vdW  Elec       q    Type
REMARK                         _______ _______ _______ _____ _____    ______ ____
ROOT
ATOM      1  N   UNL     1       1.732   6.813  20.206  0.00  0.00    +0.000 N 
ATOM      2  N   UNL     1       1.308   5.853  21.072  0.00  0.00    +0.000 NA
ATOM      3  C   UNL     1       1.844   4.712  20.630  0.00  0.00    +0.000 A 
ATOM      4  C   UNL     1       1.608   3.436  21.349  0.00  0.00    +0.000 C 
ATOM      5  C   UNL     1       2.597   4.900  19.448  0.00  0.00    +0.000 A 
ATOM      6  C   UNL     1       2.477   6.253  19.168  0.00  0.00    +0.000 A 
ATOM      7  C   UNL     1       2.934   6.981  17.953  0.00  0.00    +0.000 C 
ENDROOT
BRANCH   1  12
ATOM      8  C   UNL     1       0.831  12.424  20.944  0.00  0.00    +0.000 C 
ATOM      9  C   UNL     1       0.920  10.939  20.753  0.00  0.00    +0.000 A 
ATOM     10  C   UNL     1       0.965  10.086  21.855  0.00  0.00    +0.000 A 
ATOM     11  C   UNL     1       1.156   8.713  21.678  0.00  0.00    +0.000 A 
ATOM     12  C   UNL     1       1.336   8.174  20.399  0.00  0.00    +0.000 A 
ATOM     13  C   UNL     1       1.178   9.012  19.287  0.00  0.00    +0.000 A 
ATOM     14  C   UNL     1       0.985  10.389  19.467  0.00  0.00    +0.000 A 
ENDBRANCH   1  12
BRANCH   5  15
ATOM     15  C   UNL     1       3.344   3.867  18.660  0.00  0.00    +0.000 C 
BRANCH  15  16
ATOM     16  C   UNL     1       4.833   3.796  18.967  0.00  0.00    +0.000 C 
ATOM     17  O   UNL     1       5.306   3.009  19.789  0.00  0.00    +0.000 OA
BRANCH  16  18
ATOM     18  C   UNL     1       5.780   4.729  18.263  0.00  0.00    +0.000 A 
ATOM     19  C   UNL     1       5.588   4.911  16.879  0.00  0.00    +0.000 A 
ATOM     20  C   UNL     1       6.415   5.771  16.161  0.00  0.00    +0.000 A 
ATOM     21  C   UNL     1       7.440   6.465  16.788  0.00  0.00    +0.000 A 
ATOM     22  C   UNL     1       7.649   6.294  18.154  0.00  0.00    +0.000 A 
ATOM     23  C   UNL     1       6.822   5.432  18.888  0.00  0.00    +0.000 A 
BRANCH  20  24
ATOM     24  O   UNL     1       6.248   5.970  14.823  0.00  0.00    +0.000 OA
ATOM     25  H   UNL     1       6.625   5.217  14.342  0.00  0.00    +0.000 HD
ENDBRANCH  20  24
BRANCH  23  26
ATOM     26  O   UNL     1       7.069   5.303  20.225  0.00  0.00    +0.000 OA
ATOM     27  H   UNL     1       6.480   4.625  20.602  0.00  0.00    +0.000 HD
ENDBRANCH  23  26
ENDBRANCH  16  18
ENDBRANCH  15  16
ENDBRANCH   5  15
TORSDOF 6
ENDMDL
MODEL 5
REMARK VINA RESULT:      -7.7      0.701      1.706
REMARK  Name = 
REMARK  9 active torsions:
REMARK  status: ('A' for Active; 'I' for Inactive)
REMARK    1  A    between atoms: C_1  and  C_2
REMARK    2  A    between atoms: C_5  and  N_6
REMARK    3  A    between atoms: C_8  and  C_9
REMARK    4  A    between atoms: C_10  and  C_11
REMARK    5  A    between atoms: C_11  and  C_12
REMARK    6  A    between atoms: C_12  and  C_14
REMARK    7  A    between atoms: C_16  and  O_17
REMARK    8  A    between atoms: C_20  and  O_21
REMARK    9  A    between atoms: C_22  and  C_23
REMARK                            x       y       z     vdW  Elec       q    Type
REMARK                         _______ _______ _______ _____ _____    ______ ____
ROOT
ATOM      1  N   UNL     1       1.772   6.882  20.220  0.00  0.00    +0.000 N 
ATOM      2  N   UNL     1       1.295   5.911  21.046  0.00  0.00    +0.000 NA
ATOM      3  C   UNL     1       1.774   4.763  20.562  0.00  0.00    +0.000 A 
ATOM      4  C   UNL     1       1.469   3.473  21.230  0.00  0.00    +0.000 C 
ATOM      5  C   UNL     1       2.544   4.957  19.392  0.00  0.00    +0.000 A 
ATOM      6  C   UNL     1       2.494   6.324  19.164  0.00  0.00    +0.000 A 
ATOM      7  C   UNL     1       2.996   7.074  17.980  0.00  0.00    +0.000 C 
ENDROOT
BRANCH   1  12
ATOM      8  C   UNL     1      -0.207  12.165  21.222  0.00  0.00    +0.000 C 
ATOM      9  C   UNL     1       0.447  10.840  20.965  0.00  0.00    +0.000 A 
ATOM     10  C   UNL     1       0.738  10.436  19.662  0.00  0.00    +0.000 A 
ATOM     11  C   UNL     1       1.249   9.159  19.416  0.00  0.00    +0.000 A 
ATOM     12  C   UNL     1       1.446   8.253  20.464  0.00  0.00    +0.000 A 
ATOM     13  C   UNL     1       1.261   8.695  21.781  0.00  0.00    +0.000 A 
ATOM     14  C   UNL     1       0.750   9.977  22.025  0.00  0.00    +0.000 A 
ENDBRANCH   1  12
BRANCH   5  15
ATOM     15  C   UNL     1       3.242   3.919  18.567  0.00  0.00    +0.000 C 
BRANCH  15  16
ATOM     16  C   UNL     1       4.730   3.784  18.854  0.00  0.00    +0.000 C 
ATOM     17  O   UNL     1       5.183   2.958  19.649  0.00  0.00    +0.000 OA
BRANCH  16  18
ATOM     18  C   UNL     1       5.704   4.699  18.163  0.00  0.00    +0.000 A 
ATOM     19  C   UNL     1       6.598   5.418  18.982  0.00  0.00    +0.000 A 
ATOM     20  C   UNL     1       7.539   6.274  18.416  0.00  0.00    +0.000 A 
ATOM     21  C   UNL     1       7.618   6.436  17.040  0.00  0.00    +0.000 A 
ATOM     22  C   UNL     1       6.740   5.739  16.214  0.00  0.00    +0.000 A 
ATOM     23  C   UNL     1       5.790   4.874  16.774  0.00  0.00    +0.000 A 
BRANCH  20  24
ATOM     24  O   UNL     1       8.419   6.976  19.184  0.00  0.00    +0.000 OA
ATOM     25  H   UNL     1       9.208   7.177  18.657  0.00  0.00    +0.000 HD
ENDBRANCH  20  24
BRANCH  23  26
ATOM     26  O   UNL     1       4.954   4.214  15.918  0.00  0.00    +0.000 OA
ATOM     27  H   UNL     1       4.293   4.834  15.563  0.00  0.00    +0.000 HD
ENDBRANCH  23  26
ENDBRANCH  16  18
ENDBRANCH  15  16
ENDBRANCH   5  15
TORSDOF 6
ENDMDL
MODEL 6
REMARK VINA RESULT:      -7.6      1.097      2.124
REMARK  Name = 
REMARK  9 active torsions:
REMARK  status: ('A' for Active; 'I' for Inactive)
REMARK    1  A    between atoms: C_1  and  C_2
REMARK    2  A    between atoms: C_5  and  N_6
REMARK    3  A    between atoms: C_8  and  C_9
REMARK    4  A    between atoms: C_10  and  C_11
REMARK    5  A    between atoms: C_11  and  C_12
REMARK    6  A    between atoms: C_12  and  C_14
REMARK    7  A    between atoms: C_16  and  O_17
REMARK    8  A    between atoms: C_20  and  O_21
REMARK    9  A    between atoms: C_22  and  C_23
REMARK                            x       y       z     vdW  Elec       q    Type
REMARK                         _______ _______ _______ _____ _____    ______ ____
ROOT
ATOM      1  N   UNL     1       2.060   6.822  20.063  0.00  0.00    +0.000 N 
ATOM      2  N   UNL     1       1.849   5.854  20.997  0.00  0.00    +0.000 NA
ATOM      3  C   UNL     1       2.425   4.754  20.507  0.00  0.00    +0.000 A 
ATOM      4  C   UNL     1       2.409   3.484  21.275  0.00  0.00    +0.000 C 
ATOM      5  C   UNL     1       2.990   4.971  19.229  0.00  0.00    +0.000 A 
ATOM      6  C   UNL     1       2.706   6.298  18.943  0.00  0.00    +0.000 A 
ATOM      7  C   UNL     1       2.924   7.026  17.663  0.00  0.00    +0.000 C 
ENDROOT
BRANCH   1  12
ATOM      8  C   UNL     1      -0.553  11.851  20.908  0.00  0.00    +0.000 C 
ATOM      9  C   UNL     1       0.258  10.607  20.705  0.00  0.00    +0.000 A 
ATOM     10  C   UNL     1       0.706  10.254  19.431  0.00  0.00    +0.000 A 
ATOM     11  C   UNL     1       1.370   9.042  19.226  0.00  0.00    +0.000 A 
ATOM     12  C   UNL     1       1.568   8.147  20.283  0.00  0.00    +0.000 A 
ATOM     13  C   UNL     1       1.220   8.548  21.580  0.00  0.00    +0.000 A 
ATOM     14  C   UNL     1       0.556   9.766  21.784  0.00  0.00    +0.000 A 
ENDBRANCH   1  12
BRANCH   5  15
ATOM     15  C   UNL     1       3.716   3.986  18.365  0.00  0.00    +0.000 C 
BRANCH  15  16
ATOM     16  C   UNL     1       4.627   4.616  17.321  0.00  0.00    +0.000 C 
ATOM     17  O   UNL     1       4.432   4.498  16.109  0.00  0.00    +0.000 OA
BRANCH  16  18
ATOM     18  C   UNL     1       5.829   5.404  17.764  0.00  0.00    +0.000 A 
ATOM     19  C   UNL     1       6.404   5.051  19.002  0.00  0.00    +0.000 A 
ATOM     20  C   UNL     1       7.529   5.723  19.473  0.00  0.00    +0.000 A 
ATOM     21  C   UNL     1       8.106   6.749  18.738  0.00  0.00    +0.000 A 
ATOM     22  C   UNL     1       7.549   7.116  17.516  0.00  0.00    +0.000 A 
ATOM     23  C   UNL     1       6.418   6.445  17.031  0.00  0.00    +0.000 A 
BRANCH  20  24
ATOM     24  O   UNL     1       8.108   5.399  20.663  0.00  0.00    +0.000 OA
ATOM     25  H   UNL     1       9.071   5.384  20.552  0.00  0.00    +0.000 HD
ENDBRANCH  20  24
BRANCH  23  26
ATOM     26  O   UNL     1       5.914   6.844  15.826  0.00  0.00    +0.000 OA
ATOM     27  H   UNL     1       4.963   6.640  15.786  0.00  0.00    +0.000 HD
ENDBRANCH  23  26
ENDBRANCH  16  18
ENDBRANCH  15  16
ENDBRANCH   5  15
TORSDOF 6
ENDMDL
MODEL 7
REMARK VINA RESULT:      -7.6      1.241      2.159
REMARK  Name = 
REMARK  9 active torsions:
REMARK  status: ('A' for Active; 'I' for Inactive)
REMARK    1  A    between atoms: C_1  and  C_2
REMARK    2  A    between atoms: C_5  and  N_6
REMARK    3  A    between atoms: C_8  and  C_9
REMARK    4  A    between atoms: C_10  and  C_11
REMARK    5  A    between atoms: C_11  and  C_12
REMARK    6  A    between atoms: C_12  and  C_14
REMARK    7  A    between atoms: C_16  and  O_17
REMARK    8  A    between atoms: C_20  and  O_21
REMARK    9  A    between atoms: C_22  and  C_23
REMARK                            x       y       z     vdW  Elec       q    Type
REMARK                         _______ _______ _______ _____ _____    ______ ____
ROOT
ATOM      1  N   UNL     1       1.793   7.796  19.632  0.00  0.00    +0.000 N 
ATOM      2  N   UNL     1       2.601   8.217  18.620  0.00  0.00    +0.000 NA
ATOM      3  C   UNL     1       3.018   7.104  18.011  0.00  0.00    +0.000 A 
ATOM      4  C   UNL     1       3.916   7.177  16.832  0.00  0.00    +0.000 C 
ATOM      5  C   UNL     1       2.520   5.936  18.634  0.00  0.00    +0.000 A 
ATOM      6  C   UNL     1       1.768   6.403  19.702  0.00  0.00    +0.000 A 
ATOM      7  C   UNL     1       1.142   5.612  20.796  0.00  0.00    +0.000 C 
ENDROOT
BRANCH   1  12
ATOM      8  C   UNL     1      -1.249  11.174  23.120  0.00  0.00    +0.000 C 
ATOM      9  C   UNL     1      -0.347  10.393  22.213  0.00  0.00    +0.000 A 
ATOM     10  C   UNL     1      -0.380  10.598  20.834  0.00  0.00    +0.000 A 
ATOM     11  C   UNL     1       0.383   9.795  19.982  0.00  0.00    +0.000 A 
ATOM     12  C   UNL     1       1.167   8.753  20.490  0.00  0.00    +0.000 A 
ATOM     13  C   UNL     1       1.288   8.620  21.880  0.00  0.00    +0.000 A 
ATOM     14  C   UNL     1       0.524   9.427  22.733  0.00  0.00    +0.000 A 
ENDBRANCH   1  12
BRANCH   5  15
ATOM     15  C   UNL     1       2.764   4.510  18.244  0.00  0.00    +0.000 C 
BRANCH  15  16
ATOM     16  C   UNL     1       4.097   3.948  18.713  0.00  0.00    +0.000 C 
ATOM     17  O   UNL     1       4.220   3.313  19.763  0.00  0.00    +0.000 OA
BRANCH  16  18
ATOM     18  C   UNL     1       5.332   4.182  17.887  0.00  0.00    +0.000 A 
ATOM     19  C   UNL     1       5.281   3.788  16.535  0.00  0.00    +0.000 A 
ATOM     20  C   UNL     1       6.379   3.986  15.701  0.00  0.00    +0.000 A 
ATOM     21  C   UNL     1       7.541   4.573  16.181  0.00  0.00    +0.000 A 
ATOM     22  C   UNL     1       7.613   4.964  17.515  0.00  0.00    +0.000 A 
ATOM     23  C   UNL     1       6.513   4.771  18.362  0.00  0.00    +0.000 A 
BRANCH  20  24
ATOM     24  O   UNL     1       6.355   3.620  14.389  0.00  0.00    +0.000 OA
ATOM     25  H   UNL     1       5.948   4.331  13.870  0.00  0.00    +0.000 HD
ENDBRANCH  20  24
BRANCH  23  26
ATOM     26  O   UNL     1       6.637   5.174  19.662  0.00  0.00    +0.000 OA
ATOM     27  H   UNL     1       7.516   4.927  19.998  0.00  0.00    +0.000 HD
ENDBRANCH  23  26
ENDBRANCH  16  18
ENDBRANCH  15  16
ENDBRANCH   5  15
TORSDOF 6
ENDMDL
MODEL 8
REMARK VINA RESULT:      -7.5      2.779      4.428
REMARK  Name = 
REMARK  9 active torsions:
REMARK  status: ('A' for Active; 'I' for Inactive)
REMARK    1  A    between atoms: C_1  and  C_2
REMARK    2  A    between atoms: C_5  and  N_6
REMARK    3  A    between atoms: C_8  and  C_9
REMARK    4  A    between atoms: C_10  and  C_11
REMARK    5  A    between atoms: C_11  and  C_12
REMARK    6  A    between atoms: C_12  and  C_14
REMARK    7  A    between atoms: C_16  and  O_17
REMARK    8  A    between atoms: C_20  and  O_21
REMARK    9  A    between atoms: C_22  and  C_23
REMARK                            x       y       z     vdW  Elec       q    Type
REMARK                         _______ _______ _______ _____ _____    ______ ____
ROOT
ATOM      1  N   UNL     1       1.382   9.258  19.461  0.00  0.00    +0.000 N 
ATOM      2  N   UNL     1       2.062   8.792  18.378  0.00  0.00    +0.000 NA
ATOM      3  C   UNL     1       2.471   7.566  18.713  0.00  0.00    +0.000 A 
ATOM      4  C   UNL     1       3.241   6.736  17.753  0.00  0.00    +0.000 C 
ATOM      5  C   UNL     1       2.096   7.220  20.032  0.00  0.00    +0.000 A 
ATOM      6  C   UNL     1       1.434   8.340  20.512  0.00  0.00    +0.000 A 
ATOM      7  C   UNL     1       0.960   8.601  21.899  0.00  0.00    +0.000 C 
ENDROOT
BRANCH   1  12
ATOM      8  C   UNL     1      -0.573  14.598  18.764  0.00  0.00    +0.000 C 
ATOM      9  C   UNL     1      -0.153  13.190  19.062  0.00  0.00    +0.000 A 
ATOM     10  C   UNL     1       0.893  12.937  19.950  0.00  0.00    +0.000 A 
ATOM     11  C   UNL     1       1.353  11.632  20.145  0.00  0.00    +0.000 A 
ATOM     12  C   UNL     1       0.799  10.563  19.432  0.00  0.00    +0.000 A 
ATOM     13  C   UNL     1      -0.324  10.801  18.627  0.00  0.00    +0.000 A 
ATOM     14  C   UNL     1      -0.785  12.110  18.435  0.00  0.00    +0.000 A 
ENDBRANCH   1  12
BRANCH   5  15
ATOM     15  C   UNL     1       2.370   5.940  20.761  0.00  0.00    +0.000 C 
BRANCH  15  16
ATOM     16  C   UNL     1       1.594   4.740  20.237  0.00  0.00    +0.000 C 
ATOM     17  O   UNL     1       0.385   4.595  20.427  0.00  0.00    +0.000 OA
BRANCH  16  18
ATOM     18  C   UNL     1       2.318   3.667  19.471  0.00  0.00    +0.000 A 
ATOM     19  C   UNL     1       3.408   3.046  20.113  0.00  0.00    +0.000 A 
ATOM     20  C   UNL     1       4.118   2.033  19.474  0.00  0.00    +0.000 A 
ATOM     21  C   UNL     1       3.769   1.614  18.198  0.00  0.00    +0.000 A 
ATOM     22  C   UNL     1       2.699   2.219  17.544  0.00  0.00    +0.000 A 
ATOM     23  C   UNL     1       1.976   3.239  18.179  0.00  0.00    +0.000 A 
BRANCH  20  24
ATOM     24  O   UNL     1       5.172   1.412  20.074  0.00  0.00    +0.000 OA
ATOM     25  H   UNL     1       5.139   1.586  21.027  0.00  0.00    +0.000 HD
ENDBRANCH  20  24
BRANCH  23  26
ATOM     26  O   UNL     1       0.934   3.797  17.494  0.00  0.00    +0.000 OA
ATOM     27  H   UNL     1       0.701   4.652  17.895  0.00  0.00    +0.000 HD
ENDBRANCH  23  26
ENDBRANCH  16  18
ENDBRANCH  15  16
ENDBRANCH   5  15
TORSDOF 6
ENDMDL
MODEL 9
REMARK VINA RESULT:      -7.4      1.150      2.350
REMARK  Name = 
REMARK  9 active torsions:
REMARK  status: ('A' for Active; 'I' for Inactive)
REMARK    1  A    between atoms: C_1  and  C_2
REMARK    2  A    between atoms: C_5  and  N_6
REMARK    3  A    between atoms: C_8  and  C_9
REMARK    4  A    between atoms: C_10  and  C_11
REMARK    5  A    between atoms: C_11  and  C_12
REMARK    6  A    between atoms: C_12  and  C_14
REMARK    7  A    between atoms: C_16  and  O_17
REMARK    8  A    between atoms: C_20  and  O_21
REMARK    9  A    between atoms: C_22  and  C_23
REMARK                            x       y       z     vdW  Elec       q    Type
REMARK                         _______ _______ _______ _____ _____    ______ ____
ROOT
ATOM      1  N   UNL     1       1.946   7.018  19.975  0.00  0.00    +0.000 N 
ATOM      2  N   UNL     1       1.746   6.097  20.957  0.00  0.00    +0.000 NA
ATOM      3  C   UNL     1       2.329   4.977  20.520  0.00  0.00    +0.000 A 
ATOM      4  C   UNL     1       2.326   3.748  21.352  0.00  0.00    +0.000 C 
ATOM      5  C   UNL     1       2.888   5.135  19.231  0.00  0.00    +0.000 A 
ATOM      6  C   UNL     1       2.593   6.443  18.880  0.00  0.00    +0.000 A 
ATOM      7  C   UNL     1       2.800   7.108  17.564  0.00  0.00    +0.000 C 
ENDROOT
BRANCH   1  12
ATOM      8  C   UNL     1       0.612  12.553  20.616  0.00  0.00    +0.000 C 
ATOM      9  C   UNL     1       0.816  11.078  20.439  0.00  0.00    +0.000 A 
ATOM     10  C   UNL     1       0.832  10.228  21.545  0.00  0.00    +0.000 A 
ATOM     11  C   UNL     1       1.128   8.872  21.389  0.00  0.00    +0.000 A 
ATOM     12  C   UNL     1       1.445   8.348  20.130  0.00  0.00    +0.000 A 
ATOM     13  C   UNL     1       1.319   9.175  19.006  0.00  0.00    +0.000 A 
ATOM     14  C   UNL     1       1.020  10.535  19.165  0.00  0.00    +0.000 A 
ENDBRANCH   1  12
BRANCH   5  15
ATOM     15  C   UNL     1       3.619   4.113  18.414  0.00  0.00    +0.000 C 
BRANCH  15  16
ATOM     16  C   UNL     1       4.552   4.697  17.364  0.00  0.00    +0.000 C 
ATOM     17  O   UNL     1       4.363   4.560  16.154  0.00  0.00    +0.000 OA
BRANCH  16  18
ATOM     18  C   UNL     1       5.772   5.461  17.801  0.00  0.00    +0.000 A 
ATOM     19  C   UNL     1       6.361   5.083  19.024  0.00  0.00    +0.000 A 
ATOM     20  C   UNL     1       7.502   5.732  19.488  0.00  0.00    +0.000 A 
ATOM     21  C   UNL     1       8.083   6.760  18.759  0.00  0.00    +0.000 A 
ATOM     22  C   UNL     1       7.513   7.152  17.551  0.00  0.00    +0.000 A 
ATOM     23  C   UNL     1       6.366   6.504  17.074  0.00  0.00    +0.000 A 
BRANCH  20  24
ATOM     24  O   UNL     1       8.094   5.383  20.665  0.00  0.00    +0.000 OA
ATOM     25  H   UNL     1       8.833   4.782  20.481  0.00  0.00    +0.000 HD
ENDBRANCH  20  24
BRANCH  23  26
ATOM     26  O   UNL     1       5.850   6.927  15.882  0.00  0.00    +0.000 OA
ATOM     27  H   UNL     1       6.223   7.797  15.654  0.00  0.00    +0.000 HD
ENDBRANCH  23  26
ENDBRANCH  16  18
ENDBRANCH  15  16
ENDBRANCH   5  15
TORSDOF 6
ENDMDL
