MODEL 1
REMARK VINA RESULT:      -7.7      0.000      0.000
REMARK  Name = 
REMARK  5 active torsions:
REMARK  status: ('A' for Active; 'I' for Inactive)
REMARK    1  A    between atoms: C_1  and  N_2
REMARK    2  A    between atoms: C_3  and  C_5
REMARK    3  A    between atoms: C_10  and  N_11
REMARK    4  A    between atoms: N_11  and  S_12
REMARK    5  A    between atoms: S_12  and  C_15
REMARK                            x       y       z     vdW  Elec       q    Type
REMARK                         _______ _______ _______ _____ _____    ______ ____
ROOT
ATOM      1  C   UNL     1       0.118  10.174  19.999  0.00  0.00    +0.000 A 
ATOM      2  C   UNL     1      -0.272   9.931  21.318  0.00  0.00    +0.000 A 
ATOM      3  C   UNL     1       0.245   8.826  21.952  0.00  0.00    +0.000 A 
ATOM      4  N   UNL     1       1.090   7.958  21.366  0.00  0.00    +0.000 NA
ATOM      5  C   UNL     1       1.498   8.191  20.100  0.00  0.00    +0.000 A 
ATOM      6  C   UNL     1       2.413   7.305  19.507  0.00  0.00    +0.000 A 
ATOM      7  C   UNL     1       2.874   7.485  18.202  0.00  0.00    +0.000 A 
ATOM      8  C   UNL     1       2.409   8.553  17.452  0.00  0.00    +0.000 A 
ATOM      9  C   UNL     1       1.508   9.452  18.020  0.00  0.00    +0.000 A 
ATOM     10  C   UNL     1       1.032   9.296  19.349  0.00  0.00    +0.000 A 
ENDROOT
BRANCH   1  13
ATOM     11  C   UNL     1      -0.255  13.689  18.613  0.00  0.00    +0.000 C 
ATOM     12  N   UNL     1       0.232  12.515  19.298  0.00  0.00    +0.000 N 
ATOM     13  C   UNL     1      -0.502  11.342  19.297  0.00  0.00    +0.000 C 
ATOM     14  O   UNL     1      -1.603  11.254  18.767  0.00  0.00    +0.000 OA
ATOM     15  H   UNL     1       1.196  12.510  19.602  0.00  0.00    +0.000 HD
ENDBRANCH   1  13
BRANCH   6  16
ATOM     16  N   UNL     1       2.909   6.162  20.221  0.00  0.00    +0.000 N 
ATOM     17  H   UNL     1       3.817   6.297  20.663  0.00  0.00    +0.000 HD
BRANCH  16  18
ATOM     18  S   UNL     1       2.799   4.637  19.504  0.00  0.00    +0.000 S 
ATOM     19  O   UNL     1       2.976   3.676  20.572  0.00  0.00    +0.000 OA
ATOM     20  O   UNL     1       1.616   4.602  18.671  0.00  0.00    +0.000 OA
BRANCH  18  21
ATOM     21  C   UNL     1       4.215   4.487  18.433  0.00  0.00    +0.000 A 
ATOM     22  C   UNL     1       4.028   4.173  17.082  0.00  0.00    +0.000 A 
ATOM     23  C   UNL     1       5.131   4.120  16.222  0.00  0.00    +0.000 A 
ATOM     24  C   UNL     1       6.411   4.392  16.716  0.00  0.00    +0.000 A 
ATOM     25  C   UNL     1       6.591   4.729  18.057  0.00  0.00    +0.000 A 
ATOM     26  C   UNL     1       5.492   4.788  18.919  0.00  0.00    +0.000 A 
ENDBRANCH  18  21
ENDBRANCH  16  18
ENDBRANCH   6  16
TORSDOF 4
ENDMDL
MODEL 2
REMARK VINA RESULT:      -7.6      0.227      1.013
REMARK  Name = 
REMARK  5 active torsions:
REMARK  status: ('A' for Active; 'I' for Inactive)
REMARK    1  A    between atoms: C_1  and  N_2
REMARK    2  A    between atoms: C_3  and  C_5
REMARK    3  A    between atoms: C_10  and  N_11
REMARK    4  A    between atoms: N_11  and  S_12
REMARK    5  A    between atoms: S_12  and  C_15
REMARK                            x       y       z     vdW  Elec       q    Type
REMARK                         _______ _______ _______ _____ _____    ______ ____
ROOT
ATOM      1  C   UNL     1       0.181  10.107  19.784  0.00  0.00    +0.000 A 
ATOM      2  C   UNL     1      -0.304   9.852  21.068  0.00  0.00    +0.000 A 
ATOM      3  C   UNL     1       0.160   8.736  21.725  0.00  0.00    +0.000 A 
ATOM      4  N   UNL     1       1.040   7.869  21.191  0.00  0.00    +0.000 NA
ATOM      5  C   UNL     1       1.538   8.113  19.960  0.00  0.00    +0.000 A 
ATOM      6  C   UNL     1       2.488   7.228  19.422  0.00  0.00    +0.000 A 
ATOM      7  C   UNL     1       3.041   7.419  18.156  0.00  0.00    +0.000 A 
ATOM      8  C   UNL     1       2.637   8.499  17.387  0.00  0.00    +0.000 A 
ATOM      9  C   UNL     1       1.704   9.397  17.900  0.00  0.00    +0.000 A 
ATOM     10  C   UNL     1       1.133   9.230  19.191  0.00  0.00    +0.000 A 
ENDROOT
BRANCH   1  13
ATOM     11  C   UNL     1      -0.162  13.683  18.556  0.00  0.00    +0.000 C 
ATOM     12  N   UNL     1       0.272  12.492  19.247  0.00  0.00    +0.000 N 
ATOM     13  C   UNL     1      -0.381  11.287  19.053  0.00  0.00    +0.000 C 
ATOM     14  O   UNL     1      -1.369  11.181  18.337  0.00  0.00    +0.000 OA
ATOM     15  H   UNL     1       1.169  12.514  19.711  0.00  0.00    +0.000 HD
ENDBRANCH   1  13
BRANCH   6  16
ATOM     16  N   UNL     1       2.924   6.073  20.157  0.00  0.00    +0.000 N 
ATOM     17  H   UNL     1       3.777   6.210  20.696  0.00  0.00    +0.000 HD
BRANCH  16  18
ATOM     18  S   UNL     1       2.917   4.566  19.394  0.00  0.00    +0.000 S 
ATOM     19  O   UNL     1       3.146   3.587  20.435  0.00  0.00    +0.000 OA
ATOM     20  O   UNL     1       1.745   4.481  18.549  0.00  0.00    +0.000 OA
BRANCH  18  21
ATOM     21  C   UNL     1       4.348   4.540  18.333  0.00  0.00    +0.000 A 
ATOM     22  C   UNL     1       5.596   4.910  18.850  0.00  0.00    +0.000 A 
ATOM     23  C   UNL     1       6.735   4.826  18.040  0.00  0.00    +0.000 A 
ATOM     24  C   UNL     1       6.620   4.365  16.725  0.00  0.00    +0.000 A 
ATOM     25  C   UNL     1       5.380   3.974  16.222  0.00  0.00    +0.000 A 
ATOM     26  C   UNL     1       4.241   4.050  17.028  0.00  0.00    +0.000 A 
ENDBRANCH  18  21
ENDBRANCH  16  18
ENDBRANCH   6  16
TORSDOF 4
ENDMDL
MODEL 3
REMARK VINA RESULT:      -7.5      3.789      6.385
REMARK  Name = 
REMARK  5 active torsions:
REMARK  status: ('A' for Active; 'I' for Inactive)
REMARK    1  A    between atoms: C_1  and  N_2
REMARK    2  A    between atoms: C_3  and  C_5
REMARK    3  A    between atoms: C_10  and  N_11
REMARK    4  A    between atoms: N_11  and  S_12
REMARK    5  A    between atoms: S_12  and  C_15
REMARK                            x       y       z     vdW  Elec       q    Type
REMARK                         _______ _______ _______ _____ _____    ______ ____
ROOT
ATOM      1  C   UNL     1       2.995   4.783  18.991  0.00  0.00    +0.000 A 
ATOM      2  C   UNL     1       2.118   4.124  18.127  0.00  0.00    +0.000 A 
ATOM      3  C   UNL     1       2.627   3.607  16.959  0.00  0.00    +0.000 A 
ATOM      4  N   UNL     1       3.919   3.718  16.596  0.00  0.00    +0.000 NA
ATOM      5  C   UNL     1       4.786   4.329  17.431  0.00  0.00    +0.000 A 
ATOM      6  C   UNL     1       6.141   4.406  17.068  0.00  0.00    +0.000 A 
ATOM      7  C   UNL     1       7.090   5.025  17.883  0.00  0.00    +0.000 A 
ATOM      8  C   UNL     1       6.694   5.603  19.078  0.00  0.00    +0.000 A 
ATOM      9  C   UNL     1       5.358   5.533  19.466  0.00  0.00    +0.000 A 
ATOM     10  C   UNL     1       4.375   4.899  18.660  0.00  0.00    +0.000 A 
ENDROOT
BRANCH   1  13
ATOM     11  C   UNL     1       1.492   7.422  21.270  0.00  0.00    +0.000 C 
ATOM     12  N   UNL     1       2.094   6.741  20.148  0.00  0.00    +0.000 N 
ATOM     13  C   UNL     1       2.417   5.398  20.229  0.00  0.00    +0.000 C 
ATOM     14  O   UNL     1       2.255   4.742  21.249  0.00  0.00    +0.000 OA
ATOM     15  H   UNL     1       2.091   7.210  19.253  0.00  0.00    +0.000 HD
ENDBRANCH   1  13
BRANCH   6  16
ATOM     16  N   UNL     1       6.609   3.854  15.827  0.00  0.00    +0.000 N 
ATOM     17  H   UNL     1       7.431   3.258  15.910  0.00  0.00    +0.000 HD
BRANCH  16  18
ATOM     18  S   UNL     1       6.713   4.856  14.472  0.00  0.00    +0.000 S 
ATOM     19  O   UNL     1       5.696   5.873  14.645  0.00  0.00    +0.000 OA
ATOM     20  O   UNL     1       8.098   5.228  14.276  0.00  0.00    +0.000 OA
BRANCH  18  21
ATOM     21  C   UNL     1       6.219   3.862  13.079  0.00  0.00    +0.000 A 
ATOM     22  C   UNL     1       7.177   3.089  12.410  0.00  0.00    +0.000 A 
ATOM     23  C   UNL     1       6.783   2.254  11.358  0.00  0.00    +0.000 A 
ATOM     24  C   UNL     1       5.436   2.190  10.988  0.00  0.00    +0.000 A 
ATOM     25  C   UNL     1       4.482   2.942  11.672  0.00  0.00    +0.000 A 
ATOM     26  C   UNL     1       4.868   3.773  12.727  0.00  0.00    +0.000 A 
ENDBRANCH  18  21
ENDBRANCH  16  18
ENDBRANCH   6  16
TORSDOF 4
ENDMDL
MODEL 4
REMARK VINA RESULT:      -7.4      3.826      6.453
REMARK  Name = 
REMARK  5 active torsions:
REMARK  status: ('A' for Active; 'I' for Inactive)
REMARK    1  A    between atoms: C_1  and  N_2
REMARK    2  A    between atoms: C_3  and  C_5
REMARK    3  A    between atoms: C_10  and  N_11
REMARK    4  A    between atoms: N_11  and  S_12
REMARK    5  A    between atoms: S_12  and  C_15
REMARK                            x       y       z     vdW  Elec       q    Type
REMARK                         _______ _______ _______ _____ _____    ______ ____
ROOT
ATOM      1  C   UNL     1       3.239   4.764  18.934  0.00  0.00    +0.000 A 
ATOM      2  C   UNL     1       2.395   4.063  18.070  0.00  0.00    +0.000 A 
ATOM      3  C   UNL     1       2.933   3.557  16.909  0.00  0.00    +0.000 A 
ATOM      4  N   UNL     1       4.221   3.716  16.554  0.00  0.00    +0.000 NA
ATOM      5  C   UNL     1       5.058   4.369  17.389  0.00  0.00    +0.000 A 
ATOM      6  C   UNL     1       6.411   4.496  17.035  0.00  0.00    +0.000 A 
ATOM      7  C   UNL     1       7.328   5.160  17.850  0.00  0.00    +0.000 A 
ATOM      8  C   UNL     1       6.902   5.732  19.037  0.00  0.00    +0.000 A 
ATOM      9  C   UNL     1       5.567   5.612  19.417  0.00  0.00    +0.000 A 
ATOM     10  C   UNL     1       4.615   4.933  18.610  0.00  0.00    +0.000 A 
ENDROOT
BRANCH   1  13
ATOM     11  C   UNL     1       1.597   7.354  21.172  0.00  0.00    +0.000 C 
ATOM     12  N   UNL     1       2.236   6.689  20.061  0.00  0.00    +0.000 N 
ATOM     13  C   UNL     1       2.628   5.367  20.161  0.00  0.00    +0.000 C 
ATOM     14  O   UNL     1       2.500   4.718  21.192  0.00  0.00    +0.000 OA
ATOM     15  H   UNL     1       2.209   7.144  19.159  0.00  0.00    +0.000 HD
ENDBRANCH   1  13
BRANCH   6  16
ATOM     16  N   UNL     1       6.909   3.952  15.802  0.00  0.00    +0.000 N 
ATOM     17  H   UNL     1       7.803   3.470  15.880  0.00  0.00    +0.000 HD
BRANCH  16  18
ATOM     18  S   UNL     1       6.844   4.898  14.404  0.00  0.00    +0.000 S 
ATOM     19  O   UNL     1       5.811   5.886  14.634  0.00  0.00    +0.000 OA
ATOM     20  O   UNL     1       8.189   5.307  14.059  0.00  0.00    +0.000 OA
BRANCH  18  21
ATOM     21  C   UNL     1       6.258   3.827  13.106  0.00  0.00    +0.000 A 
ATOM     22  C   UNL     1       4.903   3.850  12.753  0.00  0.00    +0.000 A 
ATOM     23  C   UNL     1       4.450   3.061  11.689  0.00  0.00    +0.000 A 
ATOM     24  C   UNL     1       5.354   2.263  10.982  0.00  0.00    +0.000 A 
ATOM     25  C   UNL     1       6.706   2.261  11.321  0.00  0.00    +0.000 A 
ATOM     26  C   UNL     1       7.165   3.051  12.378  0.00  0.00    +0.000 A 
ENDBRANCH  18  21
ENDBRANCH  16  18
ENDBRANCH   6  16
TORSDOF 4
ENDMDL
MODEL 5
REMARK VINA RESULT:      -7.3      2.412      3.536
REMARK  Name = 
REMARK  5 active torsions:
REMARK  status: ('A' for Active; 'I' for Inactive)
REMARK    1  A    between atoms: C_1  and  N_2
REMARK    2  A    between atoms: C_3  and  C_5
REMARK    3  A    between atoms: C_10  and  N_11
REMARK    4  A    between atoms: N_11  and  S_12
REMARK    5  A    between atoms: S_12  and  C_15
REMARK                            x       y       z     vdW  Elec       q    Type
REMARK                         _______ _______ _______ _____ _____    ______ ____
ROOT
ATOM      1  C   UNL     1       1.471   8.766  20.188  0.00  0.00    +0.000 A 
ATOM      2  C   UNL     1       1.617   9.638  19.108  0.00  0.00    +0.000 A 
ATOM      3  C   UNL     1       2.110   9.131  17.928  0.00  0.00    +0.000 A 
ATOM      4  N   UNL     1       2.474   7.846  17.765  0.00  0.00    +0.000 NA
ATOM      5  C   UNL     1       2.315   6.982  18.790  0.00  0.00    +0.000 A 
ATOM      6  C   UNL     1       2.657   5.632  18.602  0.00  0.00    +0.000 A 
ATOM      7  C   UNL     1       2.520   4.687  19.620  0.00  0.00    +0.000 A 
ATOM      8  C   UNL     1       2.053   5.082  20.863  0.00  0.00    +0.000 A 
ATOM      9  C   UNL     1       1.698   6.413  21.073  0.00  0.00    +0.000 A 
ATOM     10  C   UNL     1       1.819   7.392  20.051  0.00  0.00    +0.000 A 
ENDROOT
BRANCH   1  13
ATOM     11  C   UNL     1      -0.877  10.344  22.720  0.00  0.00    +0.000 C 
ATOM     12  N   UNL     1      -0.306   9.808  21.508  0.00  0.00    +0.000 N 
ATOM     13  C   UNL     1       0.996   9.343  21.486  0.00  0.00    +0.000 C 
ATOM     14  O   UNL     1       1.734   9.404  22.462  0.00  0.00    +0.000 OA
ATOM     15  H   UNL     1      -0.933   9.599  20.742  0.00  0.00    +0.000 HD
ENDBRANCH   1  13
BRANCH   6  16
ATOM     16  N   UNL     1       3.176   5.167  17.346  0.00  0.00    +0.000 N 
ATOM     17  H   UNL     1       2.487   4.730  16.737  0.00  0.00    +0.000 HD
BRANCH  16  18
ATOM     18  S   UNL     1       4.635   4.317  17.328  0.00  0.00    +0.000 S 
ATOM     19  O   UNL     1       4.561   3.365  18.416  0.00  0.00    +0.000 OA
ATOM     20  O   UNL     1       4.893   3.869  15.975  0.00  0.00    +0.000 OA
BRANCH  18  21
ATOM     21  C   UNL     1       5.902   5.494  17.755  0.00  0.00    +0.000 A 
ATOM     22  C   UNL     1       6.841   5.169  18.743  0.00  0.00    +0.000 A 
ATOM     23  C   UNL     1       7.878   6.062  19.035  0.00  0.00    +0.000 A 
ATOM     24  C   UNL     1       7.975   7.268  18.334  0.00  0.00    +0.000 A 
ATOM     25  C   UNL     1       7.053   7.578  17.335  0.00  0.00    +0.000 A 
ATOM     26  C   UNL     1       6.019   6.687  17.034  0.00  0.00    +0.000 A 
ENDBRANCH  18  21
ENDBRANCH  16  18
ENDBRANCH   6  16
TORSDOF 4
ENDMDL
MODEL 6
REMARK VINA RESULT:      -7.2      2.447      3.561
REMARK  Name = 
REMARK  5 active torsions:
REMARK  status: ('A' for Active; 'I' for Inactive)
REMARK    1  A    between atoms: C_1  and  N_2
REMARK    2  A    between atoms: C_3  and  C_5
REMARK    3  A    between atoms: C_10  and  N_11
REMARK    4  A    between atoms: N_11  and  S_12
REMARK    5  A    between atoms: S_12  and  C_15
REMARK                            x       y       z     vdW  Elec       q    Type
REMARK                         _______ _______ _______ _____ _____    ______ ____
ROOT
ATOM      1  C   UNL     1       1.560   8.594  20.230  0.00  0.00    +0.000 A 
ATOM      2  C   UNL     1       1.686   9.486  19.164  0.00  0.00    +0.000 A 
ATOM      3  C   UNL     1       2.170   9.004  17.971  0.00  0.00    +0.000 A 
ATOM      4  N   UNL     1       2.544   7.725  17.781  0.00  0.00    +0.000 NA
ATOM      5  C   UNL     1       2.404   6.842  18.793  0.00  0.00    +0.000 A 
ATOM      6  C   UNL     1       2.756   5.499  18.578  0.00  0.00    +0.000 A 
ATOM      7  C   UNL     1       2.640   4.536  19.580  0.00  0.00    +0.000 A 
ATOM      8  C   UNL     1       2.183   4.904  20.835  0.00  0.00    +0.000 A 
ATOM      9  C   UNL     1       1.818   6.228  21.072  0.00  0.00    +0.000 A 
ATOM     10  C   UNL     1       1.918   7.226  20.066  0.00  0.00    +0.000 A 
ENDROOT
BRANCH   1  13
ATOM     11  C   UNL     1      -0.821   9.882  22.893  0.00  0.00    +0.000 C 
ATOM     12  N   UNL     1      -0.262   9.391  21.656  0.00  0.00    +0.000 N 
ATOM     13  C   UNL     1       1.095   9.144  21.543  0.00  0.00    +0.000 C 
ATOM     14  O   UNL     1       1.883   9.369  22.453  0.00  0.00    +0.000 OA
ATOM     15  H   UNL     1      -0.900   9.049  20.951  0.00  0.00    +0.000 HD
ENDBRANCH   1  13
BRANCH   6  16
ATOM     16  N   UNL     1       3.266   5.060  17.308  0.00  0.00    +0.000 N 
ATOM     17  H   UNL     1       2.569   4.647  16.691  0.00  0.00    +0.000 HD
BRANCH  16  18
ATOM     18  S   UNL     1       4.715   4.195  17.262  0.00  0.00    +0.000 S 
ATOM     19  O   UNL     1       4.659   3.256  18.363  0.00  0.00    +0.000 OA
ATOM     20  O   UNL     1       4.934   3.730  15.909  0.00  0.00    +0.000 OA
BRANCH  18  21
ATOM     21  C   UNL     1       6.004   5.364  17.645  0.00  0.00    +0.000 A 
ATOM     22  C   UNL     1       6.043   6.592  16.973  0.00  0.00    +0.000 A 
ATOM     23  C   UNL     1       7.012   7.541  17.317  0.00  0.00    +0.000 A 
ATOM     24  C   UNL     1       7.929   7.261  18.335  0.00  0.00    +0.000 A 
ATOM     25  C   UNL     1       7.872   6.047  19.019  0.00  0.00    +0.000 A 
ATOM     26  C   UNL     1       6.903   5.097  18.683  0.00  0.00    +0.000 A 
ENDBRANCH  18  21
ENDBRANCH  16  18
ENDBRANCH   6  16
TORSDOF 4
ENDMDL
MODEL 7
REMARK VINA RESULT:      -7.1      1.293      1.695
REMARK  Name = 
REMARK  5 active torsions:
REMARK  status: ('A' for Active; 'I' for Inactive)
REMARK    1  A    between atoms: C_1  and  N_2
REMARK    2  A    between atoms: C_3  and  C_5
REMARK    3  A    between atoms: C_10  and  N_11
REMARK    4  A    between atoms: N_11  and  S_12
REMARK    5  A    between atoms: S_12  and  C_15
REMARK                            x       y       z     vdW  Elec       q    Type
REMARK                         _______ _______ _______ _____ _____    ______ ____
ROOT
ATOM      1  C   UNL     1       0.116  10.367  20.314  0.00  0.00    +0.000 A 
ATOM      2  C   UNL     1      -0.083  10.241  21.690  0.00  0.00    +0.000 A 
ATOM      3  C   UNL     1       0.499   9.174  22.333  0.00  0.00    +0.000 A 
ATOM      4  N   UNL     1       1.233   8.236  21.706  0.00  0.00    +0.000 NA
ATOM      5  C   UNL     1       1.458   8.356  20.380  0.00  0.00    +0.000 A 
ATOM      6  C   UNL     1       2.260   7.398  19.736  0.00  0.00    +0.000 A 
ATOM      7  C   UNL     1       2.530   7.461  18.369  0.00  0.00    +0.000 A 
ATOM      8  C   UNL     1       1.982   8.480  17.607  0.00  0.00    +0.000 A 
ATOM      9  C   UNL     1       1.191   9.448  18.223  0.00  0.00    +0.000 A 
ATOM     10  C   UNL     1       0.909   9.413  19.615  0.00  0.00    +0.000 A 
ENDROOT
BRANCH   1  13
ATOM     11  C   UNL     1      -0.425  13.816  18.820  0.00  0.00    +0.000 C 
ATOM     12  N   UNL     1       0.133  12.679  19.513  0.00  0.00    +0.000 N 
ATOM     13  C   UNL     1      -0.576  11.496  19.613  0.00  0.00    +0.000 C 
ATOM     14  O   UNL     1      -1.710  11.368  19.170  0.00  0.00    +0.000 OA
ATOM     15  H   UNL     1       1.117  12.703  19.746  0.00  0.00    +0.000 HD
ENDBRANCH   1  13
BRANCH   6  16
ATOM     16  N   UNL     1       2.831   6.300  20.464  0.00  0.00    +0.000 N 
ATOM     17  H   UNL     1       3.824   6.148  20.294  0.00  0.00    +0.000 HD
BRANCH  16  18
ATOM     18  S   UNL     1       1.990   4.837  20.533  0.00  0.00    +0.000 S 
ATOM     19  O   UNL     1       2.295   4.258  21.825  0.00  0.00    +0.000 OA
ATOM     20  O   UNL     1       0.618   5.073  20.137  0.00  0.00    +0.000 OA
BRANCH  18  21
ATOM     21  C   UNL     1       2.731   3.780  19.305  0.00  0.00    +0.000 A 
ATOM     22  C   UNL     1       2.758   2.395  19.513  0.00  0.00    +0.000 A 
ATOM     23  C   UNL     1       3.277   1.554  18.522  0.00  0.00    +0.000 A 
ATOM     24  C   UNL     1       3.757   2.101  17.328  0.00  0.00    +0.000 A 
ATOM     25  C   UNL     1       3.706   3.479  17.114  0.00  0.00    +0.000 A 
ATOM     26  C   UNL     1       3.184   4.322  18.098  0.00  0.00    +0.000 A 
ENDBRANCH  18  21
ENDBRANCH  16  18
ENDBRANCH   6  16
TORSDOF 4
ENDMDL
MODEL 8
REMARK VINA RESULT:      -7.1      1.207      1.264
REMARK  Name = 
REMARK  5 active torsions:
REMARK  status: ('A' for Active; 'I' for Inactive)
REMARK    1  A    between atoms: C_1  and  N_2
REMARK    2  A    between atoms: C_3  and  C_5
REMARK    3  A    between atoms: C_10  and  N_11
REMARK    4  A    between atoms: N_11  and  S_12
REMARK    5  A    between atoms: S_12  and  C_15
REMARK                            x       y       z     vdW  Elec       q    Type
REMARK                         _______ _______ _______ _____ _____    ______ ____
ROOT
ATOM      1  C   UNL     1      -0.201  10.625  20.766  0.00  0.00    +0.000 A 
ATOM      2  C   UNL     1      -0.285  10.315  22.124  0.00  0.00    +0.000 A 
ATOM      3  C   UNL     1       0.396   9.210  22.579  0.00  0.00    +0.000 A 
ATOM      4  N   UNL     1       1.123   8.403  21.783  0.00  0.00    +0.000 NA
ATOM      5  C   UNL     1       1.236   8.703  20.471  0.00  0.00    +0.000 A 
ATOM      6  C   UNL     1       2.030   7.882  19.652  0.00  0.00    +0.000 A 
ATOM      7  C   UNL     1       2.188   8.133  18.289  0.00  0.00    +0.000 A 
ATOM      8  C   UNL     1       1.534   9.207  17.708  0.00  0.00    +0.000 A 
ATOM      9  C   UNL     1       0.748  10.043  18.500  0.00  0.00    +0.000 A 
ATOM     10  C   UNL     1       0.579   9.814  19.892  0.00  0.00    +0.000 A 
ENDROOT
BRANCH   1  13
ATOM     11  C   UNL     1      -1.154  14.236  20.078  0.00  0.00    +0.000 C 
ATOM     12  N   UNL     1      -0.485  13.045  20.547  0.00  0.00    +0.000 N 
ATOM     13  C   UNL     1      -1.000  11.792  20.271  0.00  0.00    +0.000 C 
ATOM     14  O   UNL     1      -2.053  11.631  19.667  0.00  0.00    +0.000 OA
ATOM     15  H   UNL     1       0.456  13.141  20.903  0.00  0.00    +0.000 HD
ENDBRANCH   1  13
BRANCH   6  16
ATOM     16  N   UNL     1       2.709   6.735  20.187  0.00  0.00    +0.000 N 
ATOM     17  H   UNL     1       3.526   6.951  20.755  0.00  0.00    +0.000 HD
BRANCH  16  18
ATOM     18  S   UNL     1       2.996   5.410  19.180  0.00  0.00    +0.000 S 
ATOM     19  O   UNL     1       3.047   4.250  20.046  0.00  0.00    +0.000 OA
ATOM     20  O   UNL     1       2.066   5.461  18.072  0.00  0.00    +0.000 OA
BRANCH  18  21
ATOM     21  C   UNL     1       4.635   5.635  18.518  0.00  0.00    +0.000 A 
ATOM     22  C   UNL     1       4.797   6.260  17.275  0.00  0.00    +0.000 A 
ATOM     23  C   UNL     1       6.084   6.500  16.781  0.00  0.00    +0.000 A 
ATOM     24  C   UNL     1       7.199   6.123  17.536  0.00  0.00    +0.000 A 
ATOM     25  C   UNL     1       7.035   5.523  18.784  0.00  0.00    +0.000 A 
ATOM     26  C   UNL     1       5.751   5.286  19.285  0.00  0.00    +0.000 A 
ENDBRANCH  18  21
ENDBRANCH  16  18
ENDBRANCH   6  16
TORSDOF 4
ENDMDL
MODEL 9
REMARK VINA RESULT:      -7.1      3.782      6.045
REMARK  Name = 
REMARK  5 active torsions:
REMARK  status: ('A' for Active; 'I' for Inactive)
REMARK    1  A    between atoms: C_1  and  N_2
REMARK    2  A    between atoms: C_3  and  C_5
REMARK    3  A    between atoms: C_10  and  N_11
REMARK    4  A    between atoms: N_11  and  S_12
REMARK    5  A    between atoms: S_12  and  C_15
REMARK                            x       y       z     vdW  Elec       q    Type
REMARK                         _______ _______ _______ _____ _____    ______ ____
ROOT
ATOM      1  C   UNL     1      -4.560  11.645  17.582  0.00  0.00    +0.000 A 
ATOM      2  C   UNL     1      -4.094  10.954  16.462  0.00  0.00    +0.000 A 
ATOM      3  C   UNL     1      -2.784  10.536  16.459  0.00  0.00    +0.000 A 
ATOM      4  N   UNL     1      -1.924  10.773  17.467  0.00  0.00    +0.000 NA
ATOM      5  C   UNL     1      -2.364  11.418  18.568  0.00  0.00    +0.000 A 
ATOM      6  C   UNL     1      -1.475  11.627  19.636  0.00  0.00    +0.000 A 
ATOM      7  C   UNL     1      -1.863  12.288  20.802  0.00  0.00    +0.000 A 
ATOM      8  C   UNL     1      -3.155  12.775  20.916  0.00  0.00    +0.000 A 
ATOM      9  C   UNL     1      -4.060  12.573  19.875  0.00  0.00    +0.000 A 
ATOM     10  C   UNL     1      -3.692  11.895  18.682  0.00  0.00    +0.000 A 
ENDROOT
BRANCH   1  13
ATOM     11  C   UNL     1      -7.466  14.000  16.928  0.00  0.00    +0.000 C 
ATOM     12  N   UNL     1      -6.145  13.431  17.046  0.00  0.00    +0.000 N 
ATOM     13  C   UNL     1      -5.969  12.153  17.546  0.00  0.00    +0.000 C 
ATOM     14  O   UNL     1      -6.901  11.469  17.950  0.00  0.00    +0.000 OA
ATOM     15  H   UNL     1      -5.383  13.902  16.578  0.00  0.00    +0.000 HD
ENDBRANCH   1  13
BRANCH   6  16
ATOM     16  N   UNL     1      -0.113  11.173  19.566  0.00  0.00    +0.000 N 
ATOM     17  H   UNL     1       0.223  10.981  18.625  0.00  0.00    +0.000 HD
BRANCH  16  18
ATOM     18  S   UNL     1       0.416   9.999  20.658  0.00  0.00    +0.000 S 
ATOM     19  O   UNL     1       1.289  10.680  21.591  0.00  0.00    +0.000 OA
ATOM     20  O   UNL     1      -0.733   9.258  21.133  0.00  0.00    +0.000 OA
BRANCH  18  21
ATOM     21  C   UNL     1       1.433   8.874  19.723  0.00  0.00    +0.000 A 
ATOM     22  C   UNL     1       1.797   7.644  20.286  0.00  0.00    +0.000 A 
ATOM     23  C   UNL     1       2.539   6.728  19.531  0.00  0.00    +0.000 A 
ATOM     24  C   UNL     1       2.904   7.044  18.218  0.00  0.00    +0.000 A 
ATOM     25  C   UNL     1       2.520   8.259  17.653  0.00  0.00    +0.000 A 
ATOM     26  C   UNL     1       1.774   9.175  18.401  0.00  0.00    +0.000 A 
ENDBRANCH  18  21
ENDBRANCH  16  18
ENDBRANCH   6  16
TORSDOF 4
ENDMDL
