MODEL 1
REMARK VINA RESULT:      -7.3      0.000      0.000
REMARK  Name = 
REMARK  3 active torsions:
REMARK  status: ('A' for Active; 'I' for Inactive)
REMARK    1  A    between atoms: C_1  and  C_2
REMARK    2  A    between atoms: N_16  and  C_17
REMARK    3  A    between atoms: C_18  and  O_19
REMARK                            x       y       z     vdW  Elec       q    Type
REMARK                         _______ _______ _______ _____ _____    ______ ____
ROOT
ATOM      1  C   UNL     1       7.191   4.751  14.798  0.00  0.00    +0.000 C 
ATOM      2  C   UNL     1       6.299   4.562  15.993  0.00  0.00    +0.000 A 
ATOM      3  S   UNL     1       4.617   4.187  15.649  0.00  0.00    +0.000 S 
ATOM      4  C   UNL     1       4.110   3.609  17.196  0.00  0.00    +0.000 A 
ATOM      5  C   UNL     1       2.644   3.504  17.449  0.00  0.00    +0.000 A 
ATOM      6  O   UNL     1       1.778   3.486  16.584  0.00  0.00    +0.000 OA
ATOM      7  C   UNL     1       2.255   3.525  18.876  0.00  0.00    +0.000 A 
ATOM      8  C   UNL     1       1.260   4.348  19.378  0.00  0.00    +0.000 A 
ATOM      9  C   UNL     1       0.975   4.301  20.748  0.00  0.00    +0.000 A 
ATOM     10  C   UNL     1       1.592   3.350  21.570  0.00  0.00    +0.000 A 
ATOM     11  C   UNL     1       2.632   2.576  21.073  0.00  0.00    +0.000 A 
ATOM     12  C   UNL     1       3.036   2.793  19.758  0.00  0.00    +0.000 A 
ATOM     13  C   UNL     1       4.474   2.734  19.440  0.00  0.00    +0.000 A 
ATOM     14  O   UNL     1       5.264   2.163  20.168  0.00  0.00    +0.000 OA
ATOM     15  C   UNL     1       4.898   3.607  18.283  0.00  0.00    +0.000 A 
ATOM     16  N   UNL     1       6.047   4.409  18.415  0.00  0.00    +0.000 N 
ATOM     17  C   UNL     1       6.054   5.329  19.569  0.00  0.00    +0.000 C 
ATOM     18  C   UNL     1       6.752   4.746  17.254  0.00  0.00    +0.000 A 
ENDROOT
BRANCH  18  19
ATOM     19  O   UNL     1       7.999   5.312  17.421  0.00  0.00    +0.000 OA
ATOM     20  H   UNL     1       7.864   6.147  17.890  0.00  0.00    +0.000 HD
ENDBRANCH  18  19
TORSDOF 1
ENDMDL
MODEL 2
REMARK VINA RESULT:      -6.5      2.575      5.500
REMARK  Name = 
REMARK  3 active torsions:
REMARK  status: ('A' for Active; 'I' for Inactive)
REMARK    1  A    between atoms: C_1  and  C_2
REMARK    2  A    between atoms: N_16  and  C_17
REMARK    3  A    between atoms: C_18  and  O_19
REMARK                            x       y       z     vdW  Elec       q    Type
REMARK                         _______ _______ _______ _____ _____    ______ ____
ROOT
ATOM      1  C   UNL     1       0.465   2.072  18.665  0.00  0.00    +0.000 C 
ATOM      2  C   UNL     1       1.604   3.048  18.571  0.00  0.00    +0.000 A 
ATOM      3  S   UNL     1       2.937   2.578  17.527  0.00  0.00    +0.000 S 
ATOM      4  C   UNL     1       3.734   4.100  17.346  0.00  0.00    +0.000 A 
ATOM      5  C   UNL     1       5.127   4.092  16.811  0.00  0.00    +0.000 A 
ATOM      6  O   UNL     1       5.643   3.165  16.201  0.00  0.00    +0.000 OA
ATOM      7  C   UNL     1       5.933   5.284  17.156  0.00  0.00    +0.000 A 
ATOM      8  C   UNL     1       7.212   5.206  17.683  0.00  0.00    +0.000 A 
ATOM      9  C   UNL     1       7.888   6.393  17.987  0.00  0.00    +0.000 A 
ATOM     10  C   UNL     1       7.335   7.633  17.646  0.00  0.00    +0.000 A 
ATOM     11  C   UNL     1       6.029   7.704  17.180  0.00  0.00    +0.000 A 
ATOM     12  C   UNL     1       5.306   6.517  17.085  0.00  0.00    +0.000 A 
ATOM     13  C   UNL     1       3.877   6.530  17.444  0.00  0.00    +0.000 A 
ATOM     14  O   UNL     1       3.234   7.563  17.467  0.00  0.00    +0.000 OA
ATOM     15  C   UNL     1       3.353   5.219  17.983  0.00  0.00    +0.000 A 
ATOM     16  N   UNL     1       2.551   5.224  19.138  0.00  0.00    +0.000 N 
ATOM     17  C   UNL     1       3.143   5.877  20.323  0.00  0.00    +0.000 C 
ATOM     18  C   UNL     1       1.631   4.182  19.306  0.00  0.00    +0.000 A 
ENDROOT
BRANCH  18  19
ATOM     19  O   UNL     1       0.690   4.334  20.304  0.00  0.00    +0.000 OA
ATOM     20  H   UNL     1      -0.176   4.293  19.878  0.00  0.00    +0.000 HD
ENDBRANCH  18  19
TORSDOF 1
ENDMDL
MODEL 3
REMARK VINA RESULT:      -6.3      2.562      5.487
REMARK  Name = 
REMARK  3 active torsions:
REMARK  status: ('A' for Active; 'I' for Inactive)
REMARK    1  A    between atoms: C_1  and  C_2
REMARK    2  A    between atoms: N_16  and  C_17
REMARK    3  A    between atoms: C_18  and  O_19
REMARK                            x       y       z     vdW  Elec       q    Type
REMARK                         _______ _______ _______ _____ _____    ______ ____
ROOT
ATOM      1  C   UNL     1       0.969   6.800  21.197  0.00  0.00    +0.000 C 
ATOM      2  C   UNL     1       2.012   6.265  20.257  0.00  0.00    +0.000 A 
ATOM      3  S   UNL     1       2.385   7.271  18.865  0.00  0.00    +0.000 S 
ATOM      4  C   UNL     1       3.875   6.555  18.361  0.00  0.00    +0.000 A 
ATOM      5  C   UNL     1       4.372   6.883  16.994  0.00  0.00    +0.000 A 
ATOM      6  O   UNL     1       4.005   7.836  16.319  0.00  0.00    +0.000 OA
ATOM      7  C   UNL     1       5.309   5.893  16.418  0.00  0.00    +0.000 A 
ATOM      8  C   UNL     1       5.166   5.368  15.144  0.00  0.00    +0.000 A 
ATOM      9  C   UNL     1       6.101   4.426  14.696  0.00  0.00    +0.000 A 
ATOM     10  C   UNL     1       7.227   4.120  15.469  0.00  0.00    +0.000 A 
ATOM     11  C   UNL     1       7.327   4.600  16.768  0.00  0.00    +0.000 A 
ATOM     12  C   UNL     1       6.275   5.368  17.261  0.00  0.00    +0.000 A 
ATOM     13  C   UNL     1       5.869   5.190  18.667  0.00  0.00    +0.000 A 
ATOM     14  O   UNL     1       6.615   4.691  19.488  0.00  0.00    +0.000 OA
ATOM     15  C   UNL     1       4.408   5.467  18.939  0.00  0.00    +0.000 A 
ATOM     16  N   UNL     1       3.673   4.560  19.722  0.00  0.00    +0.000 N 
ATOM     17  C   UNL     1       3.682   3.159  19.255  0.00  0.00    +0.000 C 
ATOM     18  C   UNL     1       2.571   5.047  20.435  0.00  0.00    +0.000 A 
ENDROOT
BRANCH  18  19
ATOM     19  O   UNL     1       2.020   4.209  21.383  0.00  0.00    +0.000 OA
ATOM     20  H   UNL     1       2.608   4.231  22.149  0.00  0.00    +0.000 HD
ENDBRANCH  18  19
TORSDOF 1
ENDMDL
MODEL 4
REMARK VINA RESULT:      -6.1      1.965      2.113
REMARK  Name = 
REMARK  3 active torsions:
REMARK  status: ('A' for Active; 'I' for Inactive)
REMARK    1  A    between atoms: C_1  and  C_2
REMARK    2  A    between atoms: N_16  and  C_17
REMARK    3  A    between atoms: C_18  and  O_19
REMARK                            x       y       z     vdW  Elec       q    Type
REMARK                         _______ _______ _______ _____ _____    ______ ____
ROOT
ATOM      1  C   UNL     1       6.807   4.958  14.268  0.00  0.00    +0.000 C 
ATOM      2  C   UNL     1       5.815   4.833  15.390  0.00  0.00    +0.000 A 
ATOM      3  S   UNL     1       5.326   3.198  15.808  0.00  0.00    +0.000 S 
ATOM      4  C   UNL     1       4.611   3.480  17.356  0.00  0.00    +0.000 A 
ATOM      5  C   UNL     1       3.748   2.405  17.926  0.00  0.00    +0.000 A 
ATOM      6  O   UNL     1       3.745   1.236  17.562  0.00  0.00    +0.000 OA
ATOM      7  C   UNL     1       2.771   2.863  18.938  0.00  0.00    +0.000 A 
ATOM      8  C   UNL     1       1.427   2.526  18.900  0.00  0.00    +0.000 A 
ATOM      9  C   UNL     1       0.581   3.021  19.900  0.00  0.00    +0.000 A 
ATOM     10  C   UNL     1       1.105   3.731  20.986  0.00  0.00    +0.000 A 
ATOM     11  C   UNL     1       2.438   4.119  20.983  0.00  0.00    +0.000 A 
ATOM     12  C   UNL     1       3.209   3.790  19.870  0.00  0.00    +0.000 A 
ATOM     13  C   UNL     1       4.198   4.768  19.382  0.00  0.00    +0.000 A 
ATOM     14  O   UNL     1       4.618   5.660  20.095  0.00  0.00    +0.000 OA
ATOM     15  C   UNL     1       4.469   4.701  17.897  0.00  0.00    +0.000 A 
ATOM     16  N   UNL     1       4.502   5.893  17.152  0.00  0.00    +0.000 N 
ATOM     17  C   UNL     1       3.297   6.741  17.250  0.00  0.00    +0.000 C 
ATOM     18  C   UNL     1       5.278   5.921  15.987  0.00  0.00    +0.000 A 
ENDROOT
BRANCH  18  19
ATOM     19  O   UNL     1       5.499   7.155  15.412  0.00  0.00    +0.000 OA
ATOM     20  H   UNL     1       6.393   7.424  15.663  0.00  0.00    +0.000 HD
ENDBRANCH  18  19
TORSDOF 1
ENDMDL
MODEL 5
REMARK VINA RESULT:      -6.0      2.150      2.774
REMARK  Name = 
REMARK  3 active torsions:
REMARK  status: ('A' for Active; 'I' for Inactive)
REMARK    1  A    between atoms: C_1  and  C_2
REMARK    2  A    between atoms: N_16  and  C_17
REMARK    3  A    between atoms: C_18  and  O_19
REMARK                            x       y       z     vdW  Elec       q    Type
REMARK                         _______ _______ _______ _____ _____    ______ ____
ROOT
ATOM      1  C   UNL     1       5.852   6.491  15.001  0.00  0.00    +0.000 C 
ATOM      2  C   UNL     1       5.100   5.754  16.073  0.00  0.00    +0.000 A 
ATOM      3  S   UNL     1       4.334   6.750  17.302  0.00  0.00    +0.000 S 
ATOM      4  C   UNL     1       3.251   5.597  17.998  0.00  0.00    +0.000 A 
ATOM      5  C   UNL     1       2.645   5.928  19.320  0.00  0.00    +0.000 A 
ATOM      6  O   UNL     1       2.588   7.049  19.810  0.00  0.00    +0.000 OA
ATOM      7  C   UNL     1       2.177   4.761  20.100  0.00  0.00    +0.000 A 
ATOM      8  C   UNL     1       2.501   4.563  21.433  0.00  0.00    +0.000 A 
ATOM      9  C   UNL     1       2.018   3.419  22.079  0.00  0.00    +0.000 A 
ATOM     10  C   UNL     1       1.121   2.562  21.431  0.00  0.00    +0.000 A 
ATOM     11  C   UNL     1       0.855   2.732  20.079  0.00  0.00    +0.000 A 
ATOM     12  C   UNL     1       1.516   3.759  19.409  0.00  0.00    +0.000 A 
ATOM     13  C   UNL     1       1.979   3.520  18.030  0.00  0.00    +0.000 A 
ATOM     14  O   UNL     1       1.508   2.633  17.344  0.00  0.00    +0.000 OA
ATOM     15  C   UNL     1       3.208   4.305  17.636  0.00  0.00    +0.000 A 
ATOM     16  N   UNL     1       4.258   3.647  16.970  0.00  0.00    +0.000 N 
ATOM     17  C   UNL     1       4.806   2.461  17.658  0.00  0.00    +0.000 C 
ATOM     18  C   UNL     1       5.080   4.403  16.126  0.00  0.00    +0.000 A 
ENDROOT
BRANCH  18  19
ATOM     19  O   UNL     1       5.935   3.706  15.297  0.00  0.00    +0.000 OA
ATOM     20  H   UNL     1       6.833   3.904  15.595  0.00  0.00    +0.000 HD
ENDBRANCH  18  19
TORSDOF 1
ENDMDL
MODEL 6
REMARK VINA RESULT:      -5.9      8.177      9.649
REMARK  Name = 
REMARK  3 active torsions:
REMARK  status: ('A' for Active; 'I' for Inactive)
REMARK    1  A    between atoms: C_1  and  C_2
REMARK    2  A    between atoms: N_16  and  C_17
REMARK    3  A    between atoms: C_18  and  O_19
REMARK                            x       y       z     vdW  Elec       q    Type
REMARK                         _______ _______ _______ _____ _____    ______ ____
ROOT
ATOM      1  C   UNL     1       2.267   7.750  18.963  0.00  0.00    +0.000 C 
ATOM      2  C   UNL     1       1.456   8.888  19.517  0.00  0.00    +0.000 A 
ATOM      3  S   UNL     1       0.955   8.733  21.194  0.00  0.00    +0.000 S 
ATOM      4  C   UNL     1       0.504  10.367  21.530  0.00  0.00    +0.000 A 
ATOM      5  C   UNL     1      -0.314  10.622  22.751  0.00  0.00    +0.000 A 
ATOM      6  O   UNL     1      -0.433   9.850  23.694  0.00  0.00    +0.000 OA
ATOM      7  C   UNL     1      -1.097  11.876  22.725  0.00  0.00    +0.000 A 
ATOM      8  C   UNL     1      -2.446  11.933  23.037  0.00  0.00    +0.000 A 
ATOM      9  C   UNL     1      -3.101  13.169  22.971  0.00  0.00    +0.000 A 
ATOM     10  C   UNL     1      -2.380  14.342  22.720  0.00  0.00    +0.000 A 
ATOM     11  C   UNL     1      -1.045  14.268  22.344  0.00  0.00    +0.000 A 
ATOM     12  C   UNL     1      -0.474  13.004  22.215  0.00  0.00    +0.000 A 
ATOM     13  C   UNL     1       0.477  12.767  21.114  0.00  0.00    +0.000 A 
ATOM     14  O   UNL     1       1.046  13.685  20.554  0.00  0.00    +0.000 OA
ATOM     15  C   UNL     1       0.510  11.343  20.609  0.00  0.00    +0.000 A 
ATOM     16  N   UNL     1       0.488  11.107  19.222  0.00  0.00    +0.000 N 
ATOM     17  C   UNL     1      -0.643  11.712  18.490  0.00  0.00    +0.000 C 
ATOM     18  C   UNL     1       1.074   9.929  18.744  0.00  0.00    +0.000 A 
ENDROOT
BRANCH  18  19
ATOM     19  O   UNL     1       1.266   9.834  17.381  0.00  0.00    +0.000 OA
ATOM     20  H   UNL     1       1.955  10.472  17.152  0.00  0.00    +0.000 HD
ENDBRANCH  18  19
TORSDOF 1
ENDMDL
MODEL 7
REMARK VINA RESULT:      -5.9      3.225      4.938
REMARK  Name = 
REMARK  3 active torsions:
REMARK  status: ('A' for Active; 'I' for Inactive)
REMARK    1  A    between atoms: C_1  and  C_2
REMARK    2  A    between atoms: N_16  and  C_17
REMARK    3  A    between atoms: C_18  and  O_19
REMARK                            x       y       z     vdW  Elec       q    Type
REMARK                         _______ _______ _______ _____ _____    ______ ____
ROOT
ATOM      1  C   UNL     1       1.173   9.362  20.279  0.00  0.00    +0.000 C 
ATOM      2  C   UNL     1       1.693   8.006  19.893  0.00  0.00    +0.000 A 
ATOM      3  S   UNL     1       1.649   6.777  21.148  0.00  0.00    +0.000 S 
ATOM      4  C   UNL     1       1.864   5.355  20.191  0.00  0.00    +0.000 A 
ATOM      5  C   UNL     1       2.237   4.095  20.898  0.00  0.00    +0.000 A 
ATOM      6  O   UNL     1       2.101   3.893  22.097  0.00  0.00    +0.000 OA
ATOM      7  C   UNL     1       2.906   3.082  20.053  0.00  0.00    +0.000 A 
ATOM      8  C   UNL     1       4.081   2.446  20.421  0.00  0.00    +0.000 A 
ATOM      9  C   UNL     1       4.642   1.510  19.544  0.00  0.00    +0.000 A 
ATOM     10  C   UNL     1       3.964   1.130  18.381  0.00  0.00    +0.000 A 
ATOM     11  C   UNL     1       2.824   1.818  17.988  0.00  0.00    +0.000 A 
ATOM     12  C   UNL     1       2.405   2.888  18.776  0.00  0.00    +0.000 A 
ATOM     13  C   UNL     1       1.868   4.088  18.110  0.00  0.00    +0.000 A 
ATOM     14  O   UNL     1       1.446   4.050  16.969  0.00  0.00    +0.000 OA
ATOM     15  C   UNL     1       2.087   5.377  18.867  0.00  0.00    +0.000 A 
ATOM     16  N   UNL     1       2.561   6.506  18.175  0.00  0.00    +0.000 N 
ATOM     17  C   UNL     1       3.823   6.317  17.433  0.00  0.00    +0.000 C 
ATOM     18  C   UNL     1       2.232   7.772  18.675  0.00  0.00    +0.000 A 
ENDROOT
BRANCH  18  19
ATOM     19  O   UNL     1       2.487   8.853  17.857  0.00  0.00    +0.000 OA
ATOM     20  H   UNL     1       3.378   9.159  18.070  0.00  0.00    +0.000 HD
ENDBRANCH  18  19
TORSDOF 1
ENDMDL
MODEL 8
REMARK VINA RESULT:      -5.9      1.966      2.348
REMARK  Name = 
REMARK  3 active torsions:
REMARK  status: ('A' for Active; 'I' for Inactive)
REMARK    1  A    between atoms: C_1  and  C_2
REMARK    2  A    between atoms: N_16  and  C_17
REMARK    3  A    between atoms: C_18  and  O_19
REMARK                            x       y       z     vdW  Elec       q    Type
REMARK                         _______ _______ _______ _____ _____    ______ ____
ROOT
ATOM      1  C   UNL     1       7.710   7.422  17.322  0.00  0.00    +0.000 C 
ATOM      2  C   UNL     1       6.574   6.535  17.750  0.00  0.00    +0.000 A 
ATOM      3  S   UNL     1       4.972   7.254  17.695  0.00  0.00    +0.000 S 
ATOM      4  C   UNL     1       3.996   5.831  17.790  0.00  0.00    +0.000 A 
ATOM      5  C   UNL     1       2.552   6.003  18.125  0.00  0.00    +0.000 A 
ATOM      6  O   UNL     1       1.927   7.052  18.033  0.00  0.00    +0.000 OA
ATOM      7  C   UNL     1       1.900   4.807  18.700  0.00  0.00    +0.000 A 
ATOM      8  C   UNL     1       1.134   4.843  19.854  0.00  0.00    +0.000 A 
ATOM      9  C   UNL     1       0.568   3.652  20.324  0.00  0.00    +0.000 A 
ATOM     10  C   UNL     1       0.667   2.474  19.574  0.00  0.00    +0.000 A 
ATOM     11  C   UNL     1       1.489   2.432  18.456  0.00  0.00    +0.000 A 
ATOM     12  C   UNL     1       2.207   3.581  18.131  0.00  0.00    +0.000 A 
ATOM     13  C   UNL     1       3.586   3.435  17.631  0.00  0.00    +0.000 A 
ATOM     14  O   UNL     1       3.985   2.388  17.157  0.00  0.00    +0.000 OA
ATOM     15  C   UNL     1       4.497   4.597  17.954  0.00  0.00    +0.000 A 
ATOM     16  N   UNL     1       5.785   4.338  18.456  0.00  0.00    +0.000 N 
ATOM     17  C   UNL     1       5.840   3.502  19.672  0.00  0.00    +0.000 C 
ATOM     18  C   UNL     1       6.787   5.286  18.219  0.00  0.00    +0.000 A 
ENDROOT
BRANCH  18  19
ATOM     19  O   UNL     1       8.085   4.906  18.495  0.00  0.00    +0.000 OA
ATOM     20  H   UNL     1       8.655   5.410  17.900  0.00  0.00    +0.000 HD
ENDBRANCH  18  19
TORSDOF 1
ENDMDL
MODEL 9
REMARK VINA RESULT:      -5.8      9.205     10.976
REMARK  Name = 
REMARK  3 active torsions:
REMARK  status: ('A' for Active; 'I' for Inactive)
REMARK    1  A    between atoms: C_1  and  C_2
REMARK    2  A    between atoms: N_16  and  C_17
REMARK    3  A    between atoms: C_18  and  O_19
REMARK                            x       y       z     vdW  Elec       q    Type
REMARK                         _______ _______ _______ _____ _____    ______ ____
ROOT
ATOM      1  C   UNL     1       0.812   9.370  17.953  0.00  0.00    +0.000 C 
ATOM      2  C   UNL     1      -0.075  10.188  18.849  0.00  0.00    +0.000 A 
ATOM      3  S   UNL     1       0.201  10.012  20.576  0.00  0.00    +0.000 S 
ATOM      4  C   UNL     1      -0.642  11.402  21.162  0.00  0.00    +0.000 A 
ATOM      5  C   UNL     1      -0.959  11.454  22.619  0.00  0.00    +0.000 A 
ATOM      6  O   UNL     1      -0.419  10.777  23.484  0.00  0.00    +0.000 OA
ATOM      7  C   UNL     1      -2.088  12.340  22.979  0.00  0.00    +0.000 A 
ATOM      8  C   UNL     1      -3.134  11.941  23.795  0.00  0.00    +0.000 A 
ATOM      9  C   UNL     1      -4.161  12.852  24.067  0.00  0.00    +0.000 A 
ATOM     10  C   UNL     1      -4.069  14.178  23.629  0.00  0.00    +0.000 A 
ATOM     11  C   UNL     1      -3.053  14.552  22.759  0.00  0.00    +0.000 A 
ATOM     12  C   UNL     1      -2.161  13.567  22.339  0.00  0.00    +0.000 A 
ATOM     13  C   UNL     1      -1.692  13.589  20.941  0.00  0.00    +0.000 A 
ATOM     14  O   UNL     1      -1.755  14.597  20.263  0.00  0.00    +0.000 OA
ATOM     15  C   UNL     1      -1.344  12.232  20.375  0.00  0.00    +0.000 A 
ATOM     16  N   UNL     1      -1.812  11.883  19.095  0.00  0.00    +0.000 N 
ATOM     17  C   UNL     1      -3.272  11.980  18.900  0.00  0.00    +0.000 C 
ATOM     18  C   UNL     1      -1.072  10.954  18.354  0.00  0.00    +0.000 A 
ENDROOT
BRANCH  18  19
ATOM     19  O   UNL     1      -1.400  10.815  17.021  0.00  0.00    +0.000 OA
ATOM     20  H   UNL     1      -0.893  11.481  16.538  0.00  0.00    +0.000 HD
ENDBRANCH  18  19
TORSDOF 1
ENDMDL
