MODEL 1
REMARK VINA RESULT:      -8.4      0.000      0.000
REMARK  Name = 
REMARK  6 active torsions:
REMARK  status: ('A' for Active; 'I' for Inactive)
REMARK    1  A    between atoms: C_2  and  OXT_3
REMARK    2  A    between atoms: C_2  and  CA_4
REMARK    3  A    between atoms: C_8  and  O_9
REMARK    4  A    between atoms: C_10  and  O_11
REMARK    5  A    between atoms: C_14  and  C_15
REMARK    6  A    between atoms: C_15  and  C_17
REMARK                            x       y       z     vdW  Elec       q    Type
REMARK                         _______ _______ _______ _____ _____    ______ ____
ROOT
ATOM      1  CA  UNL     1       2.885   6.903  17.935  0.00  0.00    +0.000 A 
ATOM      2  C   UNL     1       2.018   5.871  18.279  0.00  0.00    +0.000 A 
ATOM      3  C   UNL     1       2.484   4.553  18.243  0.00  0.00    +0.000 A 
ATOM      4  C   UNL     1       1.640   3.496  18.644  0.00  0.00    +0.000 A 
ATOM      5  C   UNL     1       2.123   2.194  18.677  0.00  0.00    +0.000 A 
ATOM      6  C   UNL     1       3.419   1.927  18.264  0.00  0.00    +0.000 A 
ATOM      7  C   UNL     1       4.251   2.942  17.818  0.00  0.00    +0.000 A 
ATOM      8  C   UNL     1       3.815   4.290  17.821  0.00  0.00    +0.000 A 
ATOM      9  C   UNL     1       4.600   5.414  17.462  0.00  0.00    +0.000 A 
ATOM     10  N   UNL     1       4.163   6.711  17.526  0.00  0.00    +0.000 NA
ENDROOT
BRANCH   1  12
ATOM     11  O   UNL     1       2.576   9.124  17.096  0.00  0.00    +0.000 OA
ATOM     12  C   UNL     1       2.425   8.321  18.013  0.00  0.00    +0.000 C 
BRANCH  12  13
ATOM     13  OXT UNL     1       1.808   8.638  19.175  0.00  0.00    +0.000 OA
ATOM     14  HXT UNL     1       2.385   9.167  19.772  0.00  0.00    +0.000 HD
ENDBRANCH  12  13
ENDBRANCH   1  12
BRANCH   5  15
ATOM     15  O   UNL     1       1.371   1.147  19.126  0.00  0.00    +0.000 OA
ATOM     16  H   UNL     1       0.543   1.492  19.503  0.00  0.00    +0.000 HD
ENDBRANCH   5  15
BRANCH   6  17
ATOM     17  O   UNL     1       3.910   0.654  18.321  0.00  0.00    +0.000 OA
ATOM     18  H   UNL     1       3.906   0.337  17.397  0.00  0.00    +0.000 HD
ENDBRANCH   6  17
BRANCH   9  19
ATOM     19  C   UNL     1       6.003   5.277  16.951  0.00  0.00    +0.000 C 
ATOM     20  O   UNL     1       6.983   5.401  17.686  0.00  0.00    +0.000 OA
BRANCH  19  21
ATOM     21  C   UNL     1       6.267   4.932  15.534  0.00  0.00    +0.000 A 
ATOM     22  C   UNL     1       5.399   4.111  14.801  0.00  0.00    +0.000 A 
ATOM     23  C   UNL     1       5.685   3.818  13.464  0.00  0.00    +0.000 A 
ATOM     24  C   UNL     1       6.828   4.353  12.878  0.00  0.00    +0.000 A 
ATOM     25  F   UNL     1       7.105   4.051  11.605  0.00  0.00    +0.000 F 
ATOM     26  C   UNL     1       7.674   5.190  13.595  0.00  0.00    +0.000 A 
ATOM     27  F   UNL     1       8.765   5.710  13.018  0.00  0.00    +0.000 F 
ATOM     28  C   UNL     1       7.396   5.495  14.920  0.00  0.00    +0.000 A 
ENDBRANCH  19  21
ENDBRANCH   9  19
TORSDOF 6
ENDMDL
MODEL 2
REMARK VINA RESULT:      -8.2      4.218      7.292
REMARK  Name = 
REMARK  6 active torsions:
REMARK  status: ('A' for Active; 'I' for Inactive)
REMARK    1  A    between atoms: C_2  and  OXT_3
REMARK    2  A    between atoms: C_2  and  CA_4
REMARK    3  A    between atoms: C_8  and  O_9
REMARK    4  A    between atoms: C_10  and  O_11
REMARK    5  A    between atoms: C_14  and  C_15
REMARK    6  A    between atoms: C_15  and  C_17
REMARK                            x       y       z     vdW  Elec       q    Type
REMARK                         _______ _______ _______ _____ _____    ______ ____
ROOT
ATOM      1  CA  UNL     1       2.129   4.216  18.510  0.00  0.00    +0.000 A 
ATOM      2  C   UNL     1       3.350   3.697  18.095  0.00  0.00    +0.000 A 
ATOM      3  C   UNL     1       4.364   4.578  17.704  0.00  0.00    +0.000 A 
ATOM      4  C   UNL     1       5.630   4.076  17.336  0.00  0.00    +0.000 A 
ATOM      5  C   UNL     1       6.659   4.953  17.016  0.00  0.00    +0.000 A 
ATOM      6  C   UNL     1       6.427   6.319  17.006  0.00  0.00    +0.000 A 
ATOM      7  C   UNL     1       5.177   6.833  17.315  0.00  0.00    +0.000 A 
ATOM      8  C   UNL     1       4.116   5.977  17.700  0.00  0.00    +0.000 A 
ATOM      9  C   UNL     1       2.824   6.393  18.109  0.00  0.00    +0.000 A 
ATOM     10  N   UNL     1       1.837   5.540  18.527  0.00  0.00    +0.000 NA
ENDROOT
BRANCH   1  12
ATOM     11  O   UNL     1       0.644   2.347  18.316  0.00  0.00    +0.000 OA
ATOM     12  C   UNL     1       1.048   3.299  18.979  0.00  0.00    +0.000 C 
BRANCH  12  13
ATOM     13  OXT UNL     1       0.569   3.595  20.209  0.00  0.00    +0.000 OA
ATOM     14  HXT UNL     1       0.704   4.541  20.445  0.00  0.00    +0.000 HD
ENDBRANCH  12  13
ENDBRANCH   1  12
BRANCH   5  15
ATOM     15  O   UNL     1       7.922   4.521  16.725  0.00  0.00    +0.000 OA
ATOM     16  H   UNL     1       8.341   4.196  17.541  0.00  0.00    +0.000 HD
ENDBRANCH   5  15
BRANCH   6  17
ATOM     17  O   UNL     1       7.441   7.187  16.721  0.00  0.00    +0.000 OA
ATOM     18  H   UNL     1       7.002   7.993  16.386  0.00  0.00    +0.000 HD
ENDBRANCH   6  17
BRANCH   9  19
ATOM     19  C   UNL     1       2.411   7.835  18.105  0.00  0.00    +0.000 C 
ATOM     20  O   UNL     1       2.583   8.562  17.126  0.00  0.00    +0.000 OA
BRANCH  19  21
ATOM     21  C   UNL     1       1.723   8.434  19.273  0.00  0.00    +0.000 A 
ATOM     22  C   UNL     1       1.793   7.853  20.546  0.00  0.00    +0.000 A 
ATOM     23  C   UNL     1       1.134   8.458  21.621  0.00  0.00    +0.000 A 
ATOM     24  C   UNL     1       0.422   9.634  21.410  0.00  0.00    +0.000 A 
ATOM     25  F   UNL     1      -0.223  10.195  22.439  0.00  0.00    +0.000 F 
ATOM     26  C   UNL     1       0.377  10.227  20.153  0.00  0.00    +0.000 A 
ATOM     27  F   UNL     1      -0.301  11.366  19.964  0.00  0.00    +0.000 F 
ATOM     28  C   UNL     1       1.034   9.640  19.081  0.00  0.00    +0.000 A 
ENDBRANCH  19  21
ENDBRANCH   9  19
TORSDOF 6
ENDMDL
MODEL 3
REMARK VINA RESULT:      -8.1      0.612      1.360
REMARK  Name = 
REMARK  6 active torsions:
REMARK  status: ('A' for Active; 'I' for Inactive)
REMARK    1  A    between atoms: C_2  and  OXT_3
REMARK    2  A    between atoms: C_2  and  CA_4
REMARK    3  A    between atoms: C_8  and  O_9
REMARK    4  A    between atoms: C_10  and  O_11
REMARK    5  A    between atoms: C_14  and  C_15
REMARK    6  A    between atoms: C_15  and  C_17
REMARK                            x       y       z     vdW  Elec       q    Type
REMARK                         _______ _______ _______ _____ _____    ______ ____
ROOT
ATOM      1  CA  UNL     1       2.775   6.993  17.981  0.00  0.00    +0.000 A 
ATOM      2  C   UNL     1       1.915   5.944  18.286  0.00  0.00    +0.000 A 
ATOM      3  C   UNL     1       2.401   4.633  18.241  0.00  0.00    +0.000 A 
ATOM      4  C   UNL     1       1.563   3.558  18.603  0.00  0.00    +0.000 A 
ATOM      5  C   UNL     1       2.065   2.263  18.628  0.00  0.00    +0.000 A 
ATOM      6  C   UNL     1       3.374   2.021  18.245  0.00  0.00    +0.000 A 
ATOM      7  C   UNL     1       4.202   3.055  17.837  0.00  0.00    +0.000 A 
ATOM      8  C   UNL     1       3.747   4.397  17.850  0.00  0.00    +0.000 A 
ATOM      9  C   UNL     1       4.524   5.538  17.529  0.00  0.00    +0.000 A 
ATOM     10  N   UNL     1       4.066   6.827  17.603  0.00  0.00    +0.000 NA
ENDROOT
BRANCH   1  12
ATOM     11  O   UNL     1       2.405   9.208  17.148  0.00  0.00    +0.000 OA
ATOM     12  C   UNL     1       2.293   8.404  18.070  0.00  0.00    +0.000 C 
BRANCH  12  13
ATOM     13  OXT UNL     1       1.702   8.712  19.248  0.00  0.00    +0.000 OA
ATOM     14  HXT UNL     1       0.924   9.303  19.132  0.00  0.00    +0.000 HD
ENDBRANCH  12  13
ENDBRANCH   1  12
BRANCH   5  15
ATOM     15  O   UNL     1       1.316   1.198  19.041  0.00  0.00    +0.000 OA
ATOM     16  H   UNL     1       1.909   0.450  19.229  0.00  0.00    +0.000 HD
ENDBRANCH   5  15
BRANCH   6  17
ATOM     17  O   UNL     1       3.882   0.754  18.294  0.00  0.00    +0.000 OA
ATOM     18  H   UNL     1       3.614   0.338  17.452  0.00  0.00    +0.000 HD
ENDBRANCH   6  17
BRANCH   9  19
ATOM     19  C   UNL     1       5.942   5.429  17.052  0.00  0.00    +0.000 C 
ATOM     20  O   UNL     1       6.901   5.576  17.811  0.00  0.00    +0.000 OA
BRANCH  19  21
ATOM     21  C   UNL     1       6.248   5.085  15.644  0.00  0.00    +0.000 A 
ATOM     22  C   UNL     1       7.517   5.302  15.091  0.00  0.00    +0.000 A 
ATOM     23  C   UNL     1       7.761   4.955  13.759  0.00  0.00    +0.000 A 
ATOM     24  C   UNL     1       6.739   4.391  13.002  0.00  0.00    +0.000 A 
ATOM     25  F   UNL     1       6.976   4.080  11.723  0.00  0.00    +0.000 F 
ATOM     26  C   UNL     1       5.489   4.148  13.558  0.00  0.00    +0.000 A 
ATOM     27  F   UNL     1       4.516   3.593  12.824  0.00  0.00    +0.000 F 
ATOM     28  C   UNL     1       5.237   4.481  14.881  0.00  0.00    +0.000 A 
ENDBRANCH  19  21
ENDBRANCH   9  19
TORSDOF 6
ENDMDL
MODEL 4
REMARK VINA RESULT:      -8.0      1.321      1.332
REMARK  Name = 
REMARK  6 active torsions:
REMARK  status: ('A' for Active; 'I' for Inactive)
REMARK    1  A    between atoms: C_2  and  OXT_3
REMARK    2  A    between atoms: C_2  and  CA_4
REMARK    3  A    between atoms: C_8  and  O_9
REMARK    4  A    between atoms: C_10  and  O_11
REMARK    5  A    between atoms: C_14  and  C_15
REMARK    6  A    between atoms: C_15  and  C_17
REMARK                            x       y       z     vdW  Elec       q    Type
REMARK                         _______ _______ _______ _____ _____    ______ ____
ROOT
ATOM      1  CA  UNL     1       2.836   7.314  18.415  0.00  0.00    +0.000 A 
ATOM      2  C   UNL     1       2.252   6.333  19.208  0.00  0.00    +0.000 A 
ATOM      3  C   UNL     1       2.954   5.147  19.448  0.00  0.00    +0.000 A 
ATOM      4  C   UNL     1       2.406   4.164  20.298  0.00  0.00    +0.000 A 
ATOM      5  C   UNL     1       3.133   3.018  20.594  0.00  0.00    +0.000 A 
ATOM      6  C   UNL     1       4.374   2.816  20.012  0.00  0.00    +0.000 A 
ATOM      7  C   UNL     1       4.911   3.744  19.135  0.00  0.00    +0.000 A 
ATOM      8  C   UNL     1       4.228   4.952  18.849  0.00  0.00    +0.000 A 
ATOM      9  C   UNL     1       4.712   6.004  18.032  0.00  0.00    +0.000 A 
ATOM     10  N   UNL     1       4.046   7.182  17.819  0.00  0.00    +0.000 NA
ENDROOT
BRANCH   1  12
ATOM     11  O   UNL     1       2.240   9.257  17.147  0.00  0.00    +0.000 OA
ATOM     12  C   UNL     1       2.128   8.608  18.184  0.00  0.00    +0.000 C 
BRANCH  12  13
ATOM     13  OXT UNL     1       1.333   8.993  19.210  0.00  0.00    +0.000 OA
ATOM     14  HXT UNL     1       1.058   8.234  19.774  0.00  0.00    +0.000 HD
ENDBRANCH  12  13
ENDBRANCH   1  12
BRANCH   5  15
ATOM     15  O   UNL     1       2.679   2.071  21.467  0.00  0.00    +0.000 OA
ATOM     16  H   UNL     1       1.815   2.350  21.816  0.00  0.00    +0.000 HD
ENDBRANCH   5  15
BRANCH   6  17
ATOM     17  O   UNL     1       5.107   1.705  20.321  0.00  0.00    +0.000 OA
ATOM     18  H   UNL     1       5.523   1.905  21.183  0.00  0.00    +0.000 HD
ENDBRANCH   6  17
BRANCH   9  19
ATOM     19  C   UNL     1       6.017   5.909  17.298  0.00  0.00    +0.000 C 
ATOM     20  O   UNL     1       7.068   6.338  17.773  0.00  0.00    +0.000 OA
BRANCH  19  21
ATOM     21  C   UNL     1       6.102   5.238  15.979  0.00  0.00    +0.000 A 
ATOM     22  C   UNL     1       5.157   4.285  15.575  0.00  0.00    +0.000 A 
ATOM     23  C   UNL     1       5.274   3.684  14.318  0.00  0.00    +0.000 A 
ATOM     24  C   UNL     1       6.325   4.048  13.482  0.00  0.00    +0.000 A 
ATOM     25  F   UNL     1       6.441   3.453  12.290  0.00  0.00    +0.000 F 
ATOM     26  C   UNL     1       7.245   5.014  13.871  0.00  0.00    +0.000 A 
ATOM     27  F   UNL     1       8.247   5.366  13.053  0.00  0.00    +0.000 F 
ATOM     28  C   UNL     1       7.135   5.623  15.112  0.00  0.00    +0.000 A 
ENDBRANCH  19  21
ENDBRANCH   9  19
TORSDOF 6
ENDMDL
MODEL 5
REMARK VINA RESULT:      -8.0      2.325      4.997
REMARK  Name = 
REMARK  6 active torsions:
REMARK  status: ('A' for Active; 'I' for Inactive)
REMARK    1  A    between atoms: C_2  and  OXT_3
REMARK    2  A    between atoms: C_2  and  CA_4
REMARK    3  A    between atoms: C_8  and  O_9
REMARK    4  A    between atoms: C_10  and  O_11
REMARK    5  A    between atoms: C_14  and  C_15
REMARK    6  A    between atoms: C_15  and  C_17
REMARK                            x       y       z     vdW  Elec       q    Type
REMARK                         _______ _______ _______ _____ _____    ______ ____
ROOT
ATOM      1  CA  UNL     1       2.271   3.794  20.783  0.00  0.00    +0.000 A 
ATOM      2  C   UNL     1       2.032   5.116  21.142  0.00  0.00    +0.000 A 
ATOM      3  C   UNL     1       2.087   6.108  20.157  0.00  0.00    +0.000 A 
ATOM      4  C   UNL     1       1.790   7.447  20.487  0.00  0.00    +0.000 A 
ATOM      5  C   UNL     1       1.775   8.420  19.496  0.00  0.00    +0.000 A 
ATOM      6  C   UNL     1       2.104   8.086  18.192  0.00  0.00    +0.000 A 
ATOM      7  C   UNL     1       2.449   6.787  17.853  0.00  0.00    +0.000 A 
ATOM      8  C   UNL     1       2.423   5.753  18.822  0.00  0.00    +0.000 A 
ATOM      9  C   UNL     1       2.680   4.382  18.576  0.00  0.00    +0.000 A 
ATOM     10  N   UNL     1       2.595   3.399  19.527  0.00  0.00    +0.000 NA
ENDROOT
BRANCH   1  12
ATOM     11  O   UNL     1       1.130   2.455  22.407  0.00  0.00    +0.000 OA
ATOM     12  C   UNL     1       2.170   2.712  21.806  0.00  0.00    +0.000 C 
BRANCH  12  13
ATOM     13  OXT UNL     1       3.320   2.024  21.998  0.00  0.00    +0.000 OA
ATOM     14  HXT UNL     1       3.823   1.897  21.162  0.00  0.00    +0.000 HD
ENDBRANCH  12  13
ENDBRANCH   1  12
BRANCH   5  15
ATOM     15  O   UNL     1       1.423   9.715  19.750  0.00  0.00    +0.000 OA
ATOM     16  H   UNL     1       1.782  10.284  19.048  0.00  0.00    +0.000 HD
ENDBRANCH   5  15
BRANCH   6  17
ATOM     17  O   UNL     1       2.063   9.032  17.208  0.00  0.00    +0.000 OA
ATOM     18  H   UNL     1       1.759   9.848  17.651  0.00  0.00    +0.000 HD
ENDBRANCH   6  17
BRANCH   9  19
ATOM     19  C   UNL     1       3.095   3.877  17.226  0.00  0.00    +0.000 C 
ATOM     20  O   UNL     1       2.334   3.229  16.506  0.00  0.00    +0.000 OA
BRANCH  19  21
ATOM     21  C   UNL     1       4.435   4.188  16.675  0.00  0.00    +0.000 A 
ATOM     22  C   UNL     1       4.632   4.433  15.310  0.00  0.00    +0.000 A 
ATOM     23  C   UNL     1       5.914   4.730  14.836  0.00  0.00    +0.000 A 
ATOM     24  C   UNL     1       6.976   4.784  15.733  0.00  0.00    +0.000 A 
ATOM     25  F   UNL     1       8.203   5.048  15.269  0.00  0.00    +0.000 F 
ATOM     26  C   UNL     1       6.777   4.570  17.091  0.00  0.00    +0.000 A 
ATOM     27  F   UNL     1       7.805   4.638  17.948  0.00  0.00    +0.000 F 
ATOM     28  C   UNL     1       5.508   4.283  17.573  0.00  0.00    +0.000 A 
ENDBRANCH  19  21
ENDBRANCH   9  19
TORSDOF 6
ENDMDL
MODEL 6
REMARK VINA RESULT:      -7.9      2.143      4.956
REMARK  Name = 
REMARK  6 active torsions:
REMARK  status: ('A' for Active; 'I' for Inactive)
REMARK    1  A    between atoms: C_2  and  OXT_3
REMARK    2  A    between atoms: C_2  and  CA_4
REMARK    3  A    between atoms: C_8  and  O_9
REMARK    4  A    between atoms: C_10  and  O_11
REMARK    5  A    between atoms: C_14  and  C_15
REMARK    6  A    between atoms: C_15  and  C_17
REMARK                            x       y       z     vdW  Elec       q    Type
REMARK                         _______ _______ _______ _____ _____    ______ ____
ROOT
ATOM      1  CA  UNL     1       2.262   3.793  20.801  0.00  0.00    +0.000 A 
ATOM      2  C   UNL     1       2.005   5.112  21.158  0.00  0.00    +0.000 A 
ATOM      3  C   UNL     1       2.066   6.106  20.176  0.00  0.00    +0.000 A 
ATOM      4  C   UNL     1       1.751   7.441  20.503  0.00  0.00    +0.000 A 
ATOM      5  C   UNL     1       1.743   8.416  19.514  0.00  0.00    +0.000 A 
ATOM      6  C   UNL     1       2.096   8.087  18.215  0.00  0.00    +0.000 A 
ATOM      7  C   UNL     1       2.458   6.793  17.880  0.00  0.00    +0.000 A 
ATOM      8  C   UNL     1       2.427   5.757  18.846  0.00  0.00    +0.000 A 
ATOM      9  C   UNL     1       2.701   4.388  18.602  0.00  0.00    +0.000 A 
ATOM     10  N   UNL     1       2.610   3.404  19.550  0.00  0.00    +0.000 NA
ENDROOT
BRANCH   1  12
ATOM     11  O   UNL     1       1.112   2.454  22.419  0.00  0.00    +0.000 OA
ATOM     12  C   UNL     1       2.154   2.708  21.821  0.00  0.00    +0.000 C 
BRANCH  12  13
ATOM     13  OXT UNL     1       3.301   2.015  22.012  0.00  0.00    +0.000 OA
ATOM     14  HXT UNL     1       3.502   1.411  21.260  0.00  0.00    +0.000 HD
ENDBRANCH  12  13
ENDBRANCH   1  12
BRANCH   5  15
ATOM     15  O   UNL     1       1.374   9.707  19.765  0.00  0.00    +0.000 OA
ATOM     16  H   UNL     1       1.669   9.953  20.659  0.00  0.00    +0.000 HD
ENDBRANCH   5  15
BRANCH   6  17
ATOM     17  O   UNL     1       2.061   9.035  17.232  0.00  0.00    +0.000 OA
ATOM     18  H   UNL     1       1.733   9.845  17.669  0.00  0.00    +0.000 HD
ENDBRANCH   6  17
BRANCH   9  19
ATOM     19  C   UNL     1       3.141   3.890  17.257  0.00  0.00    +0.000 C 
ATOM     20  O   UNL     1       2.391   3.256  16.515  0.00  0.00    +0.000 OA
BRANCH  19  21
ATOM     21  C   UNL     1       4.497   4.191  16.741  0.00  0.00    +0.000 A 
ATOM     22  C   UNL     1       5.562   4.497  17.600  0.00  0.00    +0.000 A 
ATOM     23  C   UNL     1       6.826   4.767  17.067  0.00  0.00    +0.000 A 
ATOM     24  C   UNL     1       7.010   4.721  15.689  0.00  0.00    +0.000 A 
ATOM     25  F   UNL     1       8.218   5.001  15.187  0.00  0.00    +0.000 F 
ATOM     26  C   UNL     1       5.963   4.389  14.839  0.00  0.00    +0.000 A 
ATOM     27  F   UNL     1       6.154   4.335  13.514  0.00  0.00    +0.000 F 
ATOM     28  C   UNL     1       4.706   4.111  15.356  0.00  0.00    +0.000 A 
ENDBRANCH  19  21
ENDBRANCH   9  19
TORSDOF 6
ENDMDL
MODEL 7
REMARK VINA RESULT:      -7.8      4.202      7.173
REMARK  Name = 
REMARK  6 active torsions:
REMARK  status: ('A' for Active; 'I' for Inactive)
REMARK    1  A    between atoms: C_2  and  OXT_3
REMARK    2  A    between atoms: C_2  and  CA_4
REMARK    3  A    between atoms: C_8  and  O_9
REMARK    4  A    between atoms: C_10  and  O_11
REMARK    5  A    between atoms: C_14  and  C_15
REMARK    6  A    between atoms: C_15  and  C_17
REMARK                            x       y       z     vdW  Elec       q    Type
REMARK                         _______ _______ _______ _____ _____    ______ ____
ROOT
ATOM      1  CA  UNL     1       2.223   4.357  18.686  0.00  0.00    +0.000 A 
ATOM      2  C   UNL     1       3.446   3.776  18.371  0.00  0.00    +0.000 A 
ATOM      3  C   UNL     1       4.487   4.592  17.915  0.00  0.00    +0.000 A 
ATOM      4  C   UNL     1       5.754   4.034  17.646  0.00  0.00    +0.000 A 
ATOM      5  C   UNL     1       6.808   4.854  17.262  0.00  0.00    +0.000 A 
ATOM      6  C   UNL     1       6.600   6.213  17.092  0.00  0.00    +0.000 A 
ATOM      7  C   UNL     1       5.352   6.777  17.302  0.00  0.00    +0.000 A 
ATOM      8  C   UNL     1       4.265   5.986  17.747  0.00  0.00    +0.000 A 
ATOM      9  C   UNL     1       2.969   6.464  18.067  0.00  0.00    +0.000 A 
ATOM     10  N   UNL     1       1.955   5.678  18.546  0.00  0.00    +0.000 NA
ENDROOT
BRANCH   1  12
ATOM     11  O   UNL     1       0.731   2.484  18.672  0.00  0.00    +0.000 OA
ATOM     12  C   UNL     1       1.112   3.514  19.221  0.00  0.00    +0.000 C 
BRANCH  12  13
ATOM     13  OXT UNL     1       0.579   3.973  20.377  0.00  0.00    +0.000 OA
ATOM     14  HXT UNL     1      -0.405   4.002  20.348  0.00  0.00    +0.000 HD
ENDBRANCH  12  13
ENDBRANCH   1  12
BRANCH   5  15
ATOM     15  O   UNL     1       8.070   4.374  17.060  0.00  0.00    +0.000 OA
ATOM     16  H   UNL     1       8.161   3.521  17.520  0.00  0.00    +0.000 HD
ENDBRANCH   5  15
BRANCH   6  17
ATOM     17  O   UNL     1       7.639   7.029  16.743  0.00  0.00    +0.000 OA
ATOM     18  H   UNL     1       8.037   6.613  15.953  0.00  0.00    +0.000 HD
ENDBRANCH   6  17
BRANCH   9  19
ATOM     19  C   UNL     1       2.583   7.902  17.888  0.00  0.00    +0.000 C 
ATOM     20  O   UNL     1       2.940   8.560  16.911  0.00  0.00    +0.000 OA
BRANCH  19  21
ATOM     21  C   UNL     1       1.701   8.581  18.867  0.00  0.00    +0.000 A 
ATOM     22  C   UNL     1       0.741   9.520  18.467  0.00  0.00    +0.000 A 
ATOM     23  C   UNL     1      -0.074  10.130  19.425  0.00  0.00    +0.000 A 
ATOM     24  C   UNL     1       0.076   9.789  20.765  0.00  0.00    +0.000 A 
ATOM     25  F   UNL     1      -0.694  10.392  21.678  0.00  0.00    +0.000 F 
ATOM     26  C   UNL     1       1.007   8.836  21.160  0.00  0.00    +0.000 A 
ATOM     27  F   UNL     1       1.135   8.505  22.452  0.00  0.00    +0.000 F 
ATOM     28  C   UNL     1       1.816   8.218  20.217  0.00  0.00    +0.000 A 
ENDBRANCH  19  21
ENDBRANCH   9  19
TORSDOF 6
ENDMDL
MODEL 8
REMARK VINA RESULT:      -7.8      4.273      6.638
REMARK  Name = 
REMARK  6 active torsions:
REMARK  status: ('A' for Active; 'I' for Inactive)
REMARK    1  A    between atoms: C_2  and  OXT_3
REMARK    2  A    between atoms: C_2  and  CA_4
REMARK    3  A    between atoms: C_8  and  O_9
REMARK    4  A    between atoms: C_10  and  O_11
REMARK    5  A    between atoms: C_14  and  C_15
REMARK    6  A    between atoms: C_15  and  C_17
REMARK                            x       y       z     vdW  Elec       q    Type
REMARK                         _______ _______ _______ _____ _____    ______ ____
ROOT
ATOM      1  CA  UNL     1       6.002   6.278  17.875  0.00  0.00    +0.000 A 
ATOM      2  C   UNL     1       5.735   4.921  18.026  0.00  0.00    +0.000 A 
ATOM      3  C   UNL     1       4.405   4.493  18.077  0.00  0.00    +0.000 A 
ATOM      4  C   UNL     1       4.111   3.116  18.170  0.00  0.00    +0.000 A 
ATOM      5  C   UNL     1       2.791   2.684  18.149  0.00  0.00    +0.000 A 
ATOM      6  C   UNL     1       1.761   3.610  18.090  0.00  0.00    +0.000 A 
ATOM      7  C   UNL     1       2.024   4.970  18.049  0.00  0.00    +0.000 A 
ATOM      8  C   UNL     1       3.356   5.450  18.013  0.00  0.00    +0.000 A 
ATOM      9  C   UNL     1       3.744   6.808  17.893  0.00  0.00    +0.000 A 
ATOM     10  N   UNL     1       5.043   7.233  17.808  0.00  0.00    +0.000 NA
ENDROOT
BRANCH   1  12
ATOM     11  O   UNL     1       7.879   7.240  16.742  0.00  0.00    +0.000 OA
ATOM     12  C   UNL     1       7.413   6.754  17.769  0.00  0.00    +0.000 C 
BRANCH  12  13
ATOM     13  OXT UNL     1       8.127   6.624  18.911  0.00  0.00    +0.000 OA
ATOM     14  HXT UNL     1       7.557   6.410  19.685  0.00  0.00    +0.000 HD
ENDBRANCH  12  13
ENDBRANCH   1  12
BRANCH   5  15
ATOM     15  O   UNL     1       2.456   1.360  18.163  0.00  0.00    +0.000 OA
ATOM     16  H   UNL     1       2.833   0.947  18.958  0.00  0.00    +0.000 HD
ENDBRANCH   5  15
BRANCH   6  17
ATOM     17  O   UNL     1       0.462   3.190  18.039  0.00  0.00    +0.000 OA
ATOM     18  H   UNL     1       0.453   2.328  18.499  0.00  0.00    +0.000 HD
ENDBRANCH   6  17
BRANCH   9  19
ATOM     19  C   UNL     1       2.742   7.924  17.866  0.00  0.00    +0.000 C 
ATOM     20  O   UNL     1       2.521   8.582  16.849  0.00  0.00    +0.000 OA
BRANCH  19  21
ATOM     21  C   UNL     1       1.931   8.248  19.063  0.00  0.00    +0.000 A 
ATOM     22  C   UNL     1       2.019   7.492  20.240  0.00  0.00    +0.000 A 
ATOM     23  C   UNL     1       1.239   7.839  21.347  0.00  0.00    +0.000 A 
ATOM     24  C   UNL     1       0.390   8.938  21.266  0.00  0.00    +0.000 A 
ATOM     25  F   UNL     1      -0.367   9.252  22.323  0.00  0.00    +0.000 F 
ATOM     26  C   UNL     1       0.324   9.707  20.110  0.00  0.00    +0.000 A 
ATOM     27  F   UNL     1      -0.487  10.770  20.047  0.00  0.00    +0.000 F 
ATOM     28  C   UNL     1       1.099   9.376  19.007  0.00  0.00    +0.000 A 
ENDBRANCH  19  21
ENDBRANCH   9  19
TORSDOF 6
ENDMDL
MODEL 9
REMARK VINA RESULT:      -7.7      4.522      7.571
REMARK  Name = 
REMARK  6 active torsions:
REMARK  status: ('A' for Active; 'I' for Inactive)
REMARK    1  A    between atoms: C_2  and  OXT_3
REMARK    2  A    between atoms: C_2  and  CA_4
REMARK    3  A    between atoms: C_8  and  O_9
REMARK    4  A    between atoms: C_10  and  O_11
REMARK    5  A    between atoms: C_14  and  C_15
REMARK    6  A    between atoms: C_15  and  C_17
REMARK                            x       y       z     vdW  Elec       q    Type
REMARK                         _______ _______ _______ _____ _____    ______ ____
ROOT
ATOM      1  CA  UNL     1       2.472   4.369  20.052  0.00  0.00    +0.000 A 
ATOM      2  C   UNL     1       3.663   3.863  19.545  0.00  0.00    +0.000 A 
ATOM      3  C   UNL     1       4.469   4.688  18.753  0.00  0.00    +0.000 A 
ATOM      4  C   UNL     1       5.710   4.216  18.278  0.00  0.00    +0.000 A 
ATOM      5  C   UNL     1       6.542   5.057  17.551  0.00  0.00    +0.000 A 
ATOM      6  C   UNL     1       6.130   6.345  17.248  0.00  0.00    +0.000 A 
ATOM      7  C   UNL     1       4.894   6.815  17.661  0.00  0.00    +0.000 A 
ATOM      8  C   UNL     1       4.038   6.009  18.450  0.00  0.00    +0.000 A 
ATOM      9  C   UNL     1       2.791   6.408  18.992  0.00  0.00    +0.000 A 
ATOM     10  N   UNL     1       2.012   5.619  19.796  0.00  0.00    +0.000 NA
ENDROOT
BRANCH   1  12
ATOM     11  O   UNL     1       1.975   3.157  22.057  0.00  0.00    +0.000 OA
ATOM     12  C   UNL     1       1.619   3.524  20.940  0.00  0.00    +0.000 C 
BRANCH  12  13
ATOM     13  OXT UNL     1       0.410   3.217  20.415  0.00  0.00    +0.000 OA
ATOM     14  HXT UNL     1       0.305   2.251  20.260  0.00  0.00    +0.000 HD
ENDBRANCH  12  13
ENDBRANCH   1  12
BRANCH   5  15
ATOM     15  O   UNL     1       7.784   4.672  17.131  0.00  0.00    +0.000 OA
ATOM     16  H   UNL     1       7.690   3.933  16.505  0.00  0.00    +0.000 HD
ENDBRANCH   5  15
BRANCH   6  17
ATOM     17  O   UNL     1       6.956   7.187  16.559  0.00  0.00    +0.000 OA
ATOM     18  H   UNL     1       7.857   6.976  16.873  0.00  0.00    +0.000 HD
ENDBRANCH   6  17
BRANCH   9  19
ATOM     19  C   UNL     1       2.193   7.755  18.710  0.00  0.00    +0.000 C 
ATOM     20  O   UNL     1       2.189   8.247  17.582  0.00  0.00    +0.000 OA
BRANCH  19  21
ATOM     21  C   UNL     1       1.529   8.532  19.783  0.00  0.00    +0.000 A 
ATOM     22  C   UNL     1       1.678   8.199  21.136  0.00  0.00    +0.000 A 
ATOM     23  C   UNL     1       1.038   8.966  22.114  0.00  0.00    +0.000 A 
ATOM     24  C   UNL     1       0.265  10.056  21.728  0.00  0.00    +0.000 A 
ATOM     25  F   UNL     1      -0.361  10.772  22.668  0.00  0.00    +0.000 F 
ATOM     26  C   UNL     1       0.140  10.405  20.389  0.00  0.00    +0.000 A 
ATOM     27  F   UNL     1      -0.597  11.464  20.029  0.00  0.00    +0.000 F 
ATOM     28  C   UNL     1       0.777   9.656  19.410  0.00  0.00    +0.000 A 
ENDBRANCH  19  21
ENDBRANCH   9  19
TORSDOF 6
ENDMDL
