MODEL 1
REMARK VINA RESULT:      -8.4      0.000      0.000
REMARK  Name = 
REMARK  5 active torsions:
REMARK  status: ('A' for Active; 'I' for Inactive)
REMARK    1  A    between atoms: C_2  and  O_12
REMARK    2  A    between atoms: C_4  and  C_6
REMARK    3  A    between atoms: O_12  and  C_13
REMARK    4  A    between atoms: C_13  and  C_14
REMARK    5  A    between atoms: C_14  and  N_15
REMARK                            x       y       z     vdW  Elec       q    Type
REMARK                         _______ _______ _______ _____ _____    ______ ____
ROOT
ATOM      1  O   UNL     1       5.841   3.952  19.181  0.00  0.00    +0.000 OA
ENDROOT
BRANCH   1   3
ATOM      2  O   UNL     1       6.855   5.978  18.977  0.00  0.00    +0.000 OA
ATOM      3  C   UNL     1       6.546   4.901  18.498  0.00  0.00    +0.000 C 
ATOM      4  N   UNL     1       6.711   4.461  17.213  0.00  0.00    +0.000 N 
ATOM      5  C   UNL     1       7.076   5.273  16.156  0.00  0.00    +0.000 C 
ATOM      6  O   UNL     1       7.622   6.365  16.265  0.00  0.00    +0.000 OA
ATOM      7  H   UNL     1       6.190   3.621  17.029  0.00  0.00    +0.000 HD
BRANCH   5   8
ATOM      8  C   UNL     1       6.798   4.750  14.780  0.00  0.00    +0.000 A 
ATOM      9  C   UNL     1       7.661   5.133  13.742  0.00  0.00    +0.000 A 
ATOM     10  C   UNL     1       7.457   4.671  12.439  0.00  0.00    +0.000 A 
ATOM     11  C   UNL     1       6.387   3.824  12.163  0.00  0.00    +0.000 A 
ATOM     12  C   UNL     1       5.526   3.428  13.191  0.00  0.00    +0.000 A 
ATOM     13  C   UNL     1       5.731   3.884  14.495  0.00  0.00    +0.000 A 
ENDBRANCH   5   8
ENDBRANCH   1   3
BRANCH   1  14
ATOM     14  C   UNL     1       4.787   3.317  18.411  0.00  0.00    +0.000 C 
BRANCH  14  15
ATOM     15  C   UNL     1       3.487   3.754  19.072  0.00  0.00    +0.000 C 
BRANCH  15  16
ATOM     16  N   UNL     1       3.088   5.137  19.098  0.00  0.00    +0.000 N 
ATOM     17  C   UNL     1       2.391   5.605  20.181  0.00  0.00    +0.000 C 
ATOM     18  O   UNL     1       2.075   5.014  21.197  0.00  0.00    +0.000 OA
ATOM     19  C   UNL     1       2.037   6.984  19.895  0.00  0.00    +0.000 A 
ATOM     20  C   UNL     1       1.357   7.892  20.680  0.00  0.00    +0.000 A 
ATOM     21  C   UNL     1       1.120   9.152  20.126  0.00  0.00    +0.000 A 
ATOM     22  C   UNL     1       1.557   9.454  18.821  0.00  0.00    +0.000 A 
ATOM     23  C   UNL     1       2.255   8.512  18.051  0.00  0.00    +0.000 A 
ATOM     24  C   UNL     1       2.491   7.277  18.622  0.00  0.00    +0.000 A 
ATOM     25  C   UNL     1       3.178   6.079  18.112  0.00  0.00    +0.000 C 
ATOM     26  O   UNL     1       3.713   6.004  17.023  0.00  0.00    +0.000 OA
ENDBRANCH  15  16
ENDBRANCH  14  15
ENDBRANCH   1  14
TORSDOF 5
ENDMDL
MODEL 2
REMARK VINA RESULT:      -8.3      4.400      6.297
REMARK  Name = 
REMARK  5 active torsions:
REMARK  status: ('A' for Active; 'I' for Inactive)
REMARK    1  A    between atoms: C_2  and  O_12
REMARK    2  A    between atoms: C_4  and  C_6
REMARK    3  A    between atoms: O_12  and  C_13
REMARK    4  A    between atoms: C_13  and  C_14
REMARK    5  A    between atoms: C_14  and  N_15
REMARK                            x       y       z     vdW  Elec       q    Type
REMARK                         _______ _______ _______ _____ _____    ______ ____
ROOT
ATOM      1  O   UNL     1       8.316   6.255  18.650  0.00  0.00    +0.000 OA
ENDROOT
BRANCH   1   3
ATOM      2  O   UNL     1       7.225   7.468  17.063  0.00  0.00    +0.000 OA
ATOM      3  C   UNL     1       7.906   7.423  18.073  0.00  0.00    +0.000 C 
ATOM      4  N   UNL     1       8.486   8.457  18.757  0.00  0.00    +0.000 N 
ATOM      5  C   UNL     1       8.576   9.751  18.277  0.00  0.00    +0.000 C 
ATOM      6  O   UNL     1       7.879  10.218  17.384  0.00  0.00    +0.000 OA
ATOM      7  H   UNL     1       9.159   8.137  19.431  0.00  0.00    +0.000 HD
BRANCH   5   8
ATOM      8  C   UNL     1       9.592  10.639  18.927  0.00  0.00    +0.000 A 
ATOM      9  C   UNL     1      10.650  11.118  18.139  0.00  0.00    +0.000 A 
ATOM     10  C   UNL     1      11.624  11.956  18.688  0.00  0.00    +0.000 A 
ATOM     11  C   UNL     1      11.549  12.321  20.029  0.00  0.00    +0.000 A 
ATOM     12  C   UNL     1      10.495  11.857  20.822  0.00  0.00    +0.000 A 
ATOM     13  C   UNL     1       9.517  11.023  20.275  0.00  0.00    +0.000 A 
ENDBRANCH   5   8
ENDBRANCH   1   3
BRANCH   1  14
ATOM     14  C   UNL     1       7.475   5.110  18.348  0.00  0.00    +0.000 C 
BRANCH  14  15
ATOM     15  C   UNL     1       6.323   5.185  19.341  0.00  0.00    +0.000 C 
BRANCH  15  16
ATOM     16  N   UNL     1       5.064   4.541  19.075  0.00  0.00    +0.000 N 
ATOM     17  C   UNL     1       4.087   5.243  18.417  0.00  0.00    +0.000 C 
ATOM     18  O   UNL     1       4.135   6.370  17.961  0.00  0.00    +0.000 OA
ATOM     19  C   UNL     1       2.908   4.395  18.378  0.00  0.00    +0.000 A 
ATOM     20  C   UNL     1       1.676   4.639  17.806  0.00  0.00    +0.000 A 
ATOM     21  C   UNL     1       0.703   3.649  17.959  0.00  0.00    +0.000 A 
ATOM     22  C   UNL     1       0.988   2.470  18.677  0.00  0.00    +0.000 A 
ATOM     23  C   UNL     1       2.253   2.248  19.239  0.00  0.00    +0.000 A 
ATOM     24  C   UNL     1       3.206   3.233  19.065  0.00  0.00    +0.000 A 
ATOM     25  C   UNL     1       4.606   3.328  19.509  0.00  0.00    +0.000 C 
ATOM     26  O   UNL     1       5.193   2.461  20.126  0.00  0.00    +0.000 OA
ENDBRANCH  15  16
ENDBRANCH  14  15
ENDBRANCH   1  14
TORSDOF 5
ENDMDL
MODEL 3
REMARK VINA RESULT:      -8.1      0.550      2.069
REMARK  Name = 
REMARK  5 active torsions:
REMARK  status: ('A' for Active; 'I' for Inactive)
REMARK    1  A    between atoms: C_2  and  O_12
REMARK    2  A    between atoms: C_4  and  C_6
REMARK    3  A    between atoms: O_12  and  C_13
REMARK    4  A    between atoms: C_13  and  C_14
REMARK    5  A    between atoms: C_14  and  N_15
REMARK                            x       y       z     vdW  Elec       q    Type
REMARK                         _______ _______ _______ _____ _____    ______ ____
ROOT
ATOM      1  O   UNL     1       5.918   3.645  18.875  0.00  0.00    +0.000 OA
ENDROOT
BRANCH   1   3
ATOM      2  O   UNL     1       6.710   5.777  18.808  0.00  0.00    +0.000 OA
ATOM      3  C   UNL     1       6.532   4.700  18.265  0.00  0.00    +0.000 C 
ATOM      4  N   UNL     1       6.779   4.351  16.965  0.00  0.00    +0.000 N 
ATOM      5  C   UNL     1       7.081   5.254  15.963  0.00  0.00    +0.000 C 
ATOM      6  O   UNL     1       7.501   6.391  16.146  0.00  0.00    +0.000 OA
ATOM      7  H   UNL     1       6.357   3.471  16.721  0.00  0.00    +0.000 HD
BRANCH   5   8
ATOM      8  C   UNL     1       6.897   4.780  14.554  0.00  0.00    +0.000 A 
ATOM      9  C   UNL     1       5.823   3.917  14.284  0.00  0.00    +0.000 A 
ATOM     10  C   UNL     1       5.596   3.446  12.988  0.00  0.00    +0.000 A 
ATOM     11  C   UNL     1       6.441   3.834  11.952  0.00  0.00    +0.000 A 
ATOM     12  C   UNL     1       7.509   4.699  12.207  0.00  0.00    +0.000 A 
ATOM     13  C   UNL     1       7.735   5.175  13.501  0.00  0.00    +0.000 A 
ENDBRANCH   5   8
ENDBRANCH   1   3
BRANCH   1  14
ATOM     14  C   UNL     1       4.812   4.013  19.742  0.00  0.00    +0.000 C 
BRANCH  14  15
ATOM     15  C   UNL     1       3.675   4.394  18.803  0.00  0.00    +0.000 C 
BRANCH  15  16
ATOM     16  N   UNL     1       2.982   5.647  18.938  0.00  0.00    +0.000 N 
ATOM     17  C   UNL     1       3.180   6.620  17.992  0.00  0.00    +0.000 C 
ATOM     18  O   UNL     1       3.854   6.571  16.980  0.00  0.00    +0.000 OA
ATOM     19  C   UNL     1       2.447   7.794  18.430  0.00  0.00    +0.000 A 
ATOM     20  C   UNL     1       2.313   9.021  17.811  0.00  0.00    +0.000 A 
ATOM     21  C   UNL     1       1.573   9.991  18.489  0.00  0.00    +0.000 A 
ATOM     22  C   UNL     1       1.008   9.710  19.749  0.00  0.00    +0.000 A 
ATOM     23  C   UNL     1       1.153   8.450  20.347  0.00  0.00    +0.000 A 
ATOM     24  C   UNL     1       1.877   7.499  19.655  0.00  0.00    +0.000 A 
ATOM     25  C   UNL     1       2.221   6.105  19.977  0.00  0.00    +0.000 C 
ATOM     26  O   UNL     1       1.859   5.521  20.980  0.00  0.00    +0.000 OA
ENDBRANCH  15  16
ENDBRANCH  14  15
ENDBRANCH   1  14
TORSDOF 5
ENDMDL
MODEL 4
REMARK VINA RESULT:      -8.1      2.479      3.776
REMARK  Name = 
REMARK  5 active torsions:
REMARK  status: ('A' for Active; 'I' for Inactive)
REMARK    1  A    between atoms: C_2  and  O_12
REMARK    2  A    between atoms: C_4  and  C_6
REMARK    3  A    between atoms: O_12  and  C_13
REMARK    4  A    between atoms: C_13  and  C_14
REMARK    5  A    between atoms: C_14  and  N_15
REMARK                            x       y       z     vdW  Elec       q    Type
REMARK                         _______ _______ _______ _____ _____    ______ ____
ROOT
ATOM      1  O   UNL     1       6.835   4.565  17.135  0.00  0.00    +0.000 OA
ENDROOT
BRANCH   1   3
ATOM      2  O   UNL     1       7.745   6.252  15.909  0.00  0.00    +0.000 OA
ATOM      3  C   UNL     1       7.283   5.125  15.974  0.00  0.00    +0.000 C 
ATOM      4  N   UNL     1       7.010   4.257  14.952  0.00  0.00    +0.000 N 
ATOM      5  C   UNL     1       7.013   4.607  13.615  0.00  0.00    +0.000 C 
ATOM      6  O   UNL     1       7.575   5.591  13.147  0.00  0.00    +0.000 OA
ATOM      7  H   UNL     1       6.448   3.479  15.254  0.00  0.00    +0.000 HD
BRANCH   5   8
ATOM      8  C   UNL     1       6.290   3.687  12.679  0.00  0.00    +0.000 A 
ATOM      9  C   UNL     1       4.937   3.952  12.409  0.00  0.00    +0.000 A 
ATOM     10  C   UNL     1       4.212   3.134  11.539  0.00  0.00    +0.000 A 
ATOM     11  C   UNL     1       4.832   2.044  10.933  0.00  0.00    +0.000 A 
ATOM     12  C   UNL     1       6.180   1.776  11.187  0.00  0.00    +0.000 A 
ATOM     13  C   UNL     1       6.909   2.595  12.053  0.00  0.00    +0.000 A 
ENDBRANCH   5   8
ENDBRANCH   1   3
BRANCH   1  14
ATOM     14  C   UNL     1       7.407   5.139  18.339  0.00  0.00    +0.000 C 
BRANCH  14  15
ATOM     15  C   UNL     1       6.271   5.166  19.352  0.00  0.00    +0.000 C 
BRANCH  15  16
ATOM     16  N   UNL     1       5.020   4.504  19.090  0.00  0.00    +0.000 N 
ATOM     17  C   UNL     1       4.029   5.191  18.438  0.00  0.00    +0.000 C 
ATOM     18  O   UNL     1       4.057   6.320  17.985  0.00  0.00    +0.000 OA
ATOM     19  C   UNL     1       2.864   4.325  18.403  0.00  0.00    +0.000 A 
ATOM     20  C   UNL     1       1.625   4.551  17.838  0.00  0.00    +0.000 A 
ATOM     21  C   UNL     1       0.669   3.546  17.994  0.00  0.00    +0.000 A 
ATOM     22  C   UNL     1       0.975   2.370  18.707  0.00  0.00    +0.000 A 
ATOM     23  C   UNL     1       2.246   2.166  19.263  0.00  0.00    +0.000 A 
ATOM     24  C   UNL     1       3.183   3.166  19.086  0.00  0.00    +0.000 A 
ATOM     25  C   UNL     1       4.584   3.283  19.523  0.00  0.00    +0.000 C 
ATOM     26  O   UNL     1       5.187   2.424  20.136  0.00  0.00    +0.000 OA
ENDBRANCH  15  16
ENDBRANCH  14  15
ENDBRANCH   1  14
TORSDOF 5
ENDMDL
MODEL 5
REMARK VINA RESULT:      -8.1      2.357      3.527
REMARK  Name = 
REMARK  5 active torsions:
REMARK  status: ('A' for Active; 'I' for Inactive)
REMARK    1  A    between atoms: C_2  and  O_12
REMARK    2  A    between atoms: C_4  and  C_6
REMARK    3  A    between atoms: O_12  and  C_13
REMARK    4  A    between atoms: C_13  and  C_14
REMARK    5  A    between atoms: C_14  and  N_15
REMARK                            x       y       z     vdW  Elec       q    Type
REMARK                         _______ _______ _______ _____ _____    ______ ____
ROOT
ATOM      1  O   UNL     1       6.668   4.482  17.100  0.00  0.00    +0.000 OA
ENDROOT
BRANCH   1   3
ATOM      2  O   UNL     1       7.636   6.165  15.913  0.00  0.00    +0.000 OA
ATOM      3  C   UNL     1       7.162   5.042  15.957  0.00  0.00    +0.000 C 
ATOM      4  N   UNL     1       6.917   4.180  14.924  0.00  0.00    +0.000 N 
ATOM      5  C   UNL     1       6.970   4.534  13.589  0.00  0.00    +0.000 C 
ATOM      6  O   UNL     1       7.557   5.514  13.145  0.00  0.00    +0.000 OA
ATOM      7  H   UNL     1       6.338   3.407  15.203  0.00  0.00    +0.000 HD
BRANCH   5   8
ATOM      8  C   UNL     1       6.272   3.625  12.625  0.00  0.00    +0.000 A 
ATOM      9  C   UNL     1       4.921   3.880  12.339  0.00  0.00    +0.000 A 
ATOM     10  C   UNL     1       4.218   3.070  11.442  0.00  0.00    +0.000 A 
ATOM     11  C   UNL     1       4.859   1.999  10.825  0.00  0.00    +0.000 A 
ATOM     12  C   UNL     1       6.206   1.741  11.095  0.00  0.00    +0.000 A 
ATOM     13  C   UNL     1       6.913   2.552  11.988  0.00  0.00    +0.000 A 
ENDBRANCH   5   8
ENDBRANCH   1   3
BRANCH   1  14
ATOM     14  C   UNL     1       7.346   4.897  18.314  0.00  0.00    +0.000 C 
BRANCH  14  15
ATOM     15  C   UNL     1       6.238   5.296  19.279  0.00  0.00    +0.000 C 
BRANCH  15  16
ATOM     16  N   UNL     1       4.884   4.845  19.091  0.00  0.00    +0.000 N 
ATOM     17  C   UNL     1       4.541   3.585  19.509  0.00  0.00    +0.000 C 
ATOM     18  O   UNL     1       5.227   2.760  20.083  0.00  0.00    +0.000 OA
ATOM     19  C   UNL     1       3.164   3.364  19.106  0.00  0.00    +0.000 A 
ATOM     20  C   UNL     1       2.358   2.263  19.316  0.00  0.00    +0.000 A 
ATOM     21  C   UNL     1       1.072   2.310  18.775  0.00  0.00    +0.000 A 
ATOM     22  C   UNL     1       0.644   3.436  18.043  0.00  0.00    +0.000 A 
ATOM     23  C   UNL     1       1.483   4.543  17.854  0.00  0.00    +0.000 A 
ATOM     24  C   UNL     1       2.747   4.484  18.409  0.00  0.00    +0.000 A 
ATOM     25  C   UNL     1       3.862   5.443  18.408  0.00  0.00    +0.000 C 
ATOM     26  O   UNL     1       3.822   6.545  17.895  0.00  0.00    +0.000 OA
ENDBRANCH  15  16
ENDBRANCH  14  15
ENDBRANCH   1  14
TORSDOF 5
ENDMDL
MODEL 6
REMARK VINA RESULT:      -8.0      0.647      1.174
REMARK  Name = 
REMARK  5 active torsions:
REMARK  status: ('A' for Active; 'I' for Inactive)
REMARK    1  A    between atoms: C_2  and  O_12
REMARK    2  A    between atoms: C_4  and  C_6
REMARK    3  A    between atoms: O_12  and  C_13
REMARK    4  A    between atoms: C_13  and  C_14
REMARK    5  A    between atoms: C_14  and  N_15
REMARK                            x       y       z     vdW  Elec       q    Type
REMARK                         _______ _______ _______ _____ _____    ______ ____
ROOT
ATOM      1  O   UNL     1       5.356   3.438  19.441  0.00  0.00    +0.000 OA
ENDROOT
BRANCH   1   3
ATOM      2  O   UNL     1       6.544   5.369  19.628  0.00  0.00    +0.000 OA
ATOM      3  C   UNL     1       6.205   4.399  18.973  0.00  0.00    +0.000 C 
ATOM      4  N   UNL     1       6.476   4.120  17.661  0.00  0.00    +0.000 N 
ATOM      5  C   UNL     1       7.019   5.029  16.771  0.00  0.00    +0.000 C 
ATOM      6  O   UNL     1       7.635   6.040  17.088  0.00  0.00    +0.000 OA
ATOM      7  H   UNL     1       5.914   3.365  17.308  0.00  0.00    +0.000 HD
BRANCH   5   8
ATOM      8  C   UNL     1       6.854   4.721  15.314  0.00  0.00    +0.000 A 
ATOM      9  C   UNL     1       5.784   3.897  14.932  0.00  0.00    +0.000 A 
ATOM     10  C   UNL     1       5.574   3.580  13.587  0.00  0.00    +0.000 A 
ATOM     11  C   UNL     1       6.432   4.085  12.614  0.00  0.00    +0.000 A 
ATOM     12  C   UNL     1       7.496   4.914  12.981  0.00  0.00    +0.000 A 
ATOM     13  C   UNL     1       7.705   5.236  14.325  0.00  0.00    +0.000 A 
ENDBRANCH   5   8
ENDBRANCH   1   3
BRANCH   1  14
ATOM     14  C   UNL     1       4.109   3.329  18.705  0.00  0.00    +0.000 C 
BRANCH  14  15
ATOM     15  C   UNL     1       3.087   4.101  19.529  0.00  0.00    +0.000 C 
BRANCH  15  16
ATOM     16  N   UNL     1       2.826   5.494  19.282  0.00  0.00    +0.000 N 
ATOM     17  C   UNL     1       2.057   6.193  20.176  0.00  0.00    +0.000 C 
ATOM     18  O   UNL     1       1.569   5.810  21.223  0.00  0.00    +0.000 OA
ATOM     19  C   UNL     1       1.876   7.526  19.630  0.00  0.00    +0.000 A 
ATOM     20  C   UNL     1       1.201   8.605  20.164  0.00  0.00    +0.000 A 
ATOM     21  C   UNL     1       1.155   9.766  19.391  0.00  0.00    +0.000 A 
ATOM     22  C   UNL     1       1.768   9.807  18.123  0.00  0.00    +0.000 A 
ATOM     23  C   UNL     1       2.455   8.697  17.611  0.00  0.00    +0.000 A 
ATOM     24  C   UNL     1       2.501   7.562  18.397  0.00  0.00    +0.000 A 
ATOM     25  C   UNL     1       3.122   6.245  18.179  0.00  0.00    +0.000 C 
ATOM     26  O   UNL     1       3.770   5.945  17.196  0.00  0.00    +0.000 OA
ENDBRANCH  15  16
ENDBRANCH  14  15
ENDBRANCH   1  14
TORSDOF 5
ENDMDL
MODEL 7
REMARK VINA RESULT:      -7.9      1.927      3.368
REMARK  Name = 
REMARK  5 active torsions:
REMARK  status: ('A' for Active; 'I' for Inactive)
REMARK    1  A    between atoms: C_2  and  O_12
REMARK    2  A    between atoms: C_4  and  C_6
REMARK    3  A    between atoms: O_12  and  C_13
REMARK    4  A    between atoms: C_13  and  C_14
REMARK    5  A    between atoms: C_14  and  N_15
REMARK                            x       y       z     vdW  Elec       q    Type
REMARK                         _______ _______ _______ _____ _____    ______ ____
ROOT
ATOM      1  O   UNL     1       6.097   5.958  17.419  0.00  0.00    +0.000 OA
ENDROOT
BRANCH   1   3
ATOM      2  O   UNL     1       7.930   6.837  16.396  0.00  0.00    +0.000 OA
ATOM      3  C   UNL     1       7.052   5.993  16.443  0.00  0.00    +0.000 C 
ATOM      4  N   UNL     1       6.757   5.019  15.529  0.00  0.00    +0.000 N 
ATOM      5  C   UNL     1       7.290   4.964  14.254  0.00  0.00    +0.000 C 
ATOM      6  O   UNL     1       8.314   5.535  13.896  0.00  0.00    +0.000 OA
ATOM      7  H   UNL     1       5.865   4.589  15.706  0.00  0.00    +0.000 HD
BRANCH   5   8
ATOM      8  C   UNL     1       6.560   4.118  13.257  0.00  0.00    +0.000 A 
ATOM      9  C   UNL     1       5.157   4.108  13.304  0.00  0.00    +0.000 A 
ATOM     10  C   UNL     1       4.420   3.343  12.395  0.00  0.00    +0.000 A 
ATOM     11  C   UNL     1       5.080   2.583  11.434  0.00  0.00    +0.000 A 
ATOM     12  C   UNL     1       6.476   2.592  11.372  0.00  0.00    +0.000 A 
ATOM     13  C   UNL     1       7.215   3.359  12.276  0.00  0.00    +0.000 A 
ENDBRANCH   5   8
ENDBRANCH   1   3
BRANCH   1  14
ATOM     14  C   UNL     1       5.334   7.185  17.556  0.00  0.00    +0.000 C 
BRANCH  14  15
ATOM     15  C   UNL     1       3.903   6.811  17.191  0.00  0.00    +0.000 C 
BRANCH  15  16
ATOM     16  N   UNL     1       3.230   5.714  17.833  0.00  0.00    +0.000 N 
ATOM     17  C   UNL     1       2.524   5.951  18.984  0.00  0.00    +0.000 C 
ATOM     18  O   UNL     1       2.333   7.008  19.556  0.00  0.00    +0.000 OA
ATOM     19  C   UNL     1       2.043   4.666  19.460  0.00  0.00    +0.000 A 
ATOM     20  C   UNL     1       1.267   4.379  20.565  0.00  0.00    +0.000 A 
ATOM     21  C   UNL     1       0.986   3.033  20.805  0.00  0.00    +0.000 A 
ATOM     22  C   UNL     1       1.492   2.032  19.952  0.00  0.00    +0.000 A 
ATOM     23  C   UNL     1       2.271   2.357  18.831  0.00  0.00    +0.000 A 
ATOM     24  C   UNL     1       2.526   3.695  18.602  0.00  0.00    +0.000 A 
ATOM     25  C   UNL     1       3.288   4.379  17.546  0.00  0.00    +0.000 C 
ATOM     26  O   UNL     1       3.832   3.816  16.616  0.00  0.00    +0.000 OA
ENDBRANCH  15  16
ENDBRANCH  14  15
ENDBRANCH   1  14
TORSDOF 5
ENDMDL
MODEL 8
REMARK VINA RESULT:      -7.8      0.992      6.934
REMARK  Name = 
REMARK  5 active torsions:
REMARK  status: ('A' for Active; 'I' for Inactive)
REMARK    1  A    between atoms: C_2  and  O_12
REMARK    2  A    between atoms: C_4  and  C_6
REMARK    3  A    between atoms: O_12  and  C_13
REMARK    4  A    between atoms: C_13  and  C_14
REMARK    5  A    between atoms: C_14  and  N_15
REMARK                            x       y       z     vdW  Elec       q    Type
REMARK                         _______ _______ _______ _____ _____    ______ ____
ROOT
ATOM      1  O   UNL     1       5.373   3.894  19.247  0.00  0.00    +0.000 OA
ENDROOT
BRANCH   1   3
ATOM      2  O   UNL     1       3.548   2.956  20.230  0.00  0.00    +0.000 OA
ATOM      3  C   UNL     1       4.157   3.947  19.865  0.00  0.00    +0.000 C 
ATOM      4  N   UNL     1       3.745   5.252  19.876  0.00  0.00    +0.000 N 
ATOM      5  C   UNL     1       2.443   5.653  20.113  0.00  0.00    +0.000 C 
ATOM      6  O   UNL     1       1.588   4.972  20.668  0.00  0.00    +0.000 OA
ATOM      7  H   UNL     1       4.350   5.846  19.336  0.00  0.00    +0.000 HD
BRANCH   5   8
ATOM      8  C   UNL     1       2.076   7.036  19.672  0.00  0.00    +0.000 A 
ATOM      9  C   UNL     1       2.324   7.389  18.335  0.00  0.00    +0.000 A 
ATOM     10  C   UNL     1       1.997   8.664  17.863  0.00  0.00    +0.000 A 
ATOM     11  C   UNL     1       1.421   9.595  18.723  0.00  0.00    +0.000 A 
ATOM     12  C   UNL     1       1.161   9.252  20.053  0.00  0.00    +0.000 A 
ATOM     13  C   UNL     1       1.483   7.977  20.527  0.00  0.00    +0.000 A 
ENDBRANCH   5   8
ENDBRANCH   1   3
BRANCH   1  14
ATOM     14  C   UNL     1       6.082   5.161  19.209  0.00  0.00    +0.000 C 
BRANCH  14  15
ATOM     15  C   UNL     1       5.611   5.848  17.935  0.00  0.00    +0.000 C 
BRANCH  15  16
ATOM     16  N   UNL     1       5.833   5.258  16.641  0.00  0.00    +0.000 N 
ATOM     17  C   UNL     1       6.893   5.692  15.888  0.00  0.00    +0.000 C 
ATOM     18  O   UNL     1       7.746   6.511  16.174  0.00  0.00    +0.000 OA
ATOM     19  C   UNL     1       6.813   5.008  14.609  0.00  0.00    +0.000 A 
ATOM     20  C   UNL     1       7.661   5.086  13.523  0.00  0.00    +0.000 A 
ATOM     21  C   UNL     1       7.313   4.339  12.397  0.00  0.00    +0.000 A 
ATOM     22  C   UNL     1       6.141   3.556  12.390  0.00  0.00    +0.000 A 
ATOM     23  C   UNL     1       5.304   3.490  13.514  0.00  0.00    +0.000 A 
ATOM     24  C   UNL     1       5.673   4.226  14.623  0.00  0.00    +0.000 A 
ATOM     25  C   UNL     1       5.044   4.386  15.944  0.00  0.00    +0.000 C 
ATOM     26  O   UNL     1       4.029   3.817  16.297  0.00  0.00    +0.000 OA
ENDBRANCH  15  16
ENDBRANCH  14  15
ENDBRANCH   1  14
TORSDOF 5
ENDMDL
MODEL 9
REMARK VINA RESULT:      -7.8      1.983      3.349
REMARK  Name = 
REMARK  5 active torsions:
REMARK  status: ('A' for Active; 'I' for Inactive)
REMARK    1  A    between atoms: C_2  and  O_12
REMARK    2  A    between atoms: C_4  and  C_6
REMARK    3  A    between atoms: O_12  and  C_13
REMARK    4  A    between atoms: C_13  and  C_14
REMARK    5  A    between atoms: C_14  and  N_15
REMARK                            x       y       z     vdW  Elec       q    Type
REMARK                         _______ _______ _______ _____ _____    ______ ____
ROOT
ATOM      1  O   UNL     1       6.316   5.653  17.230  0.00  0.00    +0.000 OA
ENDROOT
BRANCH   1   3
ATOM      2  O   UNL     1       7.932   6.733  16.047  0.00  0.00    +0.000 OA
ATOM      3  C   UNL     1       7.145   5.809  16.156  0.00  0.00    +0.000 C 
ATOM      4  N   UNL     1       6.835   4.842  15.240  0.00  0.00    +0.000 N 
ATOM      5  C   UNL     1       7.220   4.878  13.912  0.00  0.00    +0.000 C 
ATOM      6  O   UNL     1       8.141   5.553  13.467  0.00  0.00    +0.000 OA
ATOM      7  H   UNL     1       6.012   4.324  15.497  0.00  0.00    +0.000 HD
BRANCH   5   8
ATOM      8  C   UNL     1       6.459   3.999  12.968  0.00  0.00    +0.000 A 
ATOM      9  C   UNL     1       7.188   3.113  12.159  0.00  0.00    +0.000 A 
ATOM     10  C   UNL     1       6.534   2.263  11.264  0.00  0.00    +0.000 A 
ATOM     11  C   UNL     1       5.145   2.292  11.170  0.00  0.00    +0.000 A 
ATOM     12  C   UNL     1       4.407   3.163  11.977  0.00  0.00    +0.000 A 
ATOM     13  C   UNL     1       5.059   4.011  12.876  0.00  0.00    +0.000 A 
ENDBRANCH   5   8
ENDBRANCH   1   3
BRANCH   1  14
ATOM     14  C   UNL     1       5.770   6.893  17.752  0.00  0.00    +0.000 C 
BRANCH  14  15
ATOM     15  C   UNL     1       4.289   6.859  17.400  0.00  0.00    +0.000 C 
BRANCH  15  16
ATOM     16  N   UNL     1       3.450   5.761  17.801  0.00  0.00    +0.000 N 
ATOM     17  C   UNL     1       2.685   5.890  18.932  0.00  0.00    +0.000 C 
ATOM     18  O   UNL     1       2.567   6.853  19.666  0.00  0.00    +0.000 OA
ATOM     19  C   UNL     1       2.029   4.613  19.149  0.00  0.00    +0.000 A 
ATOM     20  C   UNL     1       1.141   4.244  20.139  0.00  0.00    +0.000 A 
ATOM     21  C   UNL     1       0.696   2.921  20.126  0.00  0.00    +0.000 A 
ATOM     22  C   UNL     1       1.154   2.021  19.144  0.00  0.00    +0.000 A 
ATOM     23  C   UNL     1       2.050   2.428  18.145  0.00  0.00    +0.000 A 
ATOM     24  C   UNL     1       2.468   3.744  18.166  0.00  0.00    +0.000 A 
ATOM     25  C   UNL     1       3.383   4.495  17.291  0.00  0.00    +0.000 C 
ATOM     26  O   UNL     1       3.933   4.031  16.311  0.00  0.00    +0.000 OA
ENDBRANCH  15  16
ENDBRANCH  14  15
ENDBRANCH   1  14
TORSDOF 5
ENDMDL
