MODEL 1
REMARK VINA RESULT:      -8.8      0.000      0.000
REMARK  Name = 
REMARK  5 active torsions:
REMARK  status: ('A' for Active; 'I' for Inactive)
REMARK    1  A    between atoms: C_1  and  C_2
REMARK    2  A    between atoms: C_5  and  S_6
REMARK    3  A    between atoms: S_6  and  N_9
REMARK    4  A    between atoms: N_12  and  C_13
REMARK    5  A    between atoms: C_13  and  N_14
REMARK                            x       y       z     vdW  Elec       q    Type
REMARK                         _______ _______ _______ _____ _____    ______ ____
ROOT
ATOM      1  N   UNL     1      -0.946  11.408  21.823  0.00  0.00    +0.000 NA
ATOM      2  C   UNL     1      -0.476  10.463  22.853  0.00  0.00    +0.000 C 
ATOM      3  C   UNL     1      -0.785   9.029  22.360  0.00  0.00    +0.000 C 
ATOM      4  N   UNL     1      -0.169   8.686  21.055  0.00  0.00    +0.000 NA
ATOM      5  C   UNL     1      -0.539   9.733  20.064  0.00  0.00    +0.000 C 
ATOM      6  C   UNL     1      -0.295  11.196  20.508  0.00  0.00    +0.000 C 
ENDROOT
BRANCH   1   7
ATOM      7  S   UNL     1      -1.431  12.946  22.285  0.00  0.00    +0.000 S 
ATOM      8  O   UNL     1      -1.376  13.799  21.115  0.00  0.00    +0.000 OA
ATOM      9  O   UNL     1      -0.715  13.297  23.493  0.00  0.00    +0.000 OA
BRANCH   7  14
ATOM     10  C   UNL     1      -7.284  12.680  23.859  0.00  0.00    +0.000 C 
ATOM     11  C   UNL     1      -5.838  12.675  23.457  0.00  0.00    +0.000 A 
ATOM     12  C   UNL     1      -4.834  12.490  24.416  0.00  0.00    +0.000 A 
ATOM     13  C   UNL     1      -3.490  12.527  24.050  0.00  0.00    +0.000 A 
ATOM     14  C   UNL     1      -3.144  12.745  22.714  0.00  0.00    +0.000 A 
ATOM     15  C   UNL     1      -4.134  12.936  21.745  0.00  0.00    +0.000 A 
ATOM     16  C   UNL     1      -5.479  12.893  22.118  0.00  0.00    +0.000 A 
ENDBRANCH   7  14
ENDBRANCH   1   7
BRANCH   4  17
ATOM     17  C   UNL     1       1.286   8.532  21.228  0.00  0.00    +0.000 C 
BRANCH  17  18
ATOM     18  N   UNL     1       1.764   7.367  20.486  0.00  0.00    +0.000 N 
ATOM     19  C   UNL     1       1.501   6.052  20.761  0.00  0.00    +0.000 A 
ATOM     20  C   UNL     1       2.241   5.333  19.852  0.00  0.00    +0.000 A 
ATOM     21  C   UNL     1       2.397   3.914  19.658  0.00  0.00    +0.000 A 
ATOM     22  O   UNL     1       1.846   3.072  20.357  0.00  0.00    +0.000 OA
ATOM     23  O   UNL     1       3.256   3.553  18.599  0.00  0.00    +0.000 OA
ATOM     24  C   UNL     1       3.884   4.512  17.753  0.00  0.00    +0.000 A 
ATOM     25  C   UNL     1       4.653   4.018  16.705  0.00  0.00    +0.000 A 
ATOM     26  C   UNL     1       5.258   4.918  15.828  0.00  0.00    +0.000 A 
ATOM     27  C   UNL     1       5.100   6.296  16.010  0.00  0.00    +0.000 A 
ATOM     28  C   UNL     1       4.336   6.788  17.073  0.00  0.00    +0.000 A 
ATOM     29  C   UNL     1       3.721   5.892  17.947  0.00  0.00    +0.000 A 
ATOM     30  C   UNL     1       2.880   6.293  19.048  0.00  0.00    +0.000 A 
ATOM     31  N   UNL     1       2.598   7.543  19.429  0.00  0.00    +0.000 NA
ENDBRANCH  17  18
ENDBRANCH   4  17
TORSDOF 4
ENDMDL
MODEL 2
REMARK VINA RESULT:      -8.3      3.605     10.697
REMARK  Name = 
REMARK  5 active torsions:
REMARK  status: ('A' for Active; 'I' for Inactive)
REMARK    1  A    between atoms: C_1  and  C_2
REMARK    2  A    between atoms: C_5  and  S_6
REMARK    3  A    between atoms: S_6  and  N_9
REMARK    4  A    between atoms: N_12  and  C_13
REMARK    5  A    between atoms: C_13  and  N_14
REMARK                            x       y       z     vdW  Elec       q    Type
REMARK                         _______ _______ _______ _____ _____    ______ ____
ROOT
ATOM      1  N   UNL     1       4.461   5.882  18.393  0.00  0.00    +0.000 NA
ATOM      2  C   UNL     1       4.502   7.173  17.681  0.00  0.00    +0.000 C 
ATOM      3  C   UNL     1       3.073   7.481  17.172  0.00  0.00    +0.000 C 
ATOM      4  N   UNL     1       2.043   7.536  18.239  0.00  0.00    +0.000 NA
ATOM      5  C   UNL     1       2.117   6.282  19.036  0.00  0.00    +0.000 C 
ATOM      6  C   UNL     1       3.527   5.889  19.544  0.00  0.00    +0.000 C 
ENDROOT
BRANCH   1   7
ATOM      7  S   UNL     1       5.839   4.926  18.433  0.00  0.00    +0.000 S 
ATOM      8  O   UNL     1       5.507   3.697  19.124  0.00  0.00    +0.000 OA
ATOM      9  O   UNL     1       6.943   5.751  18.875  0.00  0.00    +0.000 OA
BRANCH   7  14
ATOM     10  C   UNL     1       6.544   3.848  12.505  0.00  0.00    +0.000 C 
ATOM     11  C   UNL     1       6.411   4.057  13.985  0.00  0.00    +0.000 A 
ATOM     12  C   UNL     1       5.349   3.479  14.692  0.00  0.00    +0.000 A 
ATOM     13  C   UNL     1       5.201   3.708  16.059  0.00  0.00    +0.000 A 
ATOM     14  C   UNL     1       6.124   4.514  16.728  0.00  0.00    +0.000 A 
ATOM     15  C   UNL     1       7.187   5.103  16.036  0.00  0.00    +0.000 A 
ATOM     16  C   UNL     1       7.332   4.866  14.667  0.00  0.00    +0.000 A 
ENDBRANCH   7  14
ENDBRANCH   1   7
BRANCH   4  17
ATOM     17  C   UNL     1       2.239   8.754  19.043  0.00  0.00    +0.000 C 
BRANCH  17  18
ATOM     18  N   UNL     1       1.019   9.559  19.049  0.00  0.00    +0.000 N 
ATOM     19  C   UNL     1       0.600  10.412  20.035  0.00  0.00    +0.000 A 
ATOM     20  C   UNL     1      -0.635  10.858  19.631  0.00  0.00    +0.000 A 
ATOM     21  C   UNL     1      -1.579  11.751  20.256  0.00  0.00    +0.000 A 
ATOM     22  O   UNL     1      -1.391  12.274  21.349  0.00  0.00    +0.000 OA
ATOM     23  O   UNL     1      -2.760  11.973  19.519  0.00  0.00    +0.000 OA
ATOM     24  C   UNL     1      -2.987  11.401  18.234  0.00  0.00    +0.000 A 
ATOM     25  C   UNL     1      -4.167  11.757  17.588  0.00  0.00    +0.000 A 
ATOM     26  C   UNL     1      -4.417  11.251  16.313  0.00  0.00    +0.000 A 
ATOM     27  C   UNL     1      -3.498  10.391  15.701  0.00  0.00    +0.000 A 
ATOM     28  C   UNL     1      -2.320  10.027  16.360  0.00  0.00    +0.000 A 
ATOM     29  C   UNL     1      -2.061  10.538  17.632  0.00  0.00    +0.000 A 
ATOM     30  C   UNL     1      -0.859  10.258  18.380  0.00  0.00    +0.000 A 
ATOM     31  N   UNL     1       0.146   9.458  18.014  0.00  0.00    +0.000 NA
ENDBRANCH  17  18
ENDBRANCH   4  17
TORSDOF 4
ENDMDL
MODEL 3
REMARK VINA RESULT:      -8.2      0.831      1.198
REMARK  Name = 
REMARK  5 active torsions:
REMARK  status: ('A' for Active; 'I' for Inactive)
REMARK    1  A    between atoms: C_1  and  C_2
REMARK    2  A    between atoms: C_5  and  S_6
REMARK    3  A    between atoms: S_6  and  N_9
REMARK    4  A    between atoms: N_12  and  C_13
REMARK    5  A    between atoms: C_13  and  N_14
REMARK                            x       y       z     vdW  Elec       q    Type
REMARK                         _______ _______ _______ _____ _____    ______ ____
ROOT
ATOM      1  N   UNL     1      -0.511  11.517  21.653  0.00  0.00    +0.000 NA
ATOM      2  C   UNL     1      -0.266  10.525  22.718  0.00  0.00    +0.000 C 
ATOM      3  C   UNL     1      -0.687   9.136  22.181  0.00  0.00    +0.000 C 
ATOM      4  N   UNL     1       0.021   8.720  20.944  0.00  0.00    +0.000 NA
ATOM      5  C   UNL     1      -0.117   9.801  19.930  0.00  0.00    +0.000 C 
ATOM      6  C   UNL     1       0.247  11.227  20.412  0.00  0.00    +0.000 C 
ENDROOT
BRANCH   1   7
ATOM      7  S   UNL     1      -0.860  13.102  22.076  0.00  0.00    +0.000 S 
ATOM      8  O   UNL     1      -0.241  13.970  21.095  0.00  0.00    +0.000 OA
ATOM      9  O   UNL     1      -0.581  13.260  23.487  0.00  0.00    +0.000 OA
BRANCH   7  14
ATOM     10  C   UNL     1      -6.897  13.115  21.474  0.00  0.00    +0.000 C 
ATOM     11  C   UNL     1      -5.402  13.177  21.595  0.00  0.00    +0.000 A 
ATOM     12  C   UNL     1      -4.585  12.709  20.558  0.00  0.00    +0.000 A 
ATOM     13  C   UNL     1      -3.197  12.729  20.688  0.00  0.00    +0.000 A 
ATOM     14  C   UNL     1      -2.619  13.227  21.858  0.00  0.00    +0.000 A 
ATOM     15  C   UNL     1      -3.421  13.693  22.904  0.00  0.00    +0.000 A 
ATOM     16  C   UNL     1      -4.811  13.675  22.766  0.00  0.00    +0.000 A 
ENDBRANCH   7  14
ENDBRANCH   1   7
BRANCH   4  17
ATOM     17  C   UNL     1       1.421   8.398  21.269  0.00  0.00    +0.000 C 
BRANCH  17  18
ATOM     18  N   UNL     1       1.876   7.259  20.474  0.00  0.00    +0.000 N 
ATOM     19  C   UNL     1       1.601   5.937  20.697  0.00  0.00    +0.000 A 
ATOM     20  C   UNL     1       2.321   5.249  19.750  0.00  0.00    +0.000 A 
ATOM     21  C   UNL     1       2.458   3.837  19.495  0.00  0.00    +0.000 A 
ATOM     22  O   UNL     1       1.904   2.972  20.165  0.00  0.00    +0.000 OA
ATOM     23  O   UNL     1       3.299   3.510  18.411  0.00  0.00    +0.000 OA
ATOM     24  C   UNL     1       3.930   4.497  17.599  0.00  0.00    +0.000 A 
ATOM     25  C   UNL     1       4.680   4.038  16.521  0.00  0.00    +0.000 A 
ATOM     26  C   UNL     1       5.286   4.966  15.676  0.00  0.00    +0.000 A 
ATOM     27  C   UNL     1       5.147   6.338  15.917  0.00  0.00    +0.000 A 
ATOM     28  C   UNL     1       4.401   6.794  17.009  0.00  0.00    +0.000 A 
ATOM     29  C   UNL     1       3.786   5.869  17.852  0.00  0.00    +0.000 A 
ATOM     30  C   UNL     1       2.963   6.234  18.979  0.00  0.00    +0.000 A 
ATOM     31  N   UNL     1       2.700   7.469  19.415  0.00  0.00    +0.000 NA
ENDBRANCH  17  18
ENDBRANCH   4  17
TORSDOF 4
ENDMDL
MODEL 4
REMARK VINA RESULT:      -8.2      1.642      3.006
REMARK  Name = 
REMARK  5 active torsions:
REMARK  status: ('A' for Active; 'I' for Inactive)
REMARK    1  A    between atoms: C_1  and  C_2
REMARK    2  A    between atoms: C_5  and  S_6
REMARK    3  A    between atoms: S_6  and  N_9
REMARK    4  A    between atoms: N_12  and  C_13
REMARK    5  A    between atoms: C_13  and  N_14
REMARK                            x       y       z     vdW  Elec       q    Type
REMARK                         _______ _______ _______ _____ _____    ______ ____
ROOT
ATOM      1  N   UNL     1      -0.039  12.162  20.259  0.00  0.00    +0.000 NA
ATOM      2  C   UNL     1       1.026  11.305  20.813  0.00  0.00    +0.000 C 
ATOM      3  C   UNL     1       0.664   9.833  20.502  0.00  0.00    +0.000 C 
ATOM      4  N   UNL     1       0.493   9.539  19.057  0.00  0.00    +0.000 NA
ATOM      5  C   UNL     1      -0.480  10.510  18.486  0.00  0.00    +0.000 C 
ATOM      6  C   UNL     1      -0.202  12.002  18.794  0.00  0.00    +0.000 C 
ENDROOT
BRANCH   1   7
ATOM      7  S   UNL     1      -0.363  13.639  20.986  0.00  0.00    +0.000 S 
ATOM      8  O   UNL     1      -0.668  14.592  19.939  0.00  0.00    +0.000 OA
ATOM      9  O   UNL     1       0.686  13.903  21.948  0.00  0.00    +0.000 OA
BRANCH   7  14
ATOM     10  C   UNL     1      -5.294  12.839  24.428  0.00  0.00    +0.000 C 
ATOM     11  C   UNL     1      -4.107  13.002  23.524  0.00  0.00    +0.000 A 
ATOM     12  C   UNL     1      -3.077  12.053  23.525  0.00  0.00    +0.000 A 
ATOM     13  C   UNL     1      -1.955  12.225  22.716  0.00  0.00    +0.000 A 
ATOM     14  C   UNL     1      -1.863  13.350  21.893  0.00  0.00    +0.000 A 
ATOM     15  C   UNL     1      -2.881  14.309  21.884  0.00  0.00    +0.000 A 
ATOM     16  C   UNL     1      -4.005  14.128  22.693  0.00  0.00    +0.000 A 
ENDBRANCH   7  14
ENDBRANCH   1   7
BRANCH   4  17
ATOM     17  C   UNL     1       1.809   9.570  18.395  0.00  0.00    +0.000 C 
BRANCH  17  18
ATOM     18  N   UNL     1       2.421   8.243  18.424  0.00  0.00    +0.000 N 
ATOM     19  C   UNL     1       3.328   7.735  17.533  0.00  0.00    +0.000 A 
ATOM     20  C   UNL     1       3.532   6.433  17.922  0.00  0.00    +0.000 A 
ATOM     21  C   UNL     1       4.354   5.388  17.364  0.00  0.00    +0.000 A 
ATOM     22  O   UNL     1       5.039   5.532  16.358  0.00  0.00    +0.000 OA
ATOM     23  O   UNL     1       4.302   4.161  18.058  0.00  0.00    +0.000 OA
ATOM     24  C   UNL     1       3.536   3.978  19.246  0.00  0.00    +0.000 A 
ATOM     25  C   UNL     1       3.628   2.736  19.867  0.00  0.00    +0.000 A 
ATOM     26  C   UNL     1       2.926   2.521  21.052  0.00  0.00    +0.000 A 
ATOM     27  C   UNL     1       2.134   3.537  21.599  0.00  0.00    +0.000 A 
ATOM     28  C   UNL     1       2.036   4.779  20.964  0.00  0.00    +0.000 A 
ATOM     29  C   UNL     1       2.744   5.003  19.784  0.00  0.00    +0.000 A 
ATOM     30  C   UNL     1       2.745   6.258  19.073  0.00  0.00    +0.000 A 
ATOM     31  N   UNL     1       2.057   7.360  19.389  0.00  0.00    +0.000 NA
ENDBRANCH  17  18
ENDBRANCH   4  17
TORSDOF 4
ENDMDL
MODEL 5
REMARK VINA RESULT:      -8.1      3.348      4.878
REMARK  Name = 
REMARK  5 active torsions:
REMARK  status: ('A' for Active; 'I' for Inactive)
REMARK    1  A    between atoms: C_1  and  C_2
REMARK    2  A    between atoms: C_5  and  S_6
REMARK    3  A    between atoms: S_6  and  N_9
REMARK    4  A    between atoms: N_12  and  C_13
REMARK    5  A    between atoms: C_13  and  N_14
REMARK                            x       y       z     vdW  Elec       q    Type
REMARK                         _______ _______ _______ _____ _____    ______ ____
ROOT
ATOM      1  N   UNL     1      -0.061  12.359  20.462  0.00  0.00    +0.000 NA
ATOM      2  C   UNL     1       1.047  11.504  20.930  0.00  0.00    +0.000 C 
ATOM      3  C   UNL     1       0.662  10.031  20.652  0.00  0.00    +0.000 C 
ATOM      4  N   UNL     1       0.375   9.734  19.226  0.00  0.00    +0.000 NA
ATOM      5  C   UNL     1      -0.642  10.703  18.734  0.00  0.00    +0.000 C 
ATOM      6  C   UNL     1      -0.341  12.195  19.015  0.00  0.00    +0.000 C 
ENDROOT
BRANCH   1   7
ATOM      7  S   UNL     1      -0.327  13.836  21.210  0.00  0.00    +0.000 S 
ATOM      8  O   UNL     1       0.653  13.981  22.268  0.00  0.00    +0.000 OA
ATOM      9  O   UNL     1      -1.743  13.948  21.490  0.00  0.00    +0.000 OA
BRANCH   7  14
ATOM     10  C   UNL     1       1.062  18.208  17.240  0.00  0.00    +0.000 C 
ATOM     11  C   UNL     1       0.709  17.082  18.167  0.00  0.00    +0.000 A 
ATOM     12  C   UNL     1      -0.617  16.884  18.573  0.00  0.00    +0.000 A 
ATOM     13  C   UNL     1      -0.939  15.864  19.467  0.00  0.00    +0.000 A 
ATOM     14  C   UNL     1       0.069  15.029  19.955  0.00  0.00    +0.000 A 
ATOM     15  C   UNL     1       1.399  15.217  19.562  0.00  0.00    +0.000 A 
ATOM     16  C   UNL     1       1.714  16.237  18.663  0.00  0.00    +0.000 A 
ENDBRANCH   7  14
ENDBRANCH   1   7
BRANCH   4  17
ATOM     17  C   UNL     1       1.632   9.764  18.459  0.00  0.00    +0.000 C 
BRANCH  17  18
ATOM     18  N   UNL     1       2.261   8.445  18.464  0.00  0.00    +0.000 N 
ATOM     19  C   UNL     1       3.172   7.964  17.563  0.00  0.00    +0.000 A 
ATOM     20  C   UNL     1       3.393   6.657  17.929  0.00  0.00    +0.000 A 
ATOM     21  C   UNL     1       4.226   5.632  17.351  0.00  0.00    +0.000 A 
ATOM     22  O   UNL     1       4.909   5.803  16.348  0.00  0.00    +0.000 OA
ATOM     23  O   UNL     1       4.189   4.393  18.023  0.00  0.00    +0.000 OA
ATOM     24  C   UNL     1       3.427   4.179  19.208  0.00  0.00    +0.000 A 
ATOM     25  C   UNL     1       3.534   2.928  19.806  0.00  0.00    +0.000 A 
ATOM     26  C   UNL     1       2.835   2.682  20.988  0.00  0.00    +0.000 A 
ATOM     27  C   UNL     1       2.032   3.679  21.554  0.00  0.00    +0.000 A 
ATOM     28  C   UNL     1       1.919   4.931  20.942  0.00  0.00    +0.000 A 
ATOM     29  C   UNL     1       2.623   5.184  19.765  0.00  0.00    +0.000 A 
ATOM     30  C   UNL     1       2.608   6.452  19.077  0.00  0.00    +0.000 A 
ATOM     31  N   UNL     1       1.908   7.540  19.413  0.00  0.00    +0.000 NA
ENDBRANCH  17  18
ENDBRANCH   4  17
TORSDOF 4
ENDMDL
MODEL 6
REMARK VINA RESULT:      -8.1      1.759      2.904
REMARK  Name = 
REMARK  5 active torsions:
REMARK  status: ('A' for Active; 'I' for Inactive)
REMARK    1  A    between atoms: C_1  and  C_2
REMARK    2  A    between atoms: C_5  and  S_6
REMARK    3  A    between atoms: S_6  and  N_9
REMARK    4  A    between atoms: N_12  and  C_13
REMARK    5  A    between atoms: C_13  and  N_14
REMARK                            x       y       z     vdW  Elec       q    Type
REMARK                         _______ _______ _______ _____ _____    ______ ____
ROOT
ATOM      1  N   UNL     1      -0.035  11.863  20.146  0.00  0.00    +0.000 NA
ATOM      2  C   UNL     1       1.114  11.088  20.652  0.00  0.00    +0.000 C 
ATOM      3  C   UNL     1       0.838   9.591  20.376  0.00  0.00    +0.000 C 
ATOM      4  N   UNL     1       0.612   9.265  18.946  0.00  0.00    +0.000 NA
ATOM      5  C   UNL     1      -0.454  10.159  18.416  0.00  0.00    +0.000 C 
ATOM      6  C   UNL     1      -0.262  11.671  18.693  0.00  0.00    +0.000 C 
ENDROOT
BRANCH   1   7
ATOM      7  S   UNL     1      -0.420  13.324  20.873  0.00  0.00    +0.000 S 
ATOM      8  O   UNL     1      -0.645  14.297  19.823  0.00  0.00    +0.000 OA
ATOM      9  O   UNL     1       0.549  13.572  21.919  0.00  0.00    +0.000 OA
BRANCH   7  14
ATOM     10  C   UNL     1      -5.735  12.662  23.721  0.00  0.00    +0.000 C 
ATOM     11  C   UNL     1      -4.427  12.759  22.992  0.00  0.00    +0.000 A 
ATOM     12  C   UNL     1      -3.230  12.414  23.631  0.00  0.00    +0.000 A 
ATOM     13  C   UNL     1      -2.011  12.544  22.968  0.00  0.00    +0.000 A 
ATOM     14  C   UNL     1      -1.986  13.015  21.653  0.00  0.00    +0.000 A 
ATOM     15  C   UNL     1      -3.173  13.368  21.003  0.00  0.00    +0.000 A 
ATOM     16  C   UNL     1      -4.391  13.232  21.671  0.00  0.00    +0.000 A 
ENDBRANCH   7  14
ENDBRANCH   1   7
BRANCH   4  17
ATOM     17  C   UNL     1       1.886   9.375  18.214  0.00  0.00    +0.000 C 
BRANCH  17  18
ATOM     18  N   UNL     1       2.496   8.056  18.059  0.00  0.00    +0.000 N 
ATOM     19  C   UNL     1       3.716   7.773  17.507  0.00  0.00    +0.000 A 
ATOM     20  C   UNL     1       3.805   6.402  17.499  0.00  0.00    +0.000 A 
ATOM     21  C   UNL     1       4.837   5.515  17.021  0.00  0.00    +0.000 A 
ATOM     22  O   UNL     1       5.872   5.905  16.493  0.00  0.00    +0.000 OA
ATOM     23  O   UNL     1       4.562   4.143  17.193  0.00  0.00    +0.000 OA
ATOM     24  C   UNL     1       3.381   3.665  17.831  0.00  0.00    +0.000 A 
ATOM     25  C   UNL     1       3.267   2.288  17.994  0.00  0.00    +0.000 A 
ATOM     26  C   UNL     1       2.146   1.776  18.646  0.00  0.00    +0.000 A 
ATOM     27  C   UNL     1       1.148   2.636  19.118  0.00  0.00    +0.000 A 
ATOM     28  C   UNL     1       1.262   4.019  18.940  0.00  0.00    +0.000 A 
ATOM     29  C   UNL     1       2.386   4.537  18.297  0.00  0.00    +0.000 A 
ATOM     30  C   UNL     1       2.619   5.947  18.100  0.00  0.00    +0.000 A 
ATOM     31  N   UNL     1       1.808   6.951  18.445  0.00  0.00    +0.000 NA
ENDBRANCH  17  18
ENDBRANCH   4  17
TORSDOF 4
ENDMDL
MODEL 7
REMARK VINA RESULT:      -8.0      1.170      1.324
REMARK  Name = 
REMARK  5 active torsions:
REMARK  status: ('A' for Active; 'I' for Inactive)
REMARK    1  A    between atoms: C_1  and  C_2
REMARK    2  A    between atoms: C_5  and  S_6
REMARK    3  A    between atoms: S_6  and  N_9
REMARK    4  A    between atoms: N_12  and  C_13
REMARK    5  A    between atoms: C_13  and  N_14
REMARK                            x       y       z     vdW  Elec       q    Type
REMARK                         _______ _______ _______ _____ _____    ______ ____
ROOT
ATOM      1  N   UNL     1      -0.713  12.205  20.882  0.00  0.00    +0.000 NA
ATOM      2  C   UNL     1       0.248  11.243  21.454  0.00  0.00    +0.000 C 
ATOM      3  C   UNL     1      -0.066   9.847  20.864  0.00  0.00    +0.000 C 
ATOM      4  N   UNL     1      -0.006   9.784  19.382  0.00  0.00    +0.000 NA
ATOM      5  C   UNL     1      -0.873  10.859  18.825  0.00  0.00    +0.000 C 
ATOM      6  C   UNL     1      -0.641  12.277  19.402  0.00  0.00    +0.000 C 
ENDROOT
BRANCH   1   7
ATOM      7  S   UNL     1      -1.142  13.561  21.771  0.00  0.00    +0.000 S 
ATOM      8  O   UNL     1      -1.277  14.672  20.851  0.00  0.00    +0.000 OA
ATOM      9  O   UNL     1      -0.256  13.645  22.913  0.00  0.00    +0.000 OA
BRANCH   7  14
ATOM     10  C   UNL     1      -6.734  12.673  23.950  0.00  0.00    +0.000 C 
ATOM     11  C   UNL     1      -5.346  12.822  23.400  0.00  0.00    +0.000 A 
ATOM     12  C   UNL     1      -4.235  12.784  24.253  0.00  0.00    +0.000 A 
ATOM     13  C   UNL     1      -2.949  12.964  23.748  0.00  0.00    +0.000 A 
ATOM     14  C   UNL     1      -2.767  13.177  22.379  0.00  0.00    +0.000 A 
ATOM     15  C   UNL     1      -3.866  13.222  21.516  0.00  0.00    +0.000 A 
ATOM     16  C   UNL     1      -5.152  13.037  22.027  0.00  0.00    +0.000 A 
ENDBRANCH   7  14
ENDBRANCH   1   7
BRANCH   4  17
ATOM     17  C   UNL     1       1.398   9.879  18.947  0.00  0.00    +0.000 C 
BRANCH  17  18
ATOM     18  N   UNL     1       2.000   8.548  18.887  0.00  0.00    +0.000 N 
ATOM     19  C   UNL     1       1.849   7.535  19.795  0.00  0.00    +0.000 A 
ATOM     20  C   UNL     1       2.676   6.527  19.359  0.00  0.00    +0.000 A 
ATOM     21  C   UNL     1       2.965   5.226  19.907  0.00  0.00    +0.000 A 
ATOM     22  O   UNL     1       2.471   4.806  20.948  0.00  0.00    +0.000 OA
ATOM     23  O   UNL     1       3.883   4.460  19.159  0.00  0.00    +0.000 OA
ATOM     24  C   UNL     1       4.447   4.914  17.932  0.00  0.00    +0.000 A 
ATOM     25  C   UNL     1       5.288   4.030  17.262  0.00  0.00    +0.000 A 
ATOM     26  C   UNL     1       5.835   4.415  16.039  0.00  0.00    +0.000 A 
ATOM     27  C   UNL     1       5.548   5.675  15.501  0.00  0.00    +0.000 A 
ATOM     28  C   UNL     1       4.712   6.564  16.184  0.00  0.00    +0.000 A 
ATOM     29  C   UNL     1       4.155   6.180  17.404  0.00  0.00    +0.000 A 
ATOM     30  C   UNL     1       3.250   7.003  18.168  0.00  0.00    +0.000 A 
ATOM     31  N   UNL     1       2.845   8.241  17.870  0.00  0.00    +0.000 NA
ENDBRANCH  17  18
ENDBRANCH   4  17
TORSDOF 4
ENDMDL
MODEL 8
REMARK VINA RESULT:      -8.0      1.274      1.693
REMARK  Name = 
REMARK  5 active torsions:
REMARK  status: ('A' for Active; 'I' for Inactive)
REMARK    1  A    between atoms: C_1  and  C_2
REMARK    2  A    between atoms: C_5  and  S_6
REMARK    3  A    between atoms: S_6  and  N_9
REMARK    4  A    between atoms: N_12  and  C_13
REMARK    5  A    between atoms: C_13  and  N_14
REMARK                            x       y       z     vdW  Elec       q    Type
REMARK                         _______ _______ _______ _____ _____    ______ ____
ROOT
ATOM      1  N   UNL     1       0.270  11.666  20.590  0.00  0.00    +0.000 NA
ATOM      2  C   UNL     1       0.173  10.688  21.690  0.00  0.00    +0.000 C 
ATOM      3  C   UNL     1      -0.331   9.351  21.097  0.00  0.00    +0.000 C 
ATOM      4  N   UNL     1       0.528   8.800  20.019  0.00  0.00    +0.000 NA
ATOM      5  C   UNL     1       0.732   9.853  18.987  0.00  0.00    +0.000 C 
ATOM      6  C   UNL     1       1.197  11.232  19.517  0.00  0.00    +0.000 C 
ENDROOT
BRANCH   1   7
ATOM      7  S   UNL     1       0.075  13.298  20.925  0.00  0.00    +0.000 S 
ATOM      8  O   UNL     1      -0.074  13.996  19.664  0.00  0.00    +0.000 OA
ATOM      9  O   UNL     1       1.099  13.685  21.872  0.00  0.00    +0.000 OA
BRANCH   7  14
ATOM     10  C   UNL     1      -5.229  13.147  23.865  0.00  0.00    +0.000 C 
ATOM     11  C   UNL     1      -3.930  13.253  23.123  0.00  0.00    +0.000 A 
ATOM     12  C   UNL     1      -3.865  12.951  21.756  0.00  0.00    +0.000 A 
ATOM     13  C   UNL     1      -2.649  13.009  21.076  0.00  0.00    +0.000 A 
ATOM     14  C   UNL     1      -1.490  13.379  21.762  0.00  0.00    +0.000 A 
ATOM     15  C   UNL     1      -1.538  13.678  23.127  0.00  0.00    +0.000 A 
ATOM     16  C   UNL     1      -2.759  13.623  23.802  0.00  0.00    +0.000 A 
ENDBRANCH   7  14
ENDBRANCH   1   7
BRANCH   4  17
ATOM     17  C   UNL     1       1.784   8.302  20.604  0.00  0.00    +0.000 C 
BRANCH  17  18
ATOM     18  N   UNL     1       2.251   7.124  19.875  0.00  0.00    +0.000 N 
ATOM     19  C   UNL     1       1.995   5.814  20.178  0.00  0.00    +0.000 A 
ATOM     20  C   UNL     1       2.719   5.081  19.268  0.00  0.00    +0.000 A 
ATOM     21  C   UNL     1       2.875   3.658  19.097  0.00  0.00    +0.000 A 
ATOM     22  O   UNL     1       2.337   2.827  19.821  0.00  0.00    +0.000 OA
ATOM     23  O   UNL     1       3.715   3.280  18.029  0.00  0.00    +0.000 OA
ATOM     24  C   UNL     1       4.327   4.225  17.156  0.00  0.00    +0.000 A 
ATOM     25  C   UNL     1       5.078   3.713  16.103  0.00  0.00    +0.000 A 
ATOM     26  C   UNL     1       5.666   4.598  15.200  0.00  0.00    +0.000 A 
ATOM     27  C   UNL     1       5.509   5.979  15.361  0.00  0.00    +0.000 A 
ATOM     28  C   UNL     1       4.763   6.489  16.428  0.00  0.00    +0.000 A 
ATOM     29  C   UNL     1       4.165   5.607  17.328  0.00  0.00    +0.000 A 
ATOM     30  C   UNL     1       3.343   6.027  18.437  0.00  0.00    +0.000 A 
ATOM     31  N   UNL     1       3.066   7.282  18.801  0.00  0.00    +0.000 NA
ENDBRANCH  17  18
ENDBRANCH   4  17
TORSDOF 4
ENDMDL
MODEL 9
REMARK VINA RESULT:      -8.0      1.502      2.944
REMARK  Name = 
REMARK  5 active torsions:
REMARK  status: ('A' for Active; 'I' for Inactive)
REMARK    1  A    between atoms: C_1  and  C_2
REMARK    2  A    between atoms: C_5  and  S_6
REMARK    3  A    between atoms: S_6  and  N_9
REMARK    4  A    between atoms: N_12  and  C_13
REMARK    5  A    between atoms: C_13  and  N_14
REMARK                            x       y       z     vdW  Elec       q    Type
REMARK                         _______ _______ _______ _____ _____    ______ ____
ROOT
ATOM      1  N   UNL     1      -0.929  12.191  20.655  0.00  0.00    +0.000 NA
ATOM      2  C   UNL     1       0.174  11.495  21.345  0.00  0.00    +0.000 C 
ATOM      3  C   UNL     1       0.031   9.980  21.063  0.00  0.00    +0.000 C 
ATOM      4  N   UNL     1       0.045   9.624  19.622  0.00  0.00    +0.000 NA
ATOM      5  C   UNL     1      -0.979  10.444  18.919  0.00  0.00    +0.000 C 
ATOM      6  C   UNL     1      -0.921  11.968  19.189  0.00  0.00    +0.000 C 
ENDROOT
BRANCH   1   7
ATOM      7  S   UNL     1      -1.506  13.635  21.284  0.00  0.00    +0.000 S 
ATOM      8  O   UNL     1      -1.336  14.660  20.274  0.00  0.00    +0.000 OA
ATOM      9  O   UNL     1      -0.947  13.800  22.609  0.00  0.00    +0.000 OA
BRANCH   7  14
ATOM     10  C   UNL     1      -7.379  12.253  21.914  0.00  0.00    +0.000 C 
ATOM     11  C   UNL     1      -5.945  12.664  21.753  0.00  0.00    +0.000 A 
ATOM     12  C   UNL     1      -5.359  12.720  20.482  0.00  0.00    +0.000 A 
ATOM     13  C   UNL     1      -4.015  13.061  20.336  0.00  0.00    +0.000 A 
ATOM     14  C   UNL     1      -3.251  13.356  21.467  0.00  0.00    +0.000 A 
ATOM     15  C   UNL     1      -3.820  13.300  22.744  0.00  0.00    +0.000 A 
ATOM     16  C   UNL     1      -5.168  12.962  22.883  0.00  0.00    +0.000 A 
ENDBRANCH   7  14
ENDBRANCH   1   7
BRANCH   4  17
ATOM     17  C   UNL     1       1.406   9.803  19.089  0.00  0.00    +0.000 C 
BRANCH  17  18
ATOM     18  N   UNL     1       2.066   8.507  18.938  0.00  0.00    +0.000 N 
ATOM     19  C   UNL     1       2.930   8.134  17.944  0.00  0.00    +0.000 A 
ATOM     20  C   UNL     1       3.205   6.808  18.178  0.00  0.00    +0.000 A 
ATOM     21  C   UNL     1       4.025   5.863  17.462  0.00  0.00    +0.000 A 
ATOM     22  O   UNL     1       4.639   6.140  16.439  0.00  0.00    +0.000 OA
ATOM     23  O   UNL     1       4.061   4.569  18.022  0.00  0.00    +0.000 OA
ATOM     24  C   UNL     1       3.380   4.230  19.227  0.00  0.00    +0.000 A 
ATOM     25  C   UNL     1       3.555   2.935  19.704  0.00  0.00    +0.000 A 
ATOM     26  C   UNL     1       2.938   2.566  20.900  0.00  0.00    +0.000 A 
ATOM     27  C   UNL     1       2.149   3.486  21.600  0.00  0.00    +0.000 A 
ATOM     28  C   UNL     1       1.967   4.782  21.109  0.00  0.00    +0.000 A 
ATOM     29  C   UNL     1       2.589   5.158  19.919  0.00  0.00    +0.000 A 
ATOM     30  C   UNL     1       2.499   6.480  19.349  0.00  0.00    +0.000 A 
ATOM     31  N   UNL     1       1.796   7.513  19.822  0.00  0.00    +0.000 NA
ENDBRANCH  17  18
ENDBRANCH   4  17
TORSDOF 4
ENDMDL
