MODEL 1
REMARK VINA RESULT:      -7.6      0.000      0.000
REMARK  Name = 
REMARK  7 active torsions:
REMARK  status: ('A' for Active; 'I' for Inactive)
REMARK    1  A    between atoms: C_1  and  C_2
REMARK    2  A    between atoms: C_7  and  O_8
REMARK    3  A    between atoms: C_9  and  C_10
REMARK    4  A    between atoms: C_9  and  O_11
REMARK    5  A    between atoms: C_15  and  C_16
REMARK    6  A    between atoms: C_16  and  C_17
REMARK    7  A    between atoms: C_16  and  C_18
REMARK                            x       y       z     vdW  Elec       q    Type
REMARK                         _______ _______ _______ _____ _____    ______ ____
ROOT
ATOM      1  C   UNL     1       0.637   2.543  19.049  0.00  0.00    +0.000 C 
ATOM      2  C   UNL     1       1.910   3.193  18.585  0.00  0.00    +0.000 A 
ATOM      3  C   UNL     1       1.997   4.591  18.470  0.00  0.00    +0.000 A 
ATOM      4  C   UNL     1       3.171   5.249  18.048  0.00  0.00    +0.000 A 
ATOM      5  C   UNL     1       4.288   4.441  17.743  0.00  0.00    +0.000 A 
ATOM      6  C   UNL     1       4.199   3.035  17.856  0.00  0.00    +0.000 A 
ATOM      7  C   UNL     1       3.023   2.426  18.271  0.00  0.00    +0.000 A 
ATOM      8  C   UNL     1       5.617   5.040  17.311  0.00  0.00    +0.000 C 
ATOM      9  C   UNL     1       6.669   4.880  18.417  0.00  0.00    +0.000 C 
ATOM     10  C   UNL     1       5.534   6.529  16.962  0.00  0.00    +0.000 C 
ATOM     11  O   UNL     1       6.409   7.132  16.339  0.00  0.00    +0.000 OA
ATOM     12  C   UNL     1       4.359   7.301  17.420  0.00  0.00    +0.000 C 
ATOM     13  C   UNL     1       3.249   6.738  17.928  0.00  0.00    +0.000 C 
ENDROOT
BRANCH  13  14
ATOM     14  C   UNL     1       2.057   7.610  18.349  0.00  0.00    +0.000 C 
ATOM     15  C   UNL     1       2.002   7.743  19.876  0.00  0.00    +0.000 C 
ATOM     16  C   UNL     1       2.015   9.012  17.716  0.00  0.00    +0.000 C 
ENDBRANCH  13  14
BRANCH   7  17
ATOM     17  O   UNL     1       2.949   1.067  18.383  0.00  0.00    +0.000 OA
ATOM     18  H   UNL     1       2.567   0.837  19.245  0.00  0.00    +0.000 HD
ENDBRANCH   7  17
BRANCH   8  19
ATOM     19  O   UNL     1       6.091   4.305  16.174  0.00  0.00    +0.000 OA
ATOM     20  H   UNL     1       6.949   4.690  15.924  0.00  0.00    +0.000 HD
ENDBRANCH   8  19
TORSDOF 3
ENDMDL
MODEL 2
REMARK VINA RESULT:      -7.1      1.718      4.234
REMARK  Name = 
REMARK  7 active torsions:
REMARK  status: ('A' for Active; 'I' for Inactive)
REMARK    1  A    between atoms: C_1  and  C_2
REMARK    2  A    between atoms: C_7  and  O_8
REMARK    3  A    between atoms: C_9  and  C_10
REMARK    4  A    between atoms: C_9  and  O_11
REMARK    5  A    between atoms: C_15  and  C_16
REMARK    6  A    between atoms: C_16  and  C_17
REMARK    7  A    between atoms: C_16  and  C_18
REMARK                            x       y       z     vdW  Elec       q    Type
REMARK                         _______ _______ _______ _____ _____    ______ ____
ROOT
ATOM      1  C   UNL     1       5.584   6.206  15.708  0.00  0.00    +0.000 C 
ATOM      2  C   UNL     1       4.892   5.390  16.764  0.00  0.00    +0.000 A 
ATOM      3  C   UNL     1       4.070   6.009  17.720  0.00  0.00    +0.000 A 
ATOM      4  C   UNL     1       3.393   5.286  18.725  0.00  0.00    +0.000 A 
ATOM      5  C   UNL     1       3.565   3.885  18.738  0.00  0.00    +0.000 A 
ATOM      6  C   UNL     1       4.396   3.263  17.777  0.00  0.00    +0.000 A 
ATOM      7  C   UNL     1       5.048   4.010  16.807  0.00  0.00    +0.000 A 
ATOM      8  C   UNL     1       2.859   2.999  19.751  0.00  0.00    +0.000 C 
ATOM      9  C   UNL     1       1.762   2.168  19.074  0.00  0.00    +0.000 C 
ATOM     10  C   UNL     1       2.209   3.778  20.899  0.00  0.00    +0.000 C 
ATOM     11  O   UNL     1       1.833   3.256  21.949  0.00  0.00    +0.000 OA
ATOM     12  C   UNL     1       1.988   5.230  20.735  0.00  0.00    +0.000 C 
ATOM     13  C   UNL     1       2.522   5.958  19.738  0.00  0.00    +0.000 C 
ENDROOT
BRANCH  13  14
ATOM     14  C   UNL     1       2.270   7.471  19.658  0.00  0.00    +0.000 C 
ATOM     15  C   UNL     1       1.709   7.851  18.283  0.00  0.00    +0.000 C 
ATOM     16  C   UNL     1       1.353   8.042  20.755  0.00  0.00    +0.000 C 
ENDBRANCH  13  14
BRANCH   7  17
ATOM     17  O   UNL     1       5.843   3.400  15.880  0.00  0.00    +0.000 OA
ATOM     18  H   UNL     1       5.666   3.782  15.006  0.00  0.00    +0.000 HD
ENDBRANCH   7  17
BRANCH   8  19
ATOM     19  O   UNL     1       3.817   2.072  20.282  0.00  0.00    +0.000 OA
ATOM     20  H   UNL     1       4.157   1.553  19.533  0.00  0.00    +0.000 HD
ENDBRANCH   8  19
TORSDOF 3
ENDMDL
MODEL 3
REMARK VINA RESULT:      -7.0      1.449      4.352
REMARK  Name = 
REMARK  7 active torsions:
REMARK  status: ('A' for Active; 'I' for Inactive)
REMARK    1  A    between atoms: C_1  and  C_2
REMARK    2  A    between atoms: C_7  and  O_8
REMARK    3  A    between atoms: C_9  and  C_10
REMARK    4  A    between atoms: C_9  and  O_11
REMARK    5  A    between atoms: C_15  and  C_16
REMARK    6  A    between atoms: C_16  and  C_17
REMARK    7  A    between atoms: C_16  and  C_18
REMARK                            x       y       z     vdW  Elec       q    Type
REMARK                         _______ _______ _______ _____ _____    ______ ____
ROOT
ATOM      1  C   UNL     1       7.433   7.241  17.142  0.00  0.00    +0.000 C 
ATOM      2  C   UNL     1       6.447   6.185  17.555  0.00  0.00    +0.000 A 
ATOM      3  C   UNL     1       5.220   6.543  18.139  0.00  0.00    +0.000 A 
ATOM      4  C   UNL     1       4.258   5.590  18.535  0.00  0.00    +0.000 A 
ATOM      5  C   UNL     1       4.569   4.231  18.316  0.00  0.00    +0.000 A 
ATOM      6  C   UNL     1       5.806   3.871  17.732  0.00  0.00    +0.000 A 
ATOM      7  C   UNL     1       6.727   4.839  17.359  0.00  0.00    +0.000 A 
ATOM      8  C   UNL     1       3.597   3.118  18.671  0.00  0.00    +0.000 C 
ATOM      9  C   UNL     1       3.018   2.478  17.403  0.00  0.00    +0.000 C 
ATOM     10  C   UNL     1       2.420   3.584  19.534  0.00  0.00    +0.000 C 
ATOM     11  O   UNL     1       1.682   2.815  20.152  0.00  0.00    +0.000 OA
ATOM     12  C   UNL     1       2.126   5.031  19.611  0.00  0.00    +0.000 C 
ATOM     13  C   UNL     1       2.957   5.986  19.157  0.00  0.00    +0.000 C 
ENDROOT
BRANCH  13  14
ATOM     14  C   UNL     1       2.591   7.470  19.307  0.00  0.00    +0.000 C 
ATOM     15  C   UNL     1       1.998   8.011  18.000  0.00  0.00    +0.000 C 
ATOM     16  C   UNL     1       1.638   7.796  20.470  0.00  0.00    +0.000 C 
ENDBRANCH  13  14
BRANCH   7  17
ATOM     17  O   UNL     1       7.916   4.482  16.790  0.00  0.00    +0.000 OA
ATOM     18  H   UNL     1       7.748   4.085  15.921  0.00  0.00    +0.000 HD
ENDBRANCH   7  17
BRANCH   8  19
ATOM     19  O   UNL     1       4.323   2.092  19.363  0.00  0.00    +0.000 OA
ATOM     20  H   UNL     1       3.733   1.322  19.430  0.00  0.00    +0.000 HD
ENDBRANCH   8  19
TORSDOF 3
ENDMDL
MODEL 4
REMARK VINA RESULT:      -6.8      1.368      1.368
REMARK  Name = 
REMARK  7 active torsions:
REMARK  status: ('A' for Active; 'I' for Inactive)
REMARK    1  A    between atoms: C_1  and  C_2
REMARK    2  A    between atoms: C_7  and  O_8
REMARK    3  A    between atoms: C_9  and  C_10
REMARK    4  A    between atoms: C_9  and  O_11
REMARK    5  A    between atoms: C_15  and  C_16
REMARK    6  A    between atoms: C_16  and  C_17
REMARK    7  A    between atoms: C_16  and  C_18
REMARK                            x       y       z     vdW  Elec       q    Type
REMARK                         _______ _______ _______ _____ _____    ______ ____
ROOT
ATOM      1  C   UNL     1       1.583   3.208  21.391  0.00  0.00    +0.000 C 
ATOM      2  C   UNL     1       2.650   3.717  20.464  0.00  0.00    +0.000 A 
ATOM      3  C   UNL     1       2.489   4.943  19.795  0.00  0.00    +0.000 A 
ATOM      4  C   UNL     1       3.465   5.467  18.921  0.00  0.00    +0.000 A 
ATOM      5  C   UNL     1       4.642   4.709  18.740  0.00  0.00    +0.000 A 
ATOM      6  C   UNL     1       4.801   3.474  19.410  0.00  0.00    +0.000 A 
ATOM      7  C   UNL     1       3.815   2.991  20.258  0.00  0.00    +0.000 A 
ATOM      8  C   UNL     1       5.777   5.189  17.850  0.00  0.00    +0.000 C 
ATOM      9  C   UNL     1       6.991   5.597  18.693  0.00  0.00    +0.000 C 
ATOM     10  C   UNL     1       5.401   6.386  16.969  0.00  0.00    +0.000 C 
ATOM     11  O   UNL     1       6.064   6.750  15.997  0.00  0.00    +0.000 OA
ATOM     12  C   UNL     1       4.196   7.169  17.314  0.00  0.00    +0.000 C 
ATOM     13  C   UNL     1       3.280   6.772  18.215  0.00  0.00    +0.000 C 
ENDROOT
BRANCH  13  14
ATOM     14  C   UNL     1       2.037   7.631  18.491  0.00  0.00    +0.000 C 
ATOM     15  C   UNL     1       1.939   7.970  19.983  0.00  0.00    +0.000 C 
ATOM     16  C   UNL     1       1.940   8.928  17.668  0.00  0.00    +0.000 C 
ENDBRANCH  13  14
BRANCH   7  17
ATOM     17  O   UNL     1       3.981   1.800  20.906  0.00  0.00    +0.000 OA
ATOM     18  H   UNL     1       4.329   1.143  20.284  0.00  0.00    +0.000 HD
ENDBRANCH   7  17
BRANCH   8  19
ATOM     19  O   UNL     1       6.191   4.094  17.021  0.00  0.00    +0.000 OA
ATOM     20  H   UNL     1       5.811   4.245  16.139  0.00  0.00    +0.000 HD
ENDBRANCH   8  19
TORSDOF 3
ENDMDL
MODEL 5
REMARK VINA RESULT:      -6.7      2.783      4.756
REMARK  Name = 
REMARK  7 active torsions:
REMARK  status: ('A' for Active; 'I' for Inactive)
REMARK    1  A    between atoms: C_1  and  C_2
REMARK    2  A    between atoms: C_7  and  O_8
REMARK    3  A    between atoms: C_9  and  C_10
REMARK    4  A    between atoms: C_9  and  O_11
REMARK    5  A    between atoms: C_15  and  C_16
REMARK    6  A    between atoms: C_16  and  C_17
REMARK    7  A    between atoms: C_16  and  C_18
REMARK                            x       y       z     vdW  Elec       q    Type
REMARK                         _______ _______ _______ _____ _____    ______ ____
ROOT
ATOM      1  C   UNL     1       5.131   3.551  12.299  0.00  0.00    +0.000 C 
ATOM      2  C   UNL     1       5.599   4.009  13.652  0.00  0.00    +0.000 A 
ATOM      3  C   UNL     1       4.795   3.814  14.788  0.00  0.00    +0.000 A 
ATOM      4  C   UNL     1       5.194   4.218  16.081  0.00  0.00    +0.000 A 
ATOM      5  C   UNL     1       6.458   4.833  16.202  0.00  0.00    +0.000 A 
ATOM      6  C   UNL     1       7.264   5.032  15.058  0.00  0.00    +0.000 A 
ATOM      7  C   UNL     1       6.835   4.624  13.803  0.00  0.00    +0.000 A 
ATOM      8  C   UNL     1       7.007   5.279  17.548  0.00  0.00    +0.000 C 
ATOM      9  C   UNL     1       8.168   4.377  17.986  0.00  0.00    +0.000 C 
ATOM     10  C   UNL     1       5.964   5.269  18.670  0.00  0.00    +0.000 C 
ATOM     11  O   UNL     1       6.119   5.842  19.749  0.00  0.00    +0.000 OA
ATOM     12  C   UNL     1       4.713   4.507  18.468  0.00  0.00    +0.000 C 
ATOM     13  C   UNL     1       4.328   4.006  17.281  0.00  0.00    +0.000 C 
ENDROOT
BRANCH  13  14
ATOM     14  C   UNL     1       2.995   3.255  17.150  0.00  0.00    +0.000 C 
ATOM     15  C   UNL     1       3.057   1.916  17.896  0.00  0.00    +0.000 C 
ATOM     16  C   UNL     1       1.753   4.036  17.614  0.00  0.00    +0.000 C 
ENDBRANCH  13  14
BRANCH   7  17
ATOM     17  O   UNL     1       7.623   4.814  12.705  0.00  0.00    +0.000 OA
ATOM     18  H   UNL     1       8.463   4.345  12.828  0.00  0.00    +0.000 HD
ENDBRANCH   7  17
BRANCH   8  19
ATOM     19  O   UNL     1       7.540   6.603  17.399  0.00  0.00    +0.000 OA
ATOM     20  H   UNL     1       7.639   6.764  16.446  0.00  0.00    +0.000 HD
ENDBRANCH   8  19
TORSDOF 3
ENDMDL
MODEL 6
REMARK VINA RESULT:      -6.7      0.756      1.119
REMARK  Name = 
REMARK  7 active torsions:
REMARK  status: ('A' for Active; 'I' for Inactive)
REMARK    1  A    between atoms: C_1  and  C_2
REMARK    2  A    between atoms: C_7  and  O_8
REMARK    3  A    between atoms: C_9  and  C_10
REMARK    4  A    between atoms: C_9  and  O_11
REMARK    5  A    between atoms: C_15  and  C_16
REMARK    6  A    between atoms: C_16  and  C_17
REMARK    7  A    between atoms: C_16  and  C_18
REMARK                            x       y       z     vdW  Elec       q    Type
REMARK                         _______ _______ _______ _____ _____    ______ ____
ROOT
ATOM      1  C   UNL     1       0.708   3.059  19.981  0.00  0.00    +0.000 C 
ATOM      2  C   UNL     1       1.842   3.507  19.102  0.00  0.00    +0.000 A 
ATOM      3  C   UNL     1       2.111   4.875  18.926  0.00  0.00    +0.000 A 
ATOM      4  C   UNL     1       3.168   5.346  18.119  0.00  0.00    +0.000 A 
ATOM      5  C   UNL     1       3.972   4.377  17.481  0.00  0.00    +0.000 A 
ATOM      6  C   UNL     1       3.699   3.001  17.655  0.00  0.00    +0.000 A 
ATOM      7  C   UNL     1       2.646   2.578  18.455  0.00  0.00    +0.000 A 
ATOM      8  C   UNL     1       5.160   4.764  16.614  0.00  0.00    +0.000 C 
ATOM      9  C   UNL     1       6.479   4.404  17.309  0.00  0.00    +0.000 C 
ATOM     10  C   UNL     1       5.208   6.257  16.273  0.00  0.00    +0.000 C 
ATOM     11  O   UNL     1       5.911   6.728  15.377  0.00  0.00    +0.000 OA
ATOM     12  C   UNL     1       4.395   7.195  17.075  0.00  0.00    +0.000 C 
ATOM     13  C   UNL     1       3.442   6.805  17.940  0.00  0.00    +0.000 C 
ENDROOT
BRANCH  13  14
ATOM     14  C   UNL     1       2.618   7.847  18.711  0.00  0.00    +0.000 C 
ATOM     15  C   UNL     1       1.499   8.409  17.825  0.00  0.00    +0.000 C 
ATOM     16  C   UNL     1       2.014   7.354  20.037  0.00  0.00    +0.000 C 
ENDBRANCH  13  14
BRANCH   7  17
ATOM     17  O   UNL     1       2.393   1.247  18.622  0.00  0.00    +0.000 OA
ATOM     18  H   UNL     1       3.226   0.783  18.801  0.00  0.00    +0.000 HD
ENDBRANCH   7  17
BRANCH   8  19
ATOM     19  O   UNL     1       5.102   3.996  15.404  0.00  0.00    +0.000 OA
ATOM     20  H   UNL     1       4.247   3.532  15.403  0.00  0.00    +0.000 HD
ENDBRANCH   8  19
TORSDOF 3
ENDMDL
MODEL 7
REMARK VINA RESULT:      -6.4      2.180      4.851
REMARK  Name = 
REMARK  7 active torsions:
REMARK  status: ('A' for Active; 'I' for Inactive)
REMARK    1  A    between atoms: C_1  and  C_2
REMARK    2  A    between atoms: C_7  and  O_8
REMARK    3  A    between atoms: C_9  and  C_10
REMARK    4  A    between atoms: C_9  and  O_11
REMARK    5  A    between atoms: C_15  and  C_16
REMARK    6  A    between atoms: C_16  and  C_17
REMARK    7  A    between atoms: C_16  and  C_18
REMARK                            x       y       z     vdW  Elec       q    Type
REMARK                         _______ _______ _______ _____ _____    ______ ____
ROOT
ATOM      1  C   UNL     1       2.584   9.149  18.199  0.00  0.00    +0.000 C 
ATOM      2  C   UNL     1       2.694   7.670  18.441  0.00  0.00    +0.000 A 
ATOM      3  C   UNL     1       3.472   6.863  17.593  0.00  0.00    +0.000 A 
ATOM      4  C   UNL     1       3.613   5.472  17.784  0.00  0.00    +0.000 A 
ATOM      5  C   UNL     1       2.938   4.900  18.884  0.00  0.00    +0.000 A 
ATOM      6  C   UNL     1       2.153   5.712  19.735  0.00  0.00    +0.000 A 
ATOM      7  C   UNL     1       2.036   7.076  19.511  0.00  0.00    +0.000 A 
ATOM      8  C   UNL     1       3.044   3.419  19.209  0.00  0.00    +0.000 C 
ATOM      9  C   UNL     1       3.871   3.201  20.481  0.00  0.00    +0.000 C 
ATOM     10  C   UNL     1       3.685   2.591  18.090  0.00  0.00    +0.000 C 
ATOM     11  O   UNL     1       3.618   1.363  18.029  0.00  0.00    +0.000 OA
ATOM     12  C   UNL     1       4.455   3.292  17.041  0.00  0.00    +0.000 C 
ATOM     13  C   UNL     1       4.443   4.625  16.872  0.00  0.00    +0.000 C 
ENDROOT
BRANCH  13  14
ATOM     14  C   UNL     1       5.245   5.273  15.733  0.00  0.00    +0.000 C 
ATOM     15  C   UNL     1       6.591   5.793  16.253  0.00  0.00    +0.000 C 
ATOM     16  C   UNL     1       5.488   4.373  14.509  0.00  0.00    +0.000 C 
ENDBRANCH  13  14
BRANCH   7  17
ATOM     17  O   UNL     1       1.280   7.853  20.341  0.00  0.00    +0.000 OA
ATOM     18  H   UNL     1       1.825   8.147  21.088  0.00  0.00    +0.000 HD
ENDBRANCH   7  17
BRANCH   8  19
ATOM     19  O   UNL     1       1.725   2.923  19.477  0.00  0.00    +0.000 OA
ATOM     20  H   UNL     1       1.132   3.318  18.815  0.00  0.00    +0.000 HD
ENDBRANCH   8  19
TORSDOF 3
ENDMDL
MODEL 8
REMARK VINA RESULT:      -6.2      2.892      5.235
REMARK  Name = 
REMARK  7 active torsions:
REMARK  status: ('A' for Active; 'I' for Inactive)
REMARK    1  A    between atoms: C_1  and  C_2
REMARK    2  A    between atoms: C_7  and  O_8
REMARK    3  A    between atoms: C_9  and  C_10
REMARK    4  A    between atoms: C_9  and  O_11
REMARK    5  A    between atoms: C_15  and  C_16
REMARK    6  A    between atoms: C_16  and  C_17
REMARK    7  A    between atoms: C_16  and  C_18
REMARK                            x       y       z     vdW  Elec       q    Type
REMARK                         _______ _______ _______ _____ _____    ______ ____
ROOT
ATOM      1  C   UNL     1       7.828   5.167  12.828  0.00  0.00    +0.000 C 
ATOM      2  C   UNL     1       6.973   4.752  13.992  0.00  0.00    +0.000 A 
ATOM      3  C   UNL     1       7.210   5.277  15.274  0.00  0.00    +0.000 A 
ATOM      4  C   UNL     1       6.430   4.926  16.397  0.00  0.00    +0.000 A 
ATOM      5  C   UNL     1       5.373   4.014  16.187  0.00  0.00    +0.000 A 
ATOM      6  C   UNL     1       5.138   3.483  14.898  0.00  0.00    +0.000 A 
ATOM      7  C   UNL     1       5.931   3.851  13.820  0.00  0.00    +0.000 A 
ATOM      8  C   UNL     1       4.445   3.588  17.314  0.00  0.00    +0.000 C 
ATOM      9  C   UNL     1       3.048   4.191  17.122  0.00  0.00    +0.000 C 
ATOM     10  C   UNL     1       4.941   3.999  18.704  0.00  0.00    +0.000 C 
ATOM     11  O   UNL     1       4.498   3.527  19.752  0.00  0.00    +0.000 OA
ATOM     12  C   UNL     1       5.987   5.039  18.806  0.00  0.00    +0.000 C 
ATOM     13  C   UNL     1       6.694   5.491  17.756  0.00  0.00    +0.000 C 
ENDROOT
BRANCH  13  14
ATOM     14  C   UNL     1       7.788   6.551  17.953  0.00  0.00    +0.000 C 
ATOM     15  C   UNL     1       7.276   7.935  17.538  0.00  0.00    +0.000 C 
ATOM     16  C   UNL     1       8.374   6.632  19.374  0.00  0.00    +0.000 C 
ENDBRANCH  13  14
BRANCH   7  17
ATOM     17  O   UNL     1       5.692   3.339  12.577  0.00  0.00    +0.000 OA
ATOM     18  H   UNL     1       4.798   3.587  12.295  0.00  0.00    +0.000 HD
ENDBRANCH   7  17
BRANCH   8  19
ATOM     19  O   UNL     1       4.297   2.163  17.258  0.00  0.00    +0.000 OA
ATOM     20  H   UNL     1       3.665   1.915  17.955  0.00  0.00    +0.000 HD
ENDBRANCH   8  19
TORSDOF 3
ENDMDL
MODEL 9
REMARK VINA RESULT:      -6.2      2.037      4.569
REMARK  Name = 
REMARK  7 active torsions:
REMARK  status: ('A' for Active; 'I' for Inactive)
REMARK    1  A    between atoms: C_1  and  C_2
REMARK    2  A    between atoms: C_7  and  O_8
REMARK    3  A    between atoms: C_9  and  C_10
REMARK    4  A    between atoms: C_9  and  O_11
REMARK    5  A    between atoms: C_15  and  C_16
REMARK    6  A    between atoms: C_16  and  C_17
REMARK    7  A    between atoms: C_16  and  C_18
REMARK                            x       y       z     vdW  Elec       q    Type
REMARK                         _______ _______ _______ _____ _____    ______ ____
ROOT
ATOM      1  C   UNL     1       0.478   9.228  19.390  0.00  0.00    +0.000 C 
ATOM      2  C   UNL     1       1.636   8.371  18.963  0.00  0.00    +0.000 A 
ATOM      3  C   UNL     1       1.852   7.116  19.558  0.00  0.00    +0.000 A 
ATOM      4  C   UNL     1       2.920   6.271  19.186  0.00  0.00    +0.000 A 
ATOM      5  C   UNL     1       3.782   6.731  18.168  0.00  0.00    +0.000 A 
ATOM      6  C   UNL     1       3.566   7.995  17.572  0.00  0.00    +0.000 A 
ATOM      7  C   UNL     1       2.507   8.799  17.969  0.00  0.00    +0.000 A 
ATOM      8  C   UNL     1       4.944   5.893  17.661  0.00  0.00    +0.000 C 
ATOM      9  C   UNL     1       4.665   5.380  16.243  0.00  0.00    +0.000 C 
ATOM     10  C   UNL     1       5.254   4.678  18.542  0.00  0.00    +0.000 C 
ATOM     11  O   UNL     1       6.303   4.037  18.472  0.00  0.00    +0.000 OA
ATOM     12  C   UNL     1       4.232   4.225  19.509  0.00  0.00    +0.000 C 
ATOM     13  C   UNL     1       3.139   4.939  19.829  0.00  0.00    +0.000 C 
ENDROOT
BRANCH  13  14
ATOM     14  C   UNL     1       2.142   4.409  20.871  0.00  0.00    +0.000 C 
ATOM     15  C   UNL     1       0.802   4.070  20.208  0.00  0.00    +0.000 C 
ATOM     16  C   UNL     1       2.626   3.197  21.685  0.00  0.00    +0.000 C 
ENDBRANCH  13  14
BRANCH   7  17
ATOM     17  O   UNL     1       2.302  10.016  17.384  0.00  0.00    +0.000 OA
ATOM     18  H   UNL     1       2.401   9.929  16.423  0.00  0.00    +0.000 HD
ENDBRANCH   7  17
BRANCH   8  19
ATOM     19  O   UNL     1       6.103   6.735  17.580  0.00  0.00    +0.000 OA
ATOM     20  H   UNL     1       5.848   7.521  17.066  0.00  0.00    +0.000 HD
ENDBRANCH   8  19
TORSDOF 3
ENDMDL
