MODEL 1
REMARK VINA RESULT:      -8.3      0.000      0.000
REMARK  Name = 
REMARK  8 active torsions:
REMARK  status: ('A' for Active; 'I' for Inactive)
REMARK    1  A    between atoms: C_1  and  O_2
REMARK    2  A    between atoms: O_2  and  C_3
REMARK    3  A    between atoms: C_9  and  N_10
REMARK    4  A    between atoms: N_10  and  S_11
REMARK    5  A    between atoms: S_11  and  C_14
REMARK    6  A    between atoms: C_19  and  N_20
REMARK    7  A    between atoms: N_20  and  C_21
REMARK    8  A    between atoms: N_20  and  C_22
REMARK                            x       y       z     vdW  Elec       q    Type
REMARK                         _______ _______ _______ _____ _____    ______ ____
ROOT
ATOM      1  S   UNL     1       3.883   3.414  17.873  0.00  0.00    +0.000 S 
ATOM      2  O   UNL     1       3.442   3.916  16.590  0.00  0.00    +0.000 OA
ATOM      3  O   UNL     1       3.666   2.020  18.209  0.00  0.00    +0.000 OA
ENDROOT
BRANCH   1   4
ATOM      4  C   UNL     1       3.122   4.425  19.143  0.00  0.00    +0.000 A 
ATOM      5  C   UNL     1       2.618   3.721  20.246  0.00  0.00    +0.000 A 
ATOM      6  C   UNL     1       1.813   4.364  21.165  0.00  0.00    +0.000 A 
ATOM      7  C   UNL     1       1.512   5.713  20.989  0.00  0.00    +0.000 A 
ATOM      8  C   UNL     1       2.046   6.497  19.937  0.00  0.00    +0.000 A 
ATOM      9  C   UNL     1       1.737   7.902  19.792  0.00  0.00    +0.000 A 
ATOM     10  C   UNL     1       2.250   8.569  18.667  0.00  0.00    +0.000 A 
ATOM     11  C   UNL     1       3.057   7.923  17.737  0.00  0.00    +0.000 A 
ATOM     12  C   UNL     1       3.369   6.578  17.897  0.00  0.00    +0.000 A 
ATOM     13  C   UNL     1       2.870   5.821  18.976  0.00  0.00    +0.000 A 
BRANCH   9  14
ATOM     14  N   UNL     1       0.927   8.596  20.716  0.00  0.00    +0.000 N 
ATOM     15  C   UNL     1      -0.092   9.532  20.239  0.00  0.00    +0.000 C 
ATOM     16  C   UNL     1       1.553   8.991  21.983  0.00  0.00    +0.000 C 
ENDBRANCH   9  14
ENDBRANCH   1   4
BRANCH   1  17
ATOM     17  N   UNL     1       5.548   3.685  17.938  0.00  0.00    +0.000 N 
ATOM     18  H   UNL     1       5.708   4.293  18.734  0.00  0.00    +0.000 HD
BRANCH  17  25
ATOM     19  C   UNL     1       6.791   5.410  16.641  0.00  0.00    +0.000 A 
ATOM     20  N   UNL     1       7.353   5.838  15.485  0.00  0.00    +0.000 NA
ATOM     21  C   UNL     1       7.162   5.019  14.429  0.00  0.00    +0.000 A 
ATOM     22 CL   UNL     1       7.862   5.550  12.962  0.00  0.00    +0.000 Cl
ATOM     23  C   UNL     1       6.448   3.832  14.514  0.00  0.00    +0.000 A 
ATOM     24  N   UNL     1       5.903   3.386  15.673  0.00  0.00    +0.000 NA
ATOM     25  C   UNL     1       6.114   4.182  16.738  0.00  0.00    +0.000 A 
BRANCH  19  27
ATOM     26  C   UNL     1       7.627   7.405  17.489  0.00  0.00    +0.000 C 
ATOM     27  O   UNL     1       6.925   6.193  17.771  0.00  0.00    +0.000 OA
ENDBRANCH  19  27
ENDBRANCH  17  25
ENDBRANCH   1  17
TORSDOF 5
ENDMDL
MODEL 2
REMARK VINA RESULT:      -8.0      1.402      2.085
REMARK  Name = 
REMARK  8 active torsions:
REMARK  status: ('A' for Active; 'I' for Inactive)
REMARK    1  A    between atoms: C_1  and  O_2
REMARK    2  A    between atoms: O_2  and  C_3
REMARK    3  A    between atoms: C_9  and  N_10
REMARK    4  A    between atoms: N_10  and  S_11
REMARK    5  A    between atoms: S_11  and  C_14
REMARK    6  A    between atoms: C_19  and  N_20
REMARK    7  A    between atoms: N_20  and  C_21
REMARK    8  A    between atoms: N_20  and  C_22
REMARK                            x       y       z     vdW  Elec       q    Type
REMARK                         _______ _______ _______ _____ _____    ______ ____
ROOT
ATOM      1  S   UNL     1       3.659   3.337  17.677  0.00  0.00    +0.000 S 
ATOM      2  O   UNL     1       3.510   4.100  16.456  0.00  0.00    +0.000 OA
ATOM      3  O   UNL     1       3.096   2.004  17.761  0.00  0.00    +0.000 OA
ENDROOT
BRANCH   1   4
ATOM      4  C   UNL     1       2.986   4.320  19.017  0.00  0.00    +0.000 A 
ATOM      5  C   UNL     1       2.517   3.589  20.118  0.00  0.00    +0.000 A 
ATOM      6  C   UNL     1       1.774   4.218  21.097  0.00  0.00    +0.000 A 
ATOM      7  C   UNL     1       1.500   5.579  20.983  0.00  0.00    +0.000 A 
ATOM      8  C   UNL     1       2.004   6.388  19.935  0.00  0.00    +0.000 A 
ATOM      9  C   UNL     1       1.724   7.804  19.854  0.00  0.00    +0.000 A 
ATOM     10  C   UNL     1       2.200   8.499  18.730  0.00  0.00    +0.000 A 
ATOM     11  C   UNL     1       2.944   7.867  17.739  0.00  0.00    +0.000 A 
ATOM     12  C   UNL     1       3.229   6.510  17.836  0.00  0.00    +0.000 A 
ATOM     13  C   UNL     1       2.762   5.727  18.912  0.00  0.00    +0.000 A 
BRANCH   9  14
ATOM     14  N   UNL     1       0.978   8.484  20.840  0.00  0.00    +0.000 N 
ATOM     15  C   UNL     1      -0.120   9.368  20.448  0.00  0.00    +0.000 C 
ATOM     16  C   UNL     1       1.704   8.927  22.035  0.00  0.00    +0.000 C 
ENDBRANCH   9  14
ENDBRANCH   1   4
BRANCH   1  17
ATOM     17  N   UNL     1       5.320   3.191  17.940  0.00  0.00    +0.000 N 
ATOM     18  H   UNL     1       5.429   2.743  18.844  0.00  0.00    +0.000 HD
BRANCH  17  25
ATOM     19  C   UNL     1       6.563   4.900  16.621  0.00  0.00    +0.000 A 
ATOM     20  N   UNL     1       7.220   6.082  16.546  0.00  0.00    +0.000 NA
ATOM     21  C   UNL     1       7.385   6.710  17.729  0.00  0.00    +0.000 A 
ATOM     22 CL   UNL     1       8.218   8.202  17.650  0.00  0.00    +0.000 Cl
ATOM     23  C   UNL     1       6.920   6.194  18.930  0.00  0.00    +0.000 A 
ATOM     24  N   UNL     1       6.241   5.023  19.010  0.00  0.00    +0.000 NA
ATOM     25  C   UNL     1       6.046   4.402  17.831  0.00  0.00    +0.000 A 
BRANCH  19  27
ATOM     26  C   UNL     1       6.945   4.833  14.331  0.00  0.00    +0.000 C 
ATOM     27  O   UNL     1       6.361   4.181  15.460  0.00  0.00    +0.000 OA
ENDBRANCH  19  27
ENDBRANCH  17  25
ENDBRANCH   1  17
TORSDOF 5
ENDMDL
MODEL 3
REMARK VINA RESULT:      -7.3      2.414      4.082
REMARK  Name = 
REMARK  8 active torsions:
REMARK  status: ('A' for Active; 'I' for Inactive)
REMARK    1  A    between atoms: C_1  and  O_2
REMARK    2  A    between atoms: O_2  and  C_3
REMARK    3  A    between atoms: C_9  and  N_10
REMARK    4  A    between atoms: N_10  and  S_11
REMARK    5  A    between atoms: S_11  and  C_14
REMARK    6  A    between atoms: C_19  and  N_20
REMARK    7  A    between atoms: N_20  and  C_21
REMARK    8  A    between atoms: N_20  and  C_22
REMARK                            x       y       z     vdW  Elec       q    Type
REMARK                         _______ _______ _______ _____ _____    ______ ____
ROOT
ATOM      1  S   UNL     1       2.390   6.109  19.551  0.00  0.00    +0.000 S 
ATOM      2  O   UNL     1       2.070   5.271  18.415  0.00  0.00    +0.000 OA
ATOM      3  O   UNL     1       1.929   5.731  20.872  0.00  0.00    +0.000 OA
ENDROOT
BRANCH   1   4
ATOM      4  C   UNL     1       1.788   7.760  19.194  0.00  0.00    +0.000 A 
ATOM      5  C   UNL     1       2.119   8.255  17.924  0.00  0.00    +0.000 A 
ATOM      6  C   UNL     1       1.912   9.588  17.629  0.00  0.00    +0.000 A 
ATOM      7  C   UNL     1       1.371  10.429  18.599  0.00  0.00    +0.000 A 
ATOM      8  C   UNL     1       0.950   9.977  19.873  0.00  0.00    +0.000 A 
ATOM      9  C   UNL     1       0.368  10.868  20.852  0.00  0.00    +0.000 A 
ATOM     10  C   UNL     1       0.062  10.338  22.116  0.00  0.00    +0.000 A 
ATOM     11  C   UNL     1       0.275   8.997  22.418  0.00  0.00    +0.000 A 
ATOM     12  C   UNL     1       0.813   8.141  21.464  0.00  0.00    +0.000 A 
ATOM     13  C   UNL     1       1.181   8.595  20.181  0.00  0.00    +0.000 A 
BRANCH   9  14
ATOM     14  N   UNL     1       0.131  12.233  20.584  0.00  0.00    +0.000 N 
ATOM     15  C   UNL     1       0.902  13.262  21.283  0.00  0.00    +0.000 C 
ATOM     16  C   UNL     1      -1.252  12.622  20.287  0.00  0.00    +0.000 C 
ENDBRANCH   9  14
ENDBRANCH   1   4
BRANCH   1  17
ATOM     17  N   UNL     1       4.075   6.187  19.619  0.00  0.00    +0.000 N 
ATOM     18  H   UNL     1       4.309   7.151  19.831  0.00  0.00    +0.000 HD
BRANCH  17  25
ATOM     19  C   UNL     1       5.302   4.413  18.373  0.00  0.00    +0.000 A 
ATOM     20  N   UNL     1       5.895   3.962  17.241  0.00  0.00    +0.000 NA
ATOM     21  C   UNL     1       5.947   4.862  16.237  0.00  0.00    +0.000 A 
ATOM     22 CL   UNL     1       6.698   4.308  14.804  0.00  0.00    +0.000 Cl
ATOM     23  C   UNL     1       5.436   6.147  16.347  0.00  0.00    +0.000 A 
ATOM     24  N   UNL     1       4.820   6.597  17.468  0.00  0.00    +0.000 NA
ATOM     25  C   UNL     1       4.737   5.697  18.466  0.00  0.00    +0.000 A 
BRANCH  19  27
ATOM     26  C   UNL     1       4.173   2.602  19.290  0.00  0.00    +0.000 C 
ATOM     27  O   UNL     1       5.216   3.563  19.458  0.00  0.00    +0.000 OA
ENDBRANCH  19  27
ENDBRANCH  17  25
ENDBRANCH   1  17
TORSDOF 5
ENDMDL
MODEL 4
REMARK VINA RESULT:      -7.2      5.102      8.947
REMARK  Name = 
REMARK  8 active torsions:
REMARK  status: ('A' for Active; 'I' for Inactive)
REMARK    1  A    between atoms: C_1  and  O_2
REMARK    2  A    between atoms: O_2  and  C_3
REMARK    3  A    between atoms: C_9  and  N_10
REMARK    4  A    between atoms: N_10  and  S_11
REMARK    5  A    between atoms: S_11  and  C_14
REMARK    6  A    between atoms: C_19  and  N_20
REMARK    7  A    between atoms: N_20  and  C_21
REMARK    8  A    between atoms: N_20  and  C_22
REMARK                            x       y       z     vdW  Elec       q    Type
REMARK                         _______ _______ _______ _____ _____    ______ ____
ROOT
ATOM      1  S   UNL     1       0.875   9.005  21.303  0.00  0.00    +0.000 S 
ATOM      2  O   UNL     1       1.682   8.930  22.503  0.00  0.00    +0.000 OA
ATOM      3  O   UNL     1      -0.481   8.492  21.319  0.00  0.00    +0.000 OA
ENDROOT
BRANCH   1   4
ATOM      4  C   UNL     1       1.775   8.180  19.990  0.00  0.00    +0.000 A 
ATOM      5  C   UNL     1       2.029   8.965  18.855  0.00  0.00    +0.000 A 
ATOM      6  C   UNL     1       2.504   8.373  17.701  0.00  0.00    +0.000 A 
ATOM      7  C   UNL     1       2.731   6.999  17.678  0.00  0.00    +0.000 A 
ATOM      8  C   UNL     1       2.563   6.164  18.809  0.00  0.00    +0.000 A 
ATOM      9  C   UNL     1       2.830   4.744  18.763  0.00  0.00    +0.000 A 
ATOM     10  C   UNL     1       2.551   3.991  19.916  0.00  0.00    +0.000 A 
ATOM     11  C   UNL     1       2.067   4.582  21.078  0.00  0.00    +0.000 A 
ATOM     12  C   UNL     1       1.836   5.952  21.121  0.00  0.00    +0.000 A 
ATOM     13  C   UNL     1       2.055   6.780  20.001  0.00  0.00    +0.000 A 
BRANCH   9  14
ATOM     14  N   UNL     1       3.326   4.106  17.607  0.00  0.00    +0.000 N 
ATOM     15  C   UNL     1       2.629   2.943  17.055  0.00  0.00    +0.000 C 
ATOM     16  C   UNL     1       4.784   4.060  17.446  0.00  0.00    +0.000 C 
ENDBRANCH   9  14
ENDBRANCH   1   4
BRANCH   1  17
ATOM     17  N   UNL     1       0.780  10.642  20.902  0.00  0.00    +0.000 N 
ATOM     18  H   UNL     1       1.634  11.071  21.242  0.00  0.00    +0.000 HD
BRANCH  17  25
ATOM     19  C   UNL     1      -1.410  11.764  20.512  0.00  0.00    +0.000 A 
ATOM     20  N   UNL     1      -2.534  12.353  20.987  0.00  0.00    +0.000 NA
ATOM     21  C   UNL     1      -2.568  12.502  22.328  0.00  0.00    +0.000 A 
ATOM     22 CL   UNL     1      -3.979  13.248  22.940  0.00  0.00    +0.000 Cl
ATOM     23  C   UNL     1      -1.538  12.087  23.160  0.00  0.00    +0.000 A 
ATOM     24  N   UNL     1      -0.420  11.476  22.694  0.00  0.00    +0.000 NA
ATOM     25  C   UNL     1      -0.390  11.296  21.360  0.00  0.00    +0.000 A 
BRANCH  19  27
ATOM     26  C   UNL     1      -2.558  11.494  18.511  0.00  0.00    +0.000 C 
ATOM     27  O   UNL     1      -1.283  11.584  19.150  0.00  0.00    +0.000 OA
ENDBRANCH  19  27
ENDBRANCH  17  25
ENDBRANCH   1  17
TORSDOF 5
ENDMDL
MODEL 5
REMARK VINA RESULT:      -7.1      5.216      8.835
REMARK  Name = 
REMARK  8 active torsions:
REMARK  status: ('A' for Active; 'I' for Inactive)
REMARK    1  A    between atoms: C_1  and  O_2
REMARK    2  A    between atoms: O_2  and  C_3
REMARK    3  A    between atoms: C_9  and  N_10
REMARK    4  A    between atoms: N_10  and  S_11
REMARK    5  A    between atoms: S_11  and  C_14
REMARK    6  A    between atoms: C_19  and  N_20
REMARK    7  A    between atoms: N_20  and  C_21
REMARK    8  A    between atoms: N_20  and  C_22
REMARK                            x       y       z     vdW  Elec       q    Type
REMARK                         _______ _______ _______ _____ _____    ______ ____
ROOT
ATOM      1  S   UNL     1       0.298   9.103  21.286  0.00  0.00    +0.000 S 
ATOM      2  O   UNL     1       1.110   9.661  22.347  0.00  0.00    +0.000 OA
ATOM      3  O   UNL     1      -0.670   8.069  21.595  0.00  0.00    +0.000 OA
ENDROOT
BRANCH   1   4
ATOM      4  C   UNL     1       1.408   8.478  20.024  0.00  0.00    +0.000 A 
ATOM      5  C   UNL     1       1.619   9.338  18.935  0.00  0.00    +0.000 A 
ATOM      6  C   UNL     1       2.262   8.873  17.805  0.00  0.00    +0.000 A 
ATOM      7  C   UNL     1       2.699   7.551  17.759  0.00  0.00    +0.000 A 
ATOM      8  C   UNL     1       2.581   6.655  18.850  0.00  0.00    +0.000 A 
ATOM      9  C   UNL     1       3.067   5.295  18.783  0.00  0.00    +0.000 A 
ATOM     10  C   UNL     1       2.825   4.462  19.888  0.00  0.00    +0.000 A 
ATOM     11  C   UNL     1       2.173   4.925  21.026  0.00  0.00    +0.000 A 
ATOM     12  C   UNL     1       1.730   6.241  21.091  0.00  0.00    +0.000 A 
ATOM     13  C   UNL     1       1.899   7.138  20.016  0.00  0.00    +0.000 A 
BRANCH   9  14
ATOM     14  N   UNL     1       3.738   4.787  17.651  0.00  0.00    +0.000 N 
ATOM     15  C   UNL     1       3.253   3.571  16.996  0.00  0.00    +0.000 C 
ATOM     16  C   UNL     1       5.197   4.942  17.617  0.00  0.00    +0.000 C 
ENDBRANCH   9  14
ENDBRANCH   1   4
BRANCH   1  17
ATOM     17  N   UNL     1      -0.555  10.396  20.617  0.00  0.00    +0.000 N 
ATOM     18  H   UNL     1      -0.140  10.574  19.709  0.00  0.00    +0.000 HD
BRANCH  17  25
ATOM     19  C   UNL     1       0.282  12.629  21.336  0.00  0.00    +0.000 A 
ATOM     20  N   UNL     1       0.171  13.737  22.110  0.00  0.00    +0.000 NA
ATOM     21  C   UNL     1      -0.830  13.695  23.013  0.00  0.00    +0.000 A 
ATOM     22 CL   UNL     1      -0.977  15.084  23.999  0.00  0.00    +0.000 Cl
ATOM     23  C   UNL     1      -1.684  12.609  23.144  0.00  0.00    +0.000 A 
ATOM     24  N   UNL     1      -1.594  11.507  22.358  0.00  0.00    +0.000 NA
ATOM     25  C   UNL     1      -0.616  11.551  21.434  0.00  0.00    +0.000 A 
BRANCH  19  27
ATOM     26  C   UNL     1       2.367  13.454  20.730  0.00  0.00    +0.000 C 
ATOM     27  O   UNL     1       1.288  12.579  20.393  0.00  0.00    +0.000 OA
ENDBRANCH  19  27
ENDBRANCH  17  25
ENDBRANCH   1  17
TORSDOF 5
ENDMDL
MODEL 6
REMARK VINA RESULT:      -7.1      5.339      9.025
REMARK  Name = 
REMARK  8 active torsions:
REMARK  status: ('A' for Active; 'I' for Inactive)
REMARK    1  A    between atoms: C_1  and  O_2
REMARK    2  A    between atoms: O_2  and  C_3
REMARK    3  A    between atoms: C_9  and  N_10
REMARK    4  A    between atoms: N_10  and  S_11
REMARK    5  A    between atoms: S_11  and  C_14
REMARK    6  A    between atoms: C_19  and  N_20
REMARK    7  A    between atoms: N_20  and  C_21
REMARK    8  A    between atoms: N_20  and  C_22
REMARK                            x       y       z     vdW  Elec       q    Type
REMARK                         _______ _______ _______ _____ _____    ______ ____
ROOT
ATOM      1  S   UNL     1       0.226   9.249  21.351  0.00  0.00    +0.000 S 
ATOM      2  O   UNL     1       1.048   9.861  22.372  0.00  0.00    +0.000 OA
ATOM      3  O   UNL     1      -0.669   8.165  21.706  0.00  0.00    +0.000 OA
ENDROOT
BRANCH   1   4
ATOM      4  C   UNL     1       1.317   8.675  20.049  0.00  0.00    +0.000 A 
ATOM      5  C   UNL     1       1.475   9.557  18.969  0.00  0.00    +0.000 A 
ATOM      6  C   UNL     1       2.099   9.128  17.814  0.00  0.00    +0.000 A 
ATOM      7  C   UNL     1       2.570   7.819  17.735  0.00  0.00    +0.000 A 
ATOM      8  C   UNL     1       2.506   6.902  18.812  0.00  0.00    +0.000 A 
ATOM      9  C   UNL     1       3.025   5.557  18.710  0.00  0.00    +0.000 A 
ATOM     10  C   UNL     1       2.835   4.700  19.807  0.00  0.00    +0.000 A 
ATOM     11  C   UNL     1       2.202   5.127  20.969  0.00  0.00    +0.000 A 
ATOM     12  C   UNL     1       1.727   6.430  21.068  0.00  0.00    +0.000 A 
ATOM     13  C   UNL     1       1.842   7.348  20.005  0.00  0.00    +0.000 A 
BRANCH   9  14
ATOM     14  N   UNL     1       3.678   5.086  17.551  0.00  0.00    +0.000 N 
ATOM     15  C   UNL     1       3.333   3.776  16.997  0.00  0.00    +0.000 C 
ATOM     16  C   UNL     1       5.090   5.449  17.391  0.00  0.00    +0.000 C 
ENDBRANCH   9  14
ENDBRANCH   1   4
BRANCH   1  17
ATOM     17  N   UNL     1      -0.725  10.486  20.707  0.00  0.00    +0.000 N 
ATOM     18  H   UNL     1      -0.599  10.450  19.701  0.00  0.00    +0.000 HD
BRANCH  17  25
ATOM     19  C   UNL     1      -1.103  12.267  22.406  0.00  0.00    +0.000 A 
ATOM     20  N   UNL     1      -0.811  13.486  22.922  0.00  0.00    +0.000 NA
ATOM     21  C   UNL     1       0.084  14.199  22.207  0.00  0.00    +0.000 A 
ATOM     22 CL   UNL     1       0.457  15.742  22.844  0.00  0.00    +0.000 Cl
ATOM     23  C   UNL     1       0.665  13.728  21.039  0.00  0.00    +0.000 A 
ATOM     24  N   UNL     1       0.396  12.500  20.530  0.00  0.00    +0.000 NA
ATOM     25  C   UNL     1      -0.474  11.769  21.251  0.00  0.00    +0.000 A 
BRANCH  19  27
ATOM     26  C   UNL     1      -3.154  12.228  23.495  0.00  0.00    +0.000 C 
ATOM     27  O   UNL     1      -2.020  11.473  23.064  0.00  0.00    +0.000 OA
ENDBRANCH  19  27
ENDBRANCH  17  25
ENDBRANCH   1  17
TORSDOF 5
ENDMDL
MODEL 7
REMARK VINA RESULT:      -6.9      2.330      3.540
REMARK  Name = 
REMARK  8 active torsions:
REMARK  status: ('A' for Active; 'I' for Inactive)
REMARK    1  A    between atoms: C_1  and  O_2
REMARK    2  A    between atoms: O_2  and  C_3
REMARK    3  A    between atoms: C_9  and  N_10
REMARK    4  A    between atoms: N_10  and  S_11
REMARK    5  A    between atoms: S_11  and  C_14
REMARK    6  A    between atoms: C_19  and  N_20
REMARK    7  A    between atoms: N_20  and  C_21
REMARK    8  A    between atoms: N_20  and  C_22
REMARK                            x       y       z     vdW  Elec       q    Type
REMARK                         _______ _______ _______ _____ _____    ______ ____
ROOT
ATOM      1  S   UNL     1       2.252   5.624  19.801  0.00  0.00    +0.000 S 
ATOM      2  O   UNL     1       1.736   5.366  18.474  0.00  0.00    +0.000 OA
ATOM      3  O   UNL     1       1.996   4.674  20.866  0.00  0.00    +0.000 OA
ENDROOT
BRANCH   1   4
ATOM      4  C   UNL     1       1.642   7.229  20.318  0.00  0.00    +0.000 A 
ATOM      5  C   UNL     1       0.924   7.236  21.523  0.00  0.00    +0.000 A 
ATOM      6  C   UNL     1       0.215   8.361  21.896  0.00  0.00    +0.000 A 
ATOM      7  C   UNL     1       0.225   9.483  21.071  0.00  0.00    +0.000 A 
ATOM      8  C   UNL     1       0.986   9.565  19.879  0.00  0.00    +0.000 A 
ATOM      9  C   UNL     1       0.997  10.752  19.054  0.00  0.00    +0.000 A 
ATOM     10  C   UNL     1       1.718  10.702  17.850  0.00  0.00    +0.000 A 
ATOM     11  C   UNL     1       2.428   9.568  17.468  0.00  0.00    +0.000 A 
ATOM     12  C   UNL     1       2.431   8.439  18.278  0.00  0.00    +0.000 A 
ATOM     13  C   UNL     1       1.708   8.389  19.488  0.00  0.00    +0.000 A 
BRANCH   9  14
ATOM     14  N   UNL     1       0.295  11.924  19.408  0.00  0.00    +0.000 N 
ATOM     15  C   UNL     1      -0.765  12.434  18.536  0.00  0.00    +0.000 C 
ATOM     16  C   UNL     1       1.055  12.971  20.099  0.00  0.00    +0.000 C 
ENDBRANCH   9  14
ENDBRANCH   1   4
BRANCH   1  17
ATOM     17  N   UNL     1       3.928   5.746  19.640  0.00  0.00    +0.000 N 
ATOM     18  H   UNL     1       4.167   6.709  19.853  0.00  0.00    +0.000 HD
BRANCH  17  25
ATOM     19  C   UNL     1       4.627   3.962  18.049  0.00  0.00    +0.000 A 
ATOM     20  N   UNL     1       5.079   3.580  16.830  0.00  0.00    +0.000 NA
ATOM     21  C   UNL     1       5.381   4.598  15.997  0.00  0.00    +0.000 A 
ATOM     22 CL   UNL     1       5.958   4.130  14.457  0.00  0.00    +0.000 Cl
ATOM     23  C   UNL     1       5.240   5.932  16.353  0.00  0.00    +0.000 A 
ATOM     24  N   UNL     1       4.766   6.321  17.563  0.00  0.00    +0.000 NA
ATOM     25  C   UNL     1       4.435   5.312  18.391  0.00  0.00    +0.000 A 
BRANCH  19  27
ATOM     26  C   UNL     1       3.411   2.018  18.421  0.00  0.00    +0.000 C 
ATOM     27  O   UNL     1       4.307   2.986  18.971  0.00  0.00    +0.000 OA
ENDBRANCH  19  27
ENDBRANCH  17  25
ENDBRANCH   1  17
TORSDOF 5
ENDMDL
MODEL 8
REMARK VINA RESULT:      -6.9      4.804      8.402
REMARK  Name = 
REMARK  8 active torsions:
REMARK  status: ('A' for Active; 'I' for Inactive)
REMARK    1  A    between atoms: C_1  and  O_2
REMARK    2  A    between atoms: O_2  and  C_3
REMARK    3  A    between atoms: C_9  and  N_10
REMARK    4  A    between atoms: N_10  and  S_11
REMARK    5  A    between atoms: S_11  and  C_14
REMARK    6  A    between atoms: C_19  and  N_20
REMARK    7  A    between atoms: N_20  and  C_21
REMARK    8  A    between atoms: N_20  and  C_22
REMARK                            x       y       z     vdW  Elec       q    Type
REMARK                         _______ _______ _______ _____ _____    ______ ____
ROOT
ATOM      1  S   UNL     1       0.932   9.040  20.924  0.00  0.00    +0.000 S 
ATOM      2  O   UNL     1       1.721   9.141  22.134  0.00  0.00    +0.000 OA
ATOM      3  O   UNL     1      -0.414   8.506  20.990  0.00  0.00    +0.000 OA
ENDROOT
BRANCH   1   4
ATOM      4  C   UNL     1       1.869   8.067  19.745  0.00  0.00    +0.000 A 
ATOM      5  C   UNL     1       2.260   8.749  18.584  0.00  0.00    +0.000 A 
ATOM      6  C   UNL     1       2.779   8.046  17.514  0.00  0.00    +0.000 A 
ATOM      7  C   UNL     1       2.911   6.663  17.601  0.00  0.00    +0.000 A 
ATOM      8  C   UNL     1       2.602   5.924  18.769  0.00  0.00    +0.000 A 
ATOM      9  C   UNL     1       2.772   4.490  18.840  0.00  0.00    +0.000 A 
ATOM     10  C   UNL     1       2.356   3.842  20.015  0.00  0.00    +0.000 A 
ATOM     11  C   UNL     1       1.829   4.545  21.092  0.00  0.00    +0.000 A 
ATOM     12  C   UNL     1       1.690   5.927  21.025  0.00  0.00    +0.000 A 
ATOM     13  C   UNL     1       2.049   6.656  19.873  0.00  0.00    +0.000 A 
BRANCH   9  14
ATOM     14  N   UNL     1       3.308   3.739  17.772  0.00  0.00    +0.000 N 
ATOM     15  C   UNL     1       2.702   2.461  17.398  0.00  0.00    +0.000 C 
ATOM     16  C   UNL     1       4.763   3.785  17.592  0.00  0.00    +0.000 C 
ENDBRANCH   9  14
ENDBRANCH   1   4
BRANCH   1  17
ATOM     17  N   UNL     1       0.813  10.607  20.307  0.00  0.00    +0.000 N 
ATOM     18  H   UNL     1       1.162  11.227  21.030  0.00  0.00    +0.000 HD
BRANCH  17  25
ATOM     19  C   UNL     1      -1.366  11.785  20.561  0.00  0.00    +0.000 A 
ATOM     20  N   UNL     1      -2.580  12.138  20.072  0.00  0.00    +0.000 NA
ATOM     21  C   UNL     1      -2.884  11.596  18.874  0.00  0.00    +0.000 A 
ATOM     22 CL   UNL     1      -4.415  12.029  18.248  0.00  0.00    +0.000 Cl
ATOM     23  C   UNL     1      -2.027  10.744  18.192  0.00  0.00    +0.000 A 
ATOM     24  N   UNL     1      -0.801  10.405  18.664  0.00  0.00    +0.000 NA
ATOM     25  C   UNL     1      -0.477  10.964  19.845  0.00  0.00    +0.000 A 
BRANCH  19  27
ATOM     26  C   UNL     1      -1.897  11.914  22.819  0.00  0.00    +0.000 C 
ATOM     27  O   UNL     1      -0.978  12.282  21.789  0.00  0.00    +0.000 OA
ENDBRANCH  19  27
ENDBRANCH  17  25
ENDBRANCH   1  17
TORSDOF 5
ENDMDL
MODEL 9
REMARK VINA RESULT:      -6.8      1.004      2.282
REMARK  Name = 
REMARK  8 active torsions:
REMARK  status: ('A' for Active; 'I' for Inactive)
REMARK    1  A    between atoms: C_1  and  O_2
REMARK    2  A    between atoms: O_2  and  C_3
REMARK    3  A    between atoms: C_9  and  N_10
REMARK    4  A    between atoms: N_10  and  S_11
REMARK    5  A    between atoms: S_11  and  C_14
REMARK    6  A    between atoms: C_19  and  N_20
REMARK    7  A    between atoms: N_20  and  C_21
REMARK    8  A    between atoms: N_20  and  C_22
REMARK                            x       y       z     vdW  Elec       q    Type
REMARK                         _______ _______ _______ _____ _____    ______ ____
ROOT
ATOM      1  S   UNL     1       4.305   3.876  18.449  0.00  0.00    +0.000 S 
ATOM      2  O   UNL     1       3.817   3.006  17.400  0.00  0.00    +0.000 OA
ATOM      3  O   UNL     1       4.089   3.516  19.837  0.00  0.00    +0.000 OA
ENDROOT
BRANCH   1   4
ATOM      4  C   UNL     1       3.607   5.504  18.173  0.00  0.00    +0.000 A 
ATOM      5  C   UNL     1       4.132   6.201  17.075  0.00  0.00    +0.000 A 
ATOM      6  C   UNL     1       3.841   7.541  16.906  0.00  0.00    +0.000 A 
ATOM      7  C   UNL     1       3.022   8.187  17.829  0.00  0.00    +0.000 A 
ATOM      8  C   UNL     1       2.404   7.524  18.918  0.00  0.00    +0.000 A 
ATOM      9  C   UNL     1       1.538   8.214  19.847  0.00  0.00    +0.000 A 
ATOM     10  C   UNL     1       1.043   7.485  20.941  0.00  0.00    +0.000 A 
ATOM     11  C   UNL     1       1.339   6.138  21.117  0.00  0.00    +0.000 A 
ATOM     12  C   UNL     1       2.153   5.475  20.206  0.00  0.00    +0.000 A 
ATOM     13  C   UNL     1       2.722   6.136  19.098  0.00  0.00    +0.000 A 
BRANCH   9  14
ATOM     14  N   UNL     1       1.209   9.579  19.702  0.00  0.00    +0.000 N 
ATOM     15  C   UNL     1       1.027  10.419  20.886  0.00  0.00    +0.000 C 
ATOM     16  C   UNL     1       0.337   9.936  18.577  0.00  0.00    +0.000 C 
ENDBRANCH   9  14
ENDBRANCH   1   4
BRANCH   1  17
ATOM     17  N   UNL     1       5.974   3.995  18.223  0.00  0.00    +0.000 N 
ATOM     18  H   UNL     1       6.311   4.654  18.917  0.00  0.00    +0.000 HD
BRANCH  17  25
ATOM     19  C   UNL     1       7.233   5.392  16.590  0.00  0.00    +0.000 A 
ATOM     20  N   UNL     1       7.621   5.659  15.319  0.00  0.00    +0.000 NA
ATOM     21  C   UNL     1       7.071   4.859  14.383  0.00  0.00    +0.000 A 
ATOM     22 CL   UNL     1       7.548   5.189  12.774  0.00  0.00    +0.000 Cl
ATOM     23  C   UNL     1       6.178   3.841  14.688  0.00  0.00    +0.000 A 
ATOM     24  N   UNL     1       5.803   3.553  15.959  0.00  0.00    +0.000 NA
ATOM     25  C   UNL     1       6.370   4.328  16.904  0.00  0.00    +0.000 A 
BRANCH  19  27
ATOM     26  C   UNL     1       7.511   7.561  17.373  0.00  0.00    +0.000 C 
ATOM     27  O   UNL     1       7.736   6.171  17.613  0.00  0.00    +0.000 OA
ENDBRANCH  19  27
ENDBRANCH  17  25
ENDBRANCH   1  17
TORSDOF 5
ENDMDL
