MODEL 1
REMARK VINA RESULT:      -6.9      0.000      0.000
REMARK  Name = 
REMARK  13 active torsions:
REMARK  status: ('A' for Active; 'I' for Inactive)
REMARK    1  A    between atoms: C_1  and  O_2
REMARK    2  A    between atoms: O_2  and  C_3
REMARK    3  A    between atoms: C_5  and  O_6
REMARK    4  A    between atoms: O_6  and  C_7
REMARK    5  A    between atoms: C_9  and  C_10
REMARK    6  A    between atoms: N_12  and  C_13
REMARK    7  A    between atoms: C_13  and  C_14
REMARK    8  A    between atoms: C_15  and  C_16
REMARK    9  A    between atoms: C_15  and  C_17
REMARK   10  A    between atoms: C_17  and  C_18
REMARK   11  A    between atoms: C_18  and  C_19
REMARK   12  A    between atoms: C_20  and  C_21
REMARK   13  A    between atoms: C_20  and  C_22
REMARK                            x       y       z     vdW  Elec       q    Type
REMARK                         _______ _______ _______ _____ _____    ______ ____
ROOT
ATOM      1  C   UNL     1       1.521   8.731  19.350  0.00  0.00    +0.000 A 
ATOM      2  C   UNL     1       2.267   8.524  18.213  0.00  0.00    +0.000 A 
ATOM      3  N   UNL     1       2.926   7.361  18.467  0.00  0.00    +0.000 N 
ATOM      4  N   UNL     1       2.640   6.897  19.700  0.00  0.00    +0.000 NA
ATOM      5  N   UNL     1       1.772   7.722  20.248  0.00  0.00    +0.000 NA
ENDROOT
BRANCH   1  10
ATOM      6  C   UNL     1      -0.107  11.575  21.103  0.00  0.00    +0.000 A 
ATOM      7  C   UNL     1      -1.071  11.939  20.161  0.00  0.00    +0.000 A 
ATOM      8  C   UNL     1      -1.156  11.273  18.928  0.00  0.00    +0.000 A 
ATOM      9  C   UNL     1      -0.255  10.258  18.641  0.00  0.00    +0.000 A 
ATOM     10  C   UNL     1       0.691   9.865  19.589  0.00  0.00    +0.000 A 
ATOM     11  C   UNL     1       0.766  10.537  20.817  0.00  0.00    +0.000 A 
BRANCH   6  13
ATOM     12  C   UNL     1      -0.806  13.510  22.267  0.00  0.00    +0.000 C 
ATOM     13  O   UNL     1      -0.133  12.252  22.293  0.00  0.00    +0.000 OA
ENDBRANCH   6  13
BRANCH   8  14
ATOM     14  O   UNL     1      -2.184  11.666  18.115  0.00  0.00    +0.000 OA
ATOM     15  C   UNL     1      -2.386  10.880  16.941  0.00  0.00    +0.000 C 
ENDBRANCH   8  14
ENDBRANCH   1  10
BRANCH   3  16
ATOM     16  C   UNL     1       3.905   6.685  17.635  0.00  0.00    +0.000 C 
BRANCH  16  17
ATOM     17  C   UNL     1       3.539   5.266  17.326  0.00  0.00    +0.000 C 
ATOM     18  C   UNL     1       4.074   4.162  17.882  0.00  0.00    +0.000 C 
ATOM     19  C   UNL     1       5.166   4.228  18.918  0.00  0.00    +0.000 C 
BRANCH  18  20
ATOM     20  C   UNL     1       3.570   2.785  17.465  0.00  0.00    +0.000 C 
BRANCH  20  21
ATOM     21  C   UNL     1       2.194   2.437  18.067  0.00  0.00    +0.000 C 
BRANCH  21  22
ATOM     22  C   UNL     1       2.193   2.071  19.503  0.00  0.00    +0.000 C 
ATOM     23  C   UNL     1       1.565   2.826  20.431  0.00  0.00    +0.000 C 
ATOM     24  C   UNL     1       0.818   4.097  20.121  0.00  0.00    +0.000 C 
ATOM     25  C   UNL     1       1.572   2.438  21.884  0.00  0.00    +0.000 C 
ENDBRANCH  21  22
ENDBRANCH  20  21
ENDBRANCH  18  20
ENDBRANCH  16  17
ENDBRANCH   3  16
TORSDOF 8
ENDMDL
MODEL 2
REMARK VINA RESULT:      -6.8      3.409      8.318
REMARK  Name = 
REMARK  13 active torsions:
REMARK  status: ('A' for Active; 'I' for Inactive)
REMARK    1  A    between atoms: C_1  and  O_2
REMARK    2  A    between atoms: O_2  and  C_3
REMARK    3  A    between atoms: C_5  and  O_6
REMARK    4  A    between atoms: O_6  and  C_7
REMARK    5  A    between atoms: C_9  and  C_10
REMARK    6  A    between atoms: N_12  and  C_13
REMARK    7  A    between atoms: C_13  and  C_14
REMARK    8  A    between atoms: C_15  and  C_16
REMARK    9  A    between atoms: C_15  and  C_17
REMARK   10  A    between atoms: C_17  and  C_18
REMARK   11  A    between atoms: C_18  and  C_19
REMARK   12  A    between atoms: C_20  and  C_21
REMARK   13  A    between atoms: C_20  and  C_22
REMARK                            x       y       z     vdW  Elec       q    Type
REMARK                         _______ _______ _______ _____ _____    ______ ____
ROOT
ATOM      1  C   UNL     1       2.487   6.411  19.438  0.00  0.00    +0.000 A 
ATOM      2  C   UNL     1       2.339   7.779  19.440  0.00  0.00    +0.000 A 
ATOM      3  N   UNL     1       1.573   8.018  20.539  0.00  0.00    +0.000 N 
ATOM      4  N   UNL     1       1.232   6.869  21.157  0.00  0.00    +0.000 NA
ATOM      5  N   UNL     1       1.794   5.877  20.498  0.00  0.00    +0.000 NA
ENDROOT
BRANCH   1  10
ATOM      6  C   UNL     1       3.900   3.524  17.573  0.00  0.00    +0.000 A 
ATOM      7  C   UNL     1       4.689   4.189  16.631  0.00  0.00    +0.000 A 
ATOM      8  C   UNL     1       4.721   5.591  16.585  0.00  0.00    +0.000 A 
ATOM      9  C   UNL     1       3.941   6.318  17.472  0.00  0.00    +0.000 A 
ATOM     10  C   UNL     1       3.175   5.664  18.438  0.00  0.00    +0.000 A 
ATOM     11  C   UNL     1       3.152   4.263  18.475  0.00  0.00    +0.000 A 
BRANCH   6  13
ATOM     12  C   UNL     1       3.266   1.504  18.624  0.00  0.00    +0.000 C 
ATOM     13  O   UNL     1       3.972   2.157  17.570  0.00  0.00    +0.000 OA
ENDBRANCH   6  13
BRANCH   8  14
ATOM     14  O   UNL     1       5.584   6.132  15.669  0.00  0.00    +0.000 OA
ATOM     15  C   UNL     1       6.637   5.278  15.226  0.00  0.00    +0.000 C 
ENDBRANCH   8  14
ENDBRANCH   1  10
BRANCH   3  16
ATOM     16  C   UNL     1       1.053   9.289  21.010  0.00  0.00    +0.000 C 
BRANCH  16  17
ATOM     17  C   UNL     1      -0.025   9.848  20.134  0.00  0.00    +0.000 C 
ATOM     18  C   UNL     1       0.027  11.000  19.437  0.00  0.00    +0.000 C 
ATOM     19  C   UNL     1       1.228  11.910  19.470  0.00  0.00    +0.000 C 
BRANCH  18  20
ATOM     20  C   UNL     1      -1.158  11.415  18.573  0.00  0.00    +0.000 C 
BRANCH  20  21
ATOM     21  C   UNL     1      -2.049  10.227  18.157  0.00  0.00    +0.000 C 
BRANCH  21  22
ATOM     22  C   UNL     1      -2.098   9.936  16.705  0.00  0.00    +0.000 C 
ATOM     23  C   UNL     1      -3.111  10.374  15.925  0.00  0.00    +0.000 C 
ATOM     24  C   UNL     1      -4.276  11.184  16.429  0.00  0.00    +0.000 C 
ATOM     25  C   UNL     1      -3.144  10.072  14.452  0.00  0.00    +0.000 C 
ENDBRANCH  21  22
ENDBRANCH  20  21
ENDBRANCH  18  20
ENDBRANCH  16  17
ENDBRANCH   3  16
TORSDOF 8
ENDMDL
MODEL 3
REMARK VINA RESULT:      -6.8      3.988      8.332
REMARK  Name = 
REMARK  13 active torsions:
REMARK  status: ('A' for Active; 'I' for Inactive)
REMARK    1  A    between atoms: C_1  and  O_2
REMARK    2  A    between atoms: O_2  and  C_3
REMARK    3  A    between atoms: C_5  and  O_6
REMARK    4  A    between atoms: O_6  and  C_7
REMARK    5  A    between atoms: C_9  and  C_10
REMARK    6  A    between atoms: N_12  and  C_13
REMARK    7  A    between atoms: C_13  and  C_14
REMARK    8  A    between atoms: C_15  and  C_16
REMARK    9  A    between atoms: C_15  and  C_17
REMARK   10  A    between atoms: C_17  and  C_18
REMARK   11  A    between atoms: C_18  and  C_19
REMARK   12  A    between atoms: C_20  and  C_21
REMARK   13  A    between atoms: C_20  and  C_22
REMARK                            x       y       z     vdW  Elec       q    Type
REMARK                         _______ _______ _______ _____ _____    ______ ____
ROOT
ATOM      1  C   UNL     1       3.642   5.239  18.379  0.00  0.00    +0.000 A 
ATOM      2  C   UNL     1       3.391   6.235  19.294  0.00  0.00    +0.000 A 
ATOM      3  N   UNL     1       2.186   5.891  19.823  0.00  0.00    +0.000 N 
ATOM      4  N   UNL     1       1.700   4.775  19.245  0.00  0.00    +0.000 NA
ATOM      5  N   UNL     1       2.587   4.359  18.365  0.00  0.00    +0.000 NA
ENDROOT
BRANCH   1  10
ATOM      6  C   UNL     1       6.790   6.221  16.666  0.00  0.00    +0.000 A 
ATOM      7  C   UNL     1       6.883   5.214  15.703  0.00  0.00    +0.000 A 
ATOM      8  C   UNL     1       5.929   4.187  15.646  0.00  0.00    +0.000 A 
ATOM      9  C   UNL     1       4.898   4.165  16.574  0.00  0.00    +0.000 A 
ATOM     10  C   UNL     1       4.778   5.184  17.519  0.00  0.00    +0.000 A 
ATOM     11  C   UNL     1       5.736   6.206  17.566  0.00  0.00    +0.000 A 
BRANCH   6  13
ATOM     12  C   UNL     1       7.927   7.945  17.817  0.00  0.00    +0.000 C 
ATOM     13  O   UNL     1       7.741   7.205  16.611  0.00  0.00    +0.000 OA
ENDBRANCH   6  13
BRANCH   8  14
ATOM     14  O   UNL     1       6.080   3.297  14.616  0.00  0.00    +0.000 OA
ATOM     15  C   UNL     1       6.243   3.868  13.319  0.00  0.00    +0.000 C 
ENDBRANCH   8  14
ENDBRANCH   1  10
BRANCH   3  16
ATOM     16  C   UNL     1       1.398   6.614  20.805  0.00  0.00    +0.000 C 
BRANCH  16  17
ATOM     17  C   UNL     1       1.422   8.097  20.607  0.00  0.00    +0.000 C 
ATOM     18  C   UNL     1       0.608   8.997  21.192  0.00  0.00    +0.000 C 
ATOM     19  C   UNL     1      -0.483   8.595  22.151  0.00  0.00    +0.000 C 
BRANCH  18  20
ATOM     20  C   UNL     1       0.781  10.482  20.893  0.00  0.00    +0.000 C 
BRANCH  20  21
ATOM     21  C   UNL     1       0.308  10.872  19.478  0.00  0.00    +0.000 C 
BRANCH  21  22
ATOM     22  C   UNL     1      -1.074  11.399  19.382  0.00  0.00    +0.000 C 
ATOM     23  C   UNL     1      -1.930  10.983  18.424  0.00  0.00    +0.000 C 
ATOM     24  C   UNL     1      -1.587   9.965  17.369  0.00  0.00    +0.000 C 
ATOM     25  C   UNL     1      -3.330  11.527  18.343  0.00  0.00    +0.000 C 
ENDBRANCH  21  22
ENDBRANCH  20  21
ENDBRANCH  18  20
ENDBRANCH  16  17
ENDBRANCH   3  16
TORSDOF 8
ENDMDL
MODEL 4
REMARK VINA RESULT:      -6.7      5.051      7.575
REMARK  Name = 
REMARK  13 active torsions:
REMARK  status: ('A' for Active; 'I' for Inactive)
REMARK    1  A    between atoms: C_1  and  O_2
REMARK    2  A    between atoms: O_2  and  C_3
REMARK    3  A    between atoms: C_5  and  O_6
REMARK    4  A    between atoms: O_6  and  C_7
REMARK    5  A    between atoms: C_9  and  C_10
REMARK    6  A    between atoms: N_12  and  C_13
REMARK    7  A    between atoms: C_13  and  C_14
REMARK    8  A    between atoms: C_15  and  C_16
REMARK    9  A    between atoms: C_15  and  C_17
REMARK   10  A    between atoms: C_17  and  C_18
REMARK   11  A    between atoms: C_18  and  C_19
REMARK   12  A    between atoms: C_20  and  C_21
REMARK   13  A    between atoms: C_20  and  C_22
REMARK                            x       y       z     vdW  Elec       q    Type
REMARK                         _______ _______ _______ _____ _____    ______ ____
ROOT
ATOM      1  C   UNL     1       5.069   4.670  18.129  0.00  0.00    +0.000 A 
ATOM      2  C   UNL     1       4.927   5.010  16.804  0.00  0.00    +0.000 A 
ATOM      3  N   UNL     1       6.185   4.881  16.302  0.00  0.00    +0.000 N 
ATOM      4  N   UNL     1       7.060   4.524  17.263  0.00  0.00    +0.000 NA
ATOM      5  N   UNL     1       6.388   4.380  18.386  0.00  0.00    +0.000 NA
ENDROOT
BRANCH   1  10
ATOM      6  C   UNL     1       2.345   5.962  20.302  0.00  0.00    +0.000 A 
ATOM      7  C   UNL     1       2.134   4.859  21.132  0.00  0.00    +0.000 A 
ATOM      8  C   UNL     1       2.861   3.673  20.947  0.00  0.00    +0.000 A 
ATOM      9  C   UNL     1       3.782   3.596  19.912  0.00  0.00    +0.000 A 
ATOM     10  C   UNL     1       4.024   4.703  19.099  0.00  0.00    +0.000 A 
ATOM     11  C   UNL     1       3.292   5.882  19.293  0.00  0.00    +0.000 A 
BRANCH   6  13
ATOM     12  C   UNL     1       1.812   8.185  19.699  0.00  0.00    +0.000 C 
ATOM     13  O   UNL     1       1.622   7.088  20.591  0.00  0.00    +0.000 OA
ENDBRANCH   6  13
BRANCH   8  14
ATOM     14  O   UNL     1       2.622   2.685  21.864  0.00  0.00    +0.000 OA
ATOM     15  C   UNL     1       1.250   2.395  22.123  0.00  0.00    +0.000 C 
ENDBRANCH   8  14
ENDBRANCH   1  10
BRANCH   3  16
ATOM     16  C   UNL     1       6.647   5.166  14.955  0.00  0.00    +0.000 C 
BRANCH  16  17
ATOM     17  C   UNL     1       6.385   4.051  13.991  0.00  0.00    +0.000 C 
ATOM     18  C   UNL     1       6.818   3.975  12.718  0.00  0.00    +0.000 C 
ATOM     19  C   UNL     1       7.646   5.061  12.081  0.00  0.00    +0.000 C 
BRANCH  18  20
ATOM     20  C   UNL     1       6.474   2.753  11.873  0.00  0.00    +0.000 C 
BRANCH  20  21
ATOM     21  C   UNL     1       4.966   2.626  11.580  0.00  0.00    +0.000 C 
BRANCH  21  22
ATOM     22  C   UNL     1       4.348   3.774  10.874  0.00  0.00    +0.000 C 
ATOM     23  C   UNL     1       3.250   3.627  10.099  0.00  0.00    +0.000 C 
ATOM     24  C   UNL     1       2.550   2.314   9.868  0.00  0.00    +0.000 C 
ATOM     25  C   UNL     1       2.635   4.803   9.392  0.00  0.00    +0.000 C 
ENDBRANCH  21  22
ENDBRANCH  20  21
ENDBRANCH  18  20
ENDBRANCH  16  17
ENDBRANCH   3  16
TORSDOF 8
ENDMDL
MODEL 5
REMARK VINA RESULT:      -6.7      1.183      2.541
REMARK  Name = 
REMARK  13 active torsions:
REMARK  status: ('A' for Active; 'I' for Inactive)
REMARK    1  A    between atoms: C_1  and  O_2
REMARK    2  A    between atoms: O_2  and  C_3
REMARK    3  A    between atoms: C_5  and  O_6
REMARK    4  A    between atoms: O_6  and  C_7
REMARK    5  A    between atoms: C_9  and  C_10
REMARK    6  A    between atoms: N_12  and  C_13
REMARK    7  A    between atoms: C_13  and  C_14
REMARK    8  A    between atoms: C_15  and  C_16
REMARK    9  A    between atoms: C_15  and  C_17
REMARK   10  A    between atoms: C_17  and  C_18
REMARK   11  A    between atoms: C_18  and  C_19
REMARK   12  A    between atoms: C_20  and  C_21
REMARK   13  A    between atoms: C_20  and  C_22
REMARK                            x       y       z     vdW  Elec       q    Type
REMARK                         _______ _______ _______ _____ _____    ______ ____
ROOT
ATOM      1  C   UNL     1       1.710   8.981  18.585  0.00  0.00    +0.000 A 
ATOM      2  C   UNL     1       2.250   7.785  19.001  0.00  0.00    +0.000 A 
ATOM      3  N   UNL     1       3.147   7.480  18.026  0.00  0.00    +0.000 N 
ATOM      4  N   UNL     1       3.136   8.405  17.045  0.00  0.00    +0.000 NA
ATOM      5  N   UNL     1       2.267   9.336  17.380  0.00  0.00    +0.000 NA
ENDROOT
BRANCH   1  10
ATOM      6  C   UNL     1      -1.331  11.042  19.145  0.00  0.00    +0.000 A 
ATOM      7  C   UNL     1      -1.246  11.255  20.523  0.00  0.00    +0.000 A 
ATOM      8  C   UNL     1      -0.208  10.682  21.274  0.00  0.00    +0.000 A 
ATOM      9  C   UNL     1       0.727   9.879  20.638  0.00  0.00    +0.000 A 
ATOM     10  C   UNL     1       0.670   9.687  19.257  0.00  0.00    +0.000 A 
ATOM     11  C   UNL     1      -0.371  10.265  18.517  0.00  0.00    +0.000 A 
BRANCH   6  13
ATOM     12  C   UNL     1      -3.356  12.246  19.334  0.00  0.00    +0.000 C 
ATOM     13  O   UNL     1      -2.352  11.680  18.493  0.00  0.00    +0.000 OA
ENDBRANCH   6  13
BRANCH   8  14
ATOM     14  O   UNL     1      -0.185  11.018  22.601  0.00  0.00    +0.000 OA
ATOM     15  C   UNL     1      -0.476   9.963  23.516  0.00  0.00    +0.000 C 
ENDBRANCH   8  14
ENDBRANCH   1  10
BRANCH   3  16
ATOM     16  C   UNL     1       3.976   6.294  17.909  0.00  0.00    +0.000 C 
BRANCH  16  17
ATOM     17  C   UNL     1       3.202   5.063  17.555  0.00  0.00    +0.000 C 
ATOM     18  C   UNL     1       3.489   3.802  17.930  0.00  0.00    +0.000 C 
ATOM     19  C   UNL     1       4.687   3.464  18.778  0.00  0.00    +0.000 C 
BRANCH  18  20
ATOM     20  C   UNL     1       2.579   2.658  17.496  0.00  0.00    +0.000 C 
BRANCH  20  21
ATOM     21  C   UNL     1       1.261   2.598  18.294  0.00  0.00    +0.000 C 
BRANCH  21  22
ATOM     22  C   UNL     1       1.378   2.133  19.696  0.00  0.00    +0.000 C 
ATOM     23  C   UNL     1       1.354   2.994  20.737  0.00  0.00    +0.000 C 
ATOM     24  C   UNL     1       1.214   4.487  20.595  0.00  0.00    +0.000 C 
ATOM     25  C   UNL     1       1.471   2.505  22.155  0.00  0.00    +0.000 C 
ENDBRANCH  21  22
ENDBRANCH  20  21
ENDBRANCH  18  20
ENDBRANCH  16  17
ENDBRANCH   3  16
TORSDOF 8
ENDMDL
MODEL 6
REMARK VINA RESULT:      -6.7      3.653      8.718
REMARK  Name = 
REMARK  13 active torsions:
REMARK  status: ('A' for Active; 'I' for Inactive)
REMARK    1  A    between atoms: C_1  and  O_2
REMARK    2  A    between atoms: O_2  and  C_3
REMARK    3  A    between atoms: C_5  and  O_6
REMARK    4  A    between atoms: O_6  and  C_7
REMARK    5  A    between atoms: C_9  and  C_10
REMARK    6  A    between atoms: N_12  and  C_13
REMARK    7  A    between atoms: C_13  and  C_14
REMARK    8  A    between atoms: C_15  and  C_16
REMARK    9  A    between atoms: C_15  and  C_17
REMARK   10  A    between atoms: C_17  and  C_18
REMARK   11  A    between atoms: C_18  and  C_19
REMARK   12  A    between atoms: C_20  and  C_21
REMARK   13  A    between atoms: C_20  and  C_22
REMARK                            x       y       z     vdW  Elec       q    Type
REMARK                         _______ _______ _______ _____ _____    ______ ____
ROOT
ATOM      1  C   UNL     1       2.458   7.348  18.641  0.00  0.00    +0.000 A 
ATOM      2  C   UNL     1       1.872   8.356  17.911  0.00  0.00    +0.000 A 
ATOM      3  N   UNL     1       1.218   9.094  18.849  0.00  0.00    +0.000 N 
ATOM      4  N   UNL     1       1.354   8.555  20.077  0.00  0.00    +0.000 NA
ATOM      5  N   UNL     1       2.121   7.490  19.966  0.00  0.00    +0.000 NA
ENDROOT
BRANCH   1  10
ATOM      6  C   UNL     1       3.500   3.900  17.724  0.00  0.00    +0.000 A 
ATOM      7  C   UNL     1       4.781   4.144  17.224  0.00  0.00    +0.000 A 
ATOM      8  C   UNL     1       5.284   5.452  17.150  0.00  0.00    +0.000 A 
ATOM      9  C   UNL     1       4.487   6.511  17.558  0.00  0.00    +0.000 A 
ATOM     10  C   UNL     1       3.219   6.275  18.091  0.00  0.00    +0.000 A 
ATOM     11  C   UNL     1       2.727   4.965  18.161  0.00  0.00    +0.000 A 
BRANCH   6  13
ATOM     12  C   UNL     1       2.057   2.312  18.715  0.00  0.00    +0.000 C 
ATOM     13  O   UNL     1       3.116   2.588  17.800  0.00  0.00    +0.000 OA
ENDBRANCH   6  13
BRANCH   8  14
ATOM     14  O   UNL     1       6.576   5.563  16.711  0.00  0.00    +0.000 OA
ATOM     15  C   UNL     1       7.485   4.574  17.192  0.00  0.00    +0.000 C 
ENDBRANCH   8  14
ENDBRANCH   1  10
BRANCH   3  16
ATOM     16  C   UNL     1       0.375  10.258  18.646  0.00  0.00    +0.000 C 
BRANCH  16  17
ATOM     17  C   UNL     1      -0.843   9.971  17.825  0.00  0.00    +0.000 C 
ATOM     18  C   UNL     1      -2.001  10.659  17.842  0.00  0.00    +0.000 C 
ATOM     19  C   UNL     1      -2.221  11.847  18.742  0.00  0.00    +0.000 C 
BRANCH  18  20
ATOM     20  C   UNL     1      -3.143  10.242  16.921  0.00  0.00    +0.000 C 
BRANCH  20  21
ATOM     21  C   UNL     1      -2.803  10.401  15.426  0.00  0.00    +0.000 C 
BRANCH  21  22
ATOM     22  C   UNL     1      -3.935  10.230  14.485  0.00  0.00    +0.000 C 
ATOM     23  C   UNL     1      -3.750   9.801  13.217  0.00  0.00    +0.000 C 
ATOM     24  C   UNL     1      -2.407   9.460  12.629  0.00  0.00    +0.000 C 
ATOM     25  C   UNL     1      -4.912   9.631  12.277  0.00  0.00    +0.000 C 
ENDBRANCH  21  22
ENDBRANCH  20  21
ENDBRANCH  18  20
ENDBRANCH  16  17
ENDBRANCH   3  16
TORSDOF 8
ENDMDL
MODEL 7
REMARK VINA RESULT:      -6.7      1.219      2.646
REMARK  Name = 
REMARK  13 active torsions:
REMARK  status: ('A' for Active; 'I' for Inactive)
REMARK    1  A    between atoms: C_1  and  O_2
REMARK    2  A    between atoms: O_2  and  C_3
REMARK    3  A    between atoms: C_5  and  O_6
REMARK    4  A    between atoms: O_6  and  C_7
REMARK    5  A    between atoms: C_9  and  C_10
REMARK    6  A    between atoms: N_12  and  C_13
REMARK    7  A    between atoms: C_13  and  C_14
REMARK    8  A    between atoms: C_15  and  C_16
REMARK    9  A    between atoms: C_15  and  C_17
REMARK   10  A    between atoms: C_17  and  C_18
REMARK   11  A    between atoms: C_18  and  C_19
REMARK   12  A    between atoms: C_20  and  C_21
REMARK   13  A    between atoms: C_20  and  C_22
REMARK                            x       y       z     vdW  Elec       q    Type
REMARK                         _______ _______ _______ _____ _____    ______ ____
ROOT
ATOM      1  C   UNL     1       1.170   9.527  18.914  0.00  0.00    +0.000 A 
ATOM      2  C   UNL     1       1.738   8.415  19.492  0.00  0.00    +0.000 A 
ATOM      3  N   UNL     1       2.554   7.928  18.519  0.00  0.00    +0.000 N 
ATOM      4  N   UNL     1       2.469   8.667  17.395  0.00  0.00    +0.000 NA
ATOM      5  N   UNL     1       1.632   9.656  17.627  0.00  0.00    +0.000 NA
ENDROOT
BRANCH   1  10
ATOM      6  C   UNL     1      -1.910  11.553  19.385  0.00  0.00    +0.000 A 
ATOM      7  C   UNL     1      -1.637  12.151  20.617  0.00  0.00    +0.000 A 
ATOM      8  C   UNL     1      -0.456  11.854  21.313  0.00  0.00    +0.000 A 
ATOM      9  C   UNL     1       0.436  10.937  20.776  0.00  0.00    +0.000 A 
ATOM     10  C   UNL     1       0.189  10.358  19.530  0.00  0.00    +0.000 A 
ATOM     11  C   UNL     1      -0.994  10.664  18.844  0.00  0.00    +0.000 A 
BRANCH   6  13
ATOM     12  C   UNL     1      -4.090  12.435  19.623  0.00  0.00    +0.000 C 
ATOM     13  O   UNL     1      -3.065  11.943  18.761  0.00  0.00    +0.000 OA
ENDBRANCH   6  13
BRANCH   8  14
ATOM     14  O   UNL     1      -0.262  12.553  22.473  0.00  0.00    +0.000 OA
ATOM     15  C   UNL     1      -0.674  13.919  22.454  0.00  0.00    +0.000 C 
ENDBRANCH   8  14
ENDBRANCH   1  10
BRANCH   3  16
ATOM     16  C   UNL     1       3.368   6.727  18.549  0.00  0.00    +0.000 C 
BRANCH  16  17
ATOM     17  C   UNL     1       2.659   5.518  18.024  0.00  0.00    +0.000 C 
ATOM     18  C   UNL     1       3.230   4.431  17.470  0.00  0.00    +0.000 C 
ATOM     19  C   UNL     1       4.722   4.304  17.294  0.00  0.00    +0.000 C 
BRANCH  18  20
ATOM     20  C   UNL     1       2.357   3.272  17.002  0.00  0.00    +0.000 C 
BRANCH  20  21
ATOM     21  C   UNL     1       2.365   2.077  17.977  0.00  0.00    +0.000 C 
BRANCH  21  22
ATOM     22  C   UNL     1       1.586   2.258  19.224  0.00  0.00    +0.000 C 
ATOM     23  C   UNL     1       2.187   2.486  20.413  0.00  0.00    +0.000 C 
ATOM     24  C   UNL     1       3.678   2.575  20.601  0.00  0.00    +0.000 C 
ATOM     25  C   UNL     1       1.381   2.670  21.669  0.00  0.00    +0.000 C 
ENDBRANCH  21  22
ENDBRANCH  20  21
ENDBRANCH  18  20
ENDBRANCH  16  17
ENDBRANCH   3  16
TORSDOF 8
ENDMDL
MODEL 8
REMARK VINA RESULT:      -6.6      1.095      2.314
REMARK  Name = 
REMARK  13 active torsions:
REMARK  status: ('A' for Active; 'I' for Inactive)
REMARK    1  A    between atoms: C_1  and  O_2
REMARK    2  A    between atoms: O_2  and  C_3
REMARK    3  A    between atoms: C_5  and  O_6
REMARK    4  A    between atoms: O_6  and  C_7
REMARK    5  A    between atoms: C_9  and  C_10
REMARK    6  A    between atoms: N_12  and  C_13
REMARK    7  A    between atoms: C_13  and  C_14
REMARK    8  A    between atoms: C_15  and  C_16
REMARK    9  A    between atoms: C_15  and  C_17
REMARK   10  A    between atoms: C_17  and  C_18
REMARK   11  A    between atoms: C_18  and  C_19
REMARK   12  A    between atoms: C_20  and  C_21
REMARK   13  A    between atoms: C_20  and  C_22
REMARK                            x       y       z     vdW  Elec       q    Type
REMARK                         _______ _______ _______ _____ _____    ______ ____
ROOT
ATOM      1  C   UNL     1       1.561   8.510  19.559  0.00  0.00    +0.000 A 
ATOM      2  C   UNL     1       2.261   8.415  18.379  0.00  0.00    +0.000 A 
ATOM      3  N   UNL     1       2.935   7.239  18.498  0.00  0.00    +0.000 N 
ATOM      4  N   UNL     1       2.700   6.661  19.693  0.00  0.00    +0.000 NA
ATOM      5  N   UNL     1       1.852   7.424  20.349  0.00  0.00    +0.000 NA
ENDROOT
BRANCH   1  10
ATOM      6  C   UNL     1      -0.431  11.638  19.318  0.00  0.00    +0.000 A 
ATOM      7  C   UNL     1      -0.687  11.883  20.669  0.00  0.00    +0.000 A 
ATOM      8  C   UNL     1      -0.239  10.993  21.657  0.00  0.00    +0.000 A 
ATOM      9  C   UNL     1       0.446   9.848  21.279  0.00  0.00    +0.000 A 
ATOM     10  C   UNL     1       0.736   9.610  19.935  0.00  0.00    +0.000 A 
ATOM     11  C   UNL     1       0.284  10.507  18.957  0.00  0.00    +0.000 A 
BRANCH   6  13
ATOM     12  C   UNL     1      -0.249  13.868  18.555  0.00  0.00    +0.000 C 
ATOM     13  O   UNL     1      -0.868  12.588  18.434  0.00  0.00    +0.000 OA
ENDBRANCH   6  13
BRANCH   8  14
ATOM     14  O   UNL     1      -0.485  11.372  22.949  0.00  0.00    +0.000 OA
ATOM     15  C   UNL     1      -1.691  12.105  23.164  0.00  0.00    +0.000 C 
ENDBRANCH   8  14
ENDBRANCH   1  10
BRANCH   3  16
ATOM     16  C   UNL     1       3.882   6.649  17.569  0.00  0.00    +0.000 C 
BRANCH  16  17
ATOM     17  C   UNL     1       3.644   5.191  17.327  0.00  0.00    +0.000 C 
ATOM     18  C   UNL     1       4.464   4.178  17.670  0.00  0.00    +0.000 C 
ATOM     19  C   UNL     1       5.786   4.407  18.357  0.00  0.00    +0.000 C 
BRANCH  18  20
ATOM     20  C   UNL     1       4.059   2.741  17.365  0.00  0.00    +0.000 C 
BRANCH  20  21
ATOM     21  C   UNL     1       3.699   1.934  18.629  0.00  0.00    +0.000 C 
BRANCH  21  22
ATOM     22  C   UNL     1       3.079   2.705  19.732  0.00  0.00    +0.000 C 
ATOM     23  C   UNL     1       1.744   2.902  19.800  0.00  0.00    +0.000 C 
ATOM     24  C   UNL     1       0.760   2.377  18.789  0.00  0.00    +0.000 C 
ATOM     25  C   UNL     1       1.130   3.687  20.928  0.00  0.00    +0.000 C 
ENDBRANCH  21  22
ENDBRANCH  20  21
ENDBRANCH  18  20
ENDBRANCH  16  17
ENDBRANCH   3  16
TORSDOF 8
ENDMDL
MODEL 9
REMARK VINA RESULT:      -6.6      1.846      3.499
REMARK  Name = 
REMARK  13 active torsions:
REMARK  status: ('A' for Active; 'I' for Inactive)
REMARK    1  A    between atoms: C_1  and  O_2
REMARK    2  A    between atoms: O_2  and  C_3
REMARK    3  A    between atoms: C_5  and  O_6
REMARK    4  A    between atoms: O_6  and  C_7
REMARK    5  A    between atoms: C_9  and  C_10
REMARK    6  A    between atoms: N_12  and  C_13
REMARK    7  A    between atoms: C_13  and  C_14
REMARK    8  A    between atoms: C_15  and  C_16
REMARK    9  A    between atoms: C_15  and  C_17
REMARK   10  A    between atoms: C_17  and  C_18
REMARK   11  A    between atoms: C_18  and  C_19
REMARK   12  A    between atoms: C_20  and  C_21
REMARK   13  A    between atoms: C_20  and  C_22
REMARK                            x       y       z     vdW  Elec       q    Type
REMARK                         _______ _______ _______ _____ _____    ______ ____
ROOT
ATOM      1  C   UNL     1       1.407   8.919  19.228  0.00  0.00    +0.000 A 
ATOM      2  C   UNL     1       1.783   7.864  20.026  0.00  0.00    +0.000 A 
ATOM      3  N   UNL     1       2.534   7.087  19.200  0.00  0.00    +0.000 N 
ATOM      4  N   UNL     1       2.587   7.606  17.956  0.00  0.00    +0.000 NA
ATOM      5  N   UNL     1       1.909   8.734  17.963  0.00  0.00    +0.000 NA
ENDROOT
BRANCH   1  10
ATOM      6  C   UNL     1      -0.313  11.401  21.395  0.00  0.00    +0.000 A 
ATOM      7  C   UNL     1      -1.253  11.915  20.499  0.00  0.00    +0.000 A 
ATOM      8  C   UNL     1      -1.292  11.473  19.168  0.00  0.00    +0.000 A 
ATOM      9  C   UNL     1      -0.368  10.532  18.738  0.00  0.00    +0.000 A 
ATOM     10  C   UNL     1       0.554   9.988  19.633  0.00  0.00    +0.000 A 
ATOM     11  C   UNL     1       0.582  10.436  20.961  0.00  0.00    +0.000 A 
BRANCH   6  13
ATOM     12  C   UNL     1      -1.704  12.002  23.209  0.00  0.00    +0.000 C 
ATOM     13  O   UNL     1      -0.386  11.860  22.683  0.00  0.00    +0.000 OA
ENDBRANCH   6  13
BRANCH   8  14
ATOM     14  O   UNL     1      -2.300  11.993  18.402  0.00  0.00    +0.000 OA
ATOM     15  C   UNL     1      -2.553  11.324  17.167  0.00  0.00    +0.000 C 
ENDBRANCH   8  14
ENDBRANCH   1  10
BRANCH   3  16
ATOM     16  C   UNL     1       3.151   5.805  19.488  0.00  0.00    +0.000 C 
BRANCH  16  17
ATOM     17  C   UNL     1       4.640   5.818  19.336  0.00  0.00    +0.000 C 
ATOM     18  C   UNL     1       5.429   4.754  19.090  0.00  0.00    +0.000 C 
ATOM     19  C   UNL     1       4.881   3.358  18.946  0.00  0.00    +0.000 C 
BRANCH  18  20
ATOM     20  C   UNL     1       6.935   4.945  18.944  0.00  0.00    +0.000 C 
BRANCH  20  21
ATOM     21  C   UNL     1       7.338   5.553  17.585  0.00  0.00    +0.000 C 
BRANCH  21  22
ATOM     22  C   UNL     1       7.186   4.662  16.411  0.00  0.00    +0.000 C 
ATOM     23  C   UNL     1       6.234   4.871  15.475  0.00  0.00    +0.000 C 
ATOM     24  C   UNL     1       5.241   6.002  15.519  0.00  0.00    +0.000 C 
ATOM     25  C   UNL     1       6.096   3.958  14.288  0.00  0.00    +0.000 C 
ENDBRANCH  21  22
ENDBRANCH  20  21
ENDBRANCH  18  20
ENDBRANCH  16  17
ENDBRANCH   3  16
TORSDOF 8
ENDMDL
