MODEL 1
REMARK VINA RESULT:      -8.4      0.000      0.000
REMARK  Name = 
REMARK  4 active torsions:
REMARK  status: ('A' for Active; 'I' for Inactive)
REMARK    1  A    between atoms: O_1  and  C_2
REMARK    2  A    between atoms: C_10  and  C_11
REMARK    3  A    between atoms: C_11  and  C_12
REMARK    4  A    between atoms: C_18  and  N_19
REMARK                            x       y       z     vdW  Elec       q    Type
REMARK                         _______ _______ _______ _____ _____    ______ ____
ROOT
ATOM      1  C   UNL     1       5.210   3.957  19.313  0.00  0.00    +0.000 A 
ATOM      2  N   UNL     1       6.431   4.498  19.286  0.00  0.00    +0.000 NA
ATOM      3  C   UNL     1       6.582   5.671  18.670  0.00  0.00    +0.000 A 
ATOM      4  C   UNL     1       7.862   6.203  18.656  0.00  0.00    +0.000 A 
ATOM      5  C   UNL     1       8.150   7.417  18.041  0.00  0.00    +0.000 A 
ATOM      6  C   UNL     1       7.135   8.116  17.418  0.00  0.00    +0.000 A 
ATOM      7  C   UNL     1       5.838   7.596  17.416  0.00  0.00    +0.000 A 
ATOM      8  C   UNL     1       5.507   6.361  18.045  0.00  0.00    +0.000 A 
ATOM      9  C   UNL     1       4.186   5.769  18.107  0.00  0.00    +0.000 A 
ATOM     10  C   UNL     1       4.049   4.521  18.771  0.00  0.00    +0.000 A 
ENDROOT
BRANCH  10  11
ATOM     11  N   UNL     1       2.790   3.789  18.942  0.00  0.00    +0.000 N 
ATOM     12  C   UNL     1       2.373   2.872  18.034  0.00  0.00    +0.000 A 
ATOM     13  C   UNL     1       1.190   2.159  18.205  0.00  0.00    +0.000 A 
ATOM     14  C   UNL     1       0.446   2.329  19.364  0.00  0.00    +0.000 A 
ATOM     15  C   UNL     1       0.890   3.232  20.313  0.00  0.00    +0.000 A 
ATOM     16  C   UNL     1       2.044   3.971  20.070  0.00  0.00    +0.000 A 
ENDBRANCH  10  11
BRANCH   1  17
ATOM     17  O   UNL     1       5.231   2.739  19.911  0.00  0.00    +0.000 OA
ATOM     18  H   UNL     1       4.845   2.183  19.200  0.00  0.00    +0.000 HD
ENDBRANCH   1  17
BRANCH   9  19
ATOM     19  C   UNL     1       3.021   6.531  17.485  0.00  0.00    +0.000 C 
BRANCH  19  20
ATOM     20  C   UNL     1       2.314   7.537  18.361  0.00  0.00    +0.000 A 
ATOM     21  C   UNL     1       2.186   7.359  19.746  0.00  0.00    +0.000 A 
ATOM     22  C   UNL     1       1.539   8.320  20.523  0.00  0.00    +0.000 A 
ATOM     23  C   UNL     1       1.049   9.483  19.935  0.00  0.00    +0.000 A 
ATOM     24  C   UNL     1       1.230   9.704  18.573  0.00  0.00    +0.000 A 
ATOM     25  C   UNL     1       1.867   8.741  17.790  0.00  0.00    +0.000 A 
ENDBRANCH  19  20
ENDBRANCH   9  19
TORSDOF 4
ENDMDL
MODEL 2
REMARK VINA RESULT:      -8.2      0.091      1.381
REMARK  Name = 
REMARK  4 active torsions:
REMARK  status: ('A' for Active; 'I' for Inactive)
REMARK    1  A    between atoms: O_1  and  C_2
REMARK    2  A    between atoms: C_10  and  C_11
REMARK    3  A    between atoms: C_11  and  C_12
REMARK    4  A    between atoms: C_18  and  N_19
REMARK                            x       y       z     vdW  Elec       q    Type
REMARK                         _______ _______ _______ _____ _____    ______ ____
ROOT
ATOM      1  C   UNL     1       5.202   3.960  19.321  0.00  0.00    +0.000 A 
ATOM      2  N   UNL     1       6.420   4.504  19.255  0.00  0.00    +0.000 NA
ATOM      3  C   UNL     1       6.549   5.675  18.629  0.00  0.00    +0.000 A 
ATOM      4  C   UNL     1       7.827   6.211  18.575  0.00  0.00    +0.000 A 
ATOM      5  C   UNL     1       8.093   7.422  17.945  0.00  0.00    +0.000 A 
ATOM      6  C   UNL     1       7.058   8.115  17.349  0.00  0.00    +0.000 A 
ATOM      7  C   UNL     1       5.763   7.592  17.388  0.00  0.00    +0.000 A 
ATOM      8  C   UNL     1       5.455   6.359  18.032  0.00  0.00    +0.000 A 
ATOM      9  C   UNL     1       4.138   5.763  18.136  0.00  0.00    +0.000 A 
ATOM     10  C   UNL     1       4.025   4.518  18.810  0.00  0.00    +0.000 A 
ENDROOT
BRANCH  10  11
ATOM     11  N   UNL     1       2.773   3.783  19.021  0.00  0.00    +0.000 N 
ATOM     12  C   UNL     1       2.004   3.990  20.119  0.00  0.00    +0.000 A 
ATOM     13  C   UNL     1       0.805   3.312  20.312  0.00  0.00    +0.000 A 
ATOM     14  C   UNL     1       0.336   2.452  19.329  0.00  0.00    +0.000 A 
ATOM     15  C   UNL     1       1.096   2.270  18.187  0.00  0.00    +0.000 A 
ATOM     16  C   UNL     1       2.321   2.919  18.066  0.00  0.00    +0.000 A 
ENDBRANCH  10  11
BRANCH   1  17
ATOM     17  O   UNL     1       5.245   2.745  19.923  0.00  0.00    +0.000 OA
ATOM     18  H   UNL     1       4.344   2.412  19.723  0.00  0.00    +0.000 HD
ENDBRANCH   1  17
BRANCH   9  19
ATOM     19  C   UNL     1       2.953   6.518  17.545  0.00  0.00    +0.000 C 
BRANCH  19  20
ATOM     20  C   UNL     1       2.320   7.584  18.408  0.00  0.00    +0.000 A 
ATOM     21  C   UNL     1       1.815   8.775  17.870  0.00  0.00    +0.000 A 
ATOM     22  C   UNL     1       1.223   9.728  18.699  0.00  0.00    +0.000 A 
ATOM     23  C   UNL     1       1.094   9.486  20.064  0.00  0.00    +0.000 A 
ATOM     24  C   UNL     1       1.529   8.277  20.600  0.00  0.00    +0.000 A 
ATOM     25  C   UNL     1       2.131   7.326  19.776  0.00  0.00    +0.000 A 
ENDBRANCH  19  20
ENDBRANCH   9  19
TORSDOF 4
ENDMDL
MODEL 3
REMARK VINA RESULT:      -8.1      1.146      5.115
REMARK  Name = 
REMARK  4 active torsions:
REMARK  status: ('A' for Active; 'I' for Inactive)
REMARK    1  A    between atoms: O_1  and  C_2
REMARK    2  A    between atoms: C_10  and  C_11
REMARK    3  A    between atoms: C_11  and  C_12
REMARK    4  A    between atoms: C_18  and  N_19
REMARK                            x       y       z     vdW  Elec       q    Type
REMARK                         _______ _______ _______ _____ _____    ______ ____
ROOT
ATOM      1  C   UNL     1       4.746   3.722  17.441  0.00  0.00    +0.000 A 
ATOM      2  N   UNL     1       3.774   2.808  17.388  0.00  0.00    +0.000 NA
ATOM      3  C   UNL     1       2.707   2.984  18.170  0.00  0.00    +0.000 A 
ATOM      4  C   UNL     1       1.717   2.016  18.094  0.00  0.00    +0.000 A 
ATOM      5  C   UNL     1       0.559   2.083  18.862  0.00  0.00    +0.000 A 
ATOM      6  C   UNL     1       0.387   3.141  19.733  0.00  0.00    +0.000 A 
ATOM      7  C   UNL     1       1.373   4.126  19.828  0.00  0.00    +0.000 A 
ATOM      8  C   UNL     1       2.566   4.092  19.050  0.00  0.00    +0.000 A 
ATOM      9  C   UNL     1       3.621   5.085  19.074  0.00  0.00    +0.000 A 
ATOM     10  C   UNL     1       4.746   4.878  18.231  0.00  0.00    +0.000 A 
ENDROOT
BRANCH  10  11
ATOM     11  N   UNL     1       5.894   5.784  18.116  0.00  0.00    +0.000 N 
ATOM     12  C   UNL     1       5.879   6.845  17.272  0.00  0.00    +0.000 A 
ATOM     13  C   UNL     1       6.957   7.719  17.178  0.00  0.00    +0.000 A 
ATOM     14  C   UNL     1       8.052   7.555  18.015  0.00  0.00    +0.000 A 
ATOM     15  C   UNL     1       8.052   6.498  18.909  0.00  0.00    +0.000 A 
ATOM     16  C   UNL     1       6.981   5.610  18.923  0.00  0.00    +0.000 A 
ENDBRANCH  10  11
BRANCH   1  17
ATOM     17  O   UNL     1       5.787   3.370  16.646  0.00  0.00    +0.000 OA
ATOM     18  H   UNL     1       6.520   3.364  17.299  0.00  0.00    +0.000 HD
ENDBRANCH   1  17
BRANCH   9  19
ATOM     19  C   UNL     1       3.451   6.302  19.976  0.00  0.00    +0.000 C 
BRANCH  19  20
ATOM     20  C   UNL     1       2.538   7.399  19.481  0.00  0.00    +0.000 A 
ATOM     21  C   UNL     1       1.703   8.120  20.346  0.00  0.00    +0.000 A 
ATOM     22  C   UNL     1       0.886   9.137  19.852  0.00  0.00    +0.000 A 
ATOM     23  C   UNL     1       0.923   9.470  18.501  0.00  0.00    +0.000 A 
ATOM     24  C   UNL     1       1.796   8.808  17.643  0.00  0.00    +0.000 A 
ATOM     25  C   UNL     1       2.607   7.783  18.131  0.00  0.00    +0.000 A 
ENDBRANCH  19  20
ENDBRANCH   9  19
TORSDOF 4
ENDMDL
MODEL 4
REMARK VINA RESULT:      -8.1      1.135      5.207
REMARK  Name = 
REMARK  4 active torsions:
REMARK  status: ('A' for Active; 'I' for Inactive)
REMARK    1  A    between atoms: O_1  and  C_2
REMARK    2  A    between atoms: C_10  and  C_11
REMARK    3  A    between atoms: C_11  and  C_12
REMARK    4  A    between atoms: C_18  and  N_19
REMARK                            x       y       z     vdW  Elec       q    Type
REMARK                         _______ _______ _______ _____ _____    ______ ____
ROOT
ATOM      1  C   UNL     1       4.749   3.761  17.493  0.00  0.00    +0.000 A 
ATOM      2  N   UNL     1       3.796   2.829  17.413  0.00  0.00    +0.000 NA
ATOM      3  C   UNL     1       2.715   2.972  18.182  0.00  0.00    +0.000 A 
ATOM      4  C   UNL     1       1.746   1.986  18.077  0.00  0.00    +0.000 A 
ATOM      5  C   UNL     1       0.576   2.019  18.830  0.00  0.00    +0.000 A 
ATOM      6  C   UNL     1       0.371   3.060  19.714  0.00  0.00    +0.000 A 
ATOM      7  C   UNL     1       1.336   4.063  19.837  0.00  0.00    +0.000 A 
ATOM      8  C   UNL     1       2.540   4.064  19.076  0.00  0.00    +0.000 A 
ATOM      9  C   UNL     1       3.575   5.077  19.129  0.00  0.00    +0.000 A 
ATOM     10  C   UNL     1       4.715   4.904  18.300  0.00  0.00    +0.000 A 
ENDROOT
BRANCH  10  11
ATOM     11  N   UNL     1       5.846   5.834  18.215  0.00  0.00    +0.000 N 
ATOM     12  C   UNL     1       6.950   5.683  18.989  0.00  0.00    +0.000 A 
ATOM     13  C   UNL     1       8.034   6.550  18.894  0.00  0.00    +0.000 A 
ATOM     14  C   UNL     1       8.030   7.555  17.938  0.00  0.00    +0.000 A 
ATOM     15  C   UNL     1       6.923   7.686  17.116  0.00  0.00    +0.000 A 
ATOM     16  C   UNL     1       5.834   6.838  17.290  0.00  0.00    +0.000 A 
ENDBRANCH  10  11
BRANCH   1  17
ATOM     17  O   UNL     1       5.809   3.441  16.708  0.00  0.00    +0.000 OA
ATOM     18  H   UNL     1       6.289   2.820  17.297  0.00  0.00    +0.000 HD
ENDBRANCH   1  17
BRANCH   9  19
ATOM     19  C   UNL     1       3.368   6.277  20.047  0.00  0.00    +0.000 C 
BRANCH  19  20
ATOM     20  C   UNL     1       2.542   7.419  19.505  0.00  0.00    +0.000 A 
ATOM     21  C   UNL     1       2.519   7.740  18.141  0.00  0.00    +0.000 A 
ATOM     22  C   UNL     1       1.730   8.793  17.678  0.00  0.00    +0.000 A 
ATOM     23  C   UNL     1       0.928   9.509  18.562  0.00  0.00    +0.000 A 
ATOM     24  C   UNL     1       0.889   9.157  19.908  0.00  0.00    +0.000 A 
ATOM     25  C   UNL     1       1.685   8.111  20.377  0.00  0.00    +0.000 A 
ENDBRANCH  19  20
ENDBRANCH   9  19
TORSDOF 4
ENDMDL
MODEL 5
REMARK VINA RESULT:      -7.8      1.796      4.895
REMARK  Name = 
REMARK  4 active torsions:
REMARK  status: ('A' for Active; 'I' for Inactive)
REMARK    1  A    between atoms: O_1  and  C_2
REMARK    2  A    between atoms: C_10  and  C_11
REMARK    3  A    between atoms: C_11  and  C_12
REMARK    4  A    between atoms: C_18  and  N_19
REMARK                            x       y       z     vdW  Elec       q    Type
REMARK                         _______ _______ _______ _____ _____    ______ ____
ROOT
ATOM      1  C   UNL     1       1.875   5.864  20.340  0.00  0.00    +0.000 A 
ATOM      2  N   UNL     1       1.366   7.042  20.708  0.00  0.00    +0.000 NA
ATOM      3  C   UNL     1       1.548   8.083  19.893  0.00  0.00    +0.000 A 
ATOM      4  C   UNL     1       1.011   9.293  20.305  0.00  0.00    +0.000 A 
ATOM      5  C   UNL     1       1.138  10.453  19.548  0.00  0.00    +0.000 A 
ATOM      6  C   UNL     1       1.823  10.406  18.350  0.00  0.00    +0.000 A 
ATOM      7  C   UNL     1       2.376   9.197  17.917  0.00  0.00    +0.000 A 
ATOM      8  C   UNL     1       2.257   7.990  18.664  0.00  0.00    +0.000 A 
ATOM      9  C   UNL     1       2.779   6.696  18.272  0.00  0.00    +0.000 A 
ATOM     10  C   UNL     1       2.570   5.603  19.154  0.00  0.00    +0.000 A 
ENDROOT
BRANCH  10  11
ATOM     11  N   UNL     1       3.015   4.226  18.912  0.00  0.00    +0.000 N 
ATOM     12  C   UNL     1       4.087   3.701  19.556  0.00  0.00    +0.000 A 
ATOM     13  C   UNL     1       4.497   2.389  19.345  0.00  0.00    +0.000 A 
ATOM     14  C   UNL     1       3.756   1.562  18.513  0.00  0.00    +0.000 A 
ATOM     15  C   UNL     1       2.636   2.080  17.886  0.00  0.00    +0.000 A 
ATOM     16  C   UNL     1       2.301   3.418  18.075  0.00  0.00    +0.000 A 
ENDBRANCH  10  11
BRANCH   1  17
ATOM     17  O   UNL     1       1.668   4.926  21.299  0.00  0.00    +0.000 OA
ATOM     18  H   UNL     1       2.443   4.341  21.149  0.00  0.00    +0.000 HD
ENDBRANCH   1  17
BRANCH   9  19
ATOM     19  C   UNL     1       3.493   6.580  16.930  0.00  0.00    +0.000 C 
BRANCH  19  20
ATOM     20  C   UNL     1       4.861   5.940  16.935  0.00  0.00    +0.000 A 
ATOM     21  C   UNL     1       5.886   6.380  17.783  0.00  0.00    +0.000 A 
ATOM     22  C   UNL     1       7.132   5.752  17.769  0.00  0.00    +0.000 A 
ATOM     23  C   UNL     1       7.354   4.656  16.939  0.00  0.00    +0.000 A 
ATOM     24  C   UNL     1       6.323   4.166  16.142  0.00  0.00    +0.000 A 
ATOM     25  C   UNL     1       5.080   4.798  16.145  0.00  0.00    +0.000 A 
ENDBRANCH  19  20
ENDBRANCH   9  19
TORSDOF 4
ENDMDL
MODEL 6
REMARK VINA RESULT:      -7.6      1.800      4.868
REMARK  Name = 
REMARK  4 active torsions:
REMARK  status: ('A' for Active; 'I' for Inactive)
REMARK    1  A    between atoms: O_1  and  C_2
REMARK    2  A    between atoms: C_10  and  C_11
REMARK    3  A    between atoms: C_11  and  C_12
REMARK    4  A    between atoms: C_18  and  N_19
REMARK                            x       y       z     vdW  Elec       q    Type
REMARK                         _______ _______ _______ _____ _____    ______ ____
ROOT
ATOM      1  C   UNL     1       1.851   5.816  20.380  0.00  0.00    +0.000 A 
ATOM      2  N   UNL     1       1.360   7.004  20.742  0.00  0.00    +0.000 NA
ATOM      3  C   UNL     1       1.547   8.036  19.917  0.00  0.00    +0.000 A 
ATOM      4  C   UNL     1       1.029   9.256  20.324  0.00  0.00    +0.000 A 
ATOM      5  C   UNL     1       1.162  10.407  19.555  0.00  0.00    +0.000 A 
ATOM      6  C   UNL     1       1.833  10.341  18.350  0.00  0.00    +0.000 A 
ATOM      7  C   UNL     1       2.366   9.122  17.922  0.00  0.00    +0.000 A 
ATOM      8  C   UNL     1       2.240   7.923  18.681  0.00  0.00    +0.000 A 
ATOM      9  C   UNL     1       2.743   6.620  18.295  0.00  0.00    +0.000 A 
ATOM     10  C   UNL     1       2.530   5.536  19.189  0.00  0.00    +0.000 A 
ENDROOT
BRANCH  10  11
ATOM     11  N   UNL     1       2.955   4.152  18.953  0.00  0.00    +0.000 N 
ATOM     12  C   UNL     1       2.281   3.337  18.104  0.00  0.00    +0.000 A 
ATOM     13  C   UNL     1       2.695   2.031  17.861  0.00  0.00    +0.000 A 
ATOM     14  C   UNL     1       3.865   1.561  18.440  0.00  0.00    +0.000 A 
ATOM     15  C   UNL     1       4.579   2.403  19.274  0.00  0.00    +0.000 A 
ATOM     16  C   UNL     1       4.093   3.680  19.540  0.00  0.00    +0.000 A 
ENDBRANCH  10  11
BRANCH   1  17
ATOM     17  O   UNL     1       1.643   4.889  21.349  0.00  0.00    +0.000 OA
ATOM     18  H   UNL     1       0.872   4.409  20.977  0.00  0.00    +0.000 HD
ENDBRANCH   1  17
BRANCH   9  19
ATOM     19  C   UNL     1       3.440   6.483  16.947  0.00  0.00    +0.000 C 
BRANCH  19  20
ATOM     20  C   UNL     1       4.799   5.823  16.942  0.00  0.00    +0.000 A 
ATOM     21  C   UNL     1       5.093   4.730  16.115  0.00  0.00    +0.000 A 
ATOM     22  C   UNL     1       6.365   4.158  16.129  0.00  0.00    +0.000 A 
ATOM     23  C   UNL     1       7.365   4.693  16.937  0.00  0.00    +0.000 A 
ATOM     24  C   UNL     1       7.105   5.820  17.712  0.00  0.00    +0.000 A 
ATOM     25  C   UNL     1       5.832   6.388  17.709  0.00  0.00    +0.000 A 
ENDBRANCH  19  20
ENDBRANCH   9  19
TORSDOF 4
ENDMDL
MODEL 7
REMARK VINA RESULT:      -7.3      2.261      5.905
REMARK  Name = 
REMARK  4 active torsions:
REMARK  status: ('A' for Active; 'I' for Inactive)
REMARK    1  A    between atoms: O_1  and  C_2
REMARK    2  A    between atoms: C_10  and  C_11
REMARK    3  A    between atoms: C_11  and  C_12
REMARK    4  A    between atoms: C_18  and  N_19
REMARK                            x       y       z     vdW  Elec       q    Type
REMARK                         _______ _______ _______ _____ _____    ______ ____
ROOT
ATOM      1  C   UNL     1       2.567   8.171  18.086  0.00  0.00    +0.000 A 
ATOM      2  N   UNL     1       1.811   9.211  18.447  0.00  0.00    +0.000 NA
ATOM      3  C   UNL     1       1.180   9.148  19.620  0.00  0.00    +0.000 A 
ATOM      4  C   UNL     1       0.401  10.242  19.964  0.00  0.00    +0.000 A 
ATOM      5  C   UNL     1      -0.312  10.294  21.158  0.00  0.00    +0.000 A 
ATOM      6  C   UNL     1      -0.248   9.225  22.030  0.00  0.00    +0.000 A 
ATOM      7  C   UNL     1       0.528   8.110  21.702  0.00  0.00    +0.000 A 
ATOM      8  C   UNL     1       1.276   8.028  20.492  0.00  0.00    +0.000 A 
ATOM      9  C   UNL     1       2.122   6.921  20.092  0.00  0.00    +0.000 A 
ATOM     10  C   UNL     1       2.785   7.013  18.840  0.00  0.00    +0.000 A 
ENDROOT
BRANCH  10  11
ATOM     11  N   UNL     1       3.688   5.997  18.286  0.00  0.00    +0.000 N 
ATOM     12  C   UNL     1       4.977   5.895  18.693  0.00  0.00    +0.000 A 
ATOM     13  C   UNL     1       5.829   4.918  18.187  0.00  0.00    +0.000 A 
ATOM     14  C   UNL     1       5.340   3.973  17.296  0.00  0.00    +0.000 A 
ATOM     15  C   UNL     1       4.012   4.047  16.911  0.00  0.00    +0.000 A 
ATOM     16  C   UNL     1       3.214   5.080  17.393  0.00  0.00    +0.000 A 
ENDBRANCH  10  11
BRANCH   1  17
ATOM     17  O   UNL     1       3.084   8.355  16.845  0.00  0.00    +0.000 OA
ATOM     18  H   UNL     1       3.937   7.876  16.931  0.00  0.00    +0.000 HD
ENDBRANCH   1  17
BRANCH   9  19
ATOM     19  C   UNL     1       2.270   5.742  21.047  0.00  0.00    +0.000 C 
BRANCH  19  20
ATOM     20  C   UNL     1       2.034   4.364  20.476  0.00  0.00    +0.000 A 
ATOM     21  C   UNL     1       0.841   4.022  19.825  0.00  0.00    +0.000 A 
ATOM     22  C   UNL     1       0.667   2.743  19.297  0.00  0.00    +0.000 A 
ATOM     23  C   UNL     1       1.694   1.806  19.379  0.00  0.00    +0.000 A 
ATOM     24  C   UNL     1       2.909   2.154  19.964  0.00  0.00    +0.000 A 
ATOM     25  C   UNL     1       3.082   3.429  20.502  0.00  0.00    +0.000 A 
ENDBRANCH  19  20
ENDBRANCH   9  19
TORSDOF 4
ENDMDL
MODEL 8
REMARK VINA RESULT:      -7.3      4.569      7.754
REMARK  Name = 
REMARK  4 active torsions:
REMARK  status: ('A' for Active; 'I' for Inactive)
REMARK    1  A    between atoms: O_1  and  C_2
REMARK    2  A    between atoms: C_10  and  C_11
REMARK    3  A    between atoms: C_11  and  C_12
REMARK    4  A    between atoms: C_18  and  N_19
REMARK                            x       y       z     vdW  Elec       q    Type
REMARK                         _______ _______ _______ _____ _____    ______ ____
ROOT
ATOM      1  C   UNL     1       0.640   9.660  22.211  0.00  0.00    +0.000 A 
ATOM      2  N   UNL     1       1.359   8.626  21.766  0.00  0.00    +0.000 NA
ATOM      3  C   UNL     1       1.529   8.504  20.449  0.00  0.00    +0.000 A 
ATOM      4  C   UNL     1       2.277   7.419  20.019  0.00  0.00    +0.000 A 
ATOM      5  C   UNL     1       2.520   7.178  18.670  0.00  0.00    +0.000 A 
ATOM      6  C   UNL     1       2.000   8.040  17.726  0.00  0.00    +0.000 A 
ATOM      7  C   UNL     1       1.240   9.139  18.136  0.00  0.00    +0.000 A 
ATOM      8  C   UNL     1       0.979   9.419  19.509  0.00  0.00    +0.000 A 
ATOM      9  C   UNL     1       0.224  10.547  20.014  0.00  0.00    +0.000 A 
ATOM     10  C   UNL     1       0.058  10.658  21.421  0.00  0.00    +0.000 A 
ENDROOT
BRANCH  10  11
ATOM     11  N   UNL     1      -0.660  11.739  22.104  0.00  0.00    +0.000 N 
ATOM     12  C   UNL     1      -0.194  13.012  22.105  0.00  0.00    +0.000 A 
ATOM     13  C   UNL     1      -0.885  14.044  22.733  0.00  0.00    +0.000 A 
ATOM     14  C   UNL     1      -2.119  13.791  23.314  0.00  0.00    +0.000 A 
ATOM     15  C   UNL     1      -2.619  12.501  23.278  0.00  0.00    +0.000 A 
ATOM     16  C   UNL     1      -1.864  11.487  22.697  0.00  0.00    +0.000 A 
ENDBRANCH  10  11
BRANCH   1  17
ATOM     17  O   UNL     1       0.499   9.608  23.560  0.00  0.00    +0.000 OA
ATOM     18  H   UNL     1       0.469   8.637  23.701  0.00  0.00    +0.000 HD
ENDBRANCH   1  17
BRANCH   9  19
ATOM     19  C   UNL     1      -0.322  11.560  19.014  0.00  0.00    +0.000 C 
BRANCH  19  20
ATOM     20  C   UNL     1      -1.727  11.335  18.509  0.00  0.00    +0.000 A 
ATOM     21  C   UNL     1      -2.019  10.397  17.510  0.00  0.00    +0.000 A 
ATOM     22  C   UNL     1      -3.333  10.208  17.082  0.00  0.00    +0.000 A 
ATOM     23  C   UNL     1      -4.372  10.923  17.672  0.00  0.00    +0.000 A 
ATOM     24  C   UNL     1      -4.104  11.809  18.712  0.00  0.00    +0.000 A 
ATOM     25  C   UNL     1      -2.790  12.008  19.136  0.00  0.00    +0.000 A 
ENDBRANCH  19  20
ENDBRANCH   9  19
TORSDOF 4
ENDMDL
MODEL 9
REMARK VINA RESULT:      -7.3      4.947      8.184
REMARK  Name = 
REMARK  4 active torsions:
REMARK  status: ('A' for Active; 'I' for Inactive)
REMARK    1  A    between atoms: O_1  and  C_2
REMARK    2  A    between atoms: C_10  and  C_11
REMARK    3  A    between atoms: C_11  and  C_12
REMARK    4  A    between atoms: C_18  and  N_19
REMARK                            x       y       z     vdW  Elec       q    Type
REMARK                         _______ _______ _______ _____ _____    ______ ____
ROOT
ATOM      1  C   UNL     1       0.240   9.965  22.349  0.00  0.00    +0.000 A 
ATOM      2  N   UNL     1       0.985   8.969  21.863  0.00  0.00    +0.000 NA
ATOM      3  C   UNL     1       1.184   8.924  20.544  0.00  0.00    +0.000 A 
ATOM      4  C   UNL     1       1.958   7.876  20.070  0.00  0.00    +0.000 A 
ATOM      5  C   UNL     1       2.234   7.716  18.716  0.00  0.00    +0.000 A 
ATOM      6  C   UNL     1       1.718   8.622  17.810  0.00  0.00    +0.000 A 
ATOM      7  C   UNL     1       0.932   9.684  18.266  0.00  0.00    +0.000 A 
ATOM      8  C   UNL     1       0.639   9.882  19.646  0.00  0.00    +0.000 A 
ATOM      9  C   UNL     1      -0.146  10.968  20.197  0.00  0.00    +0.000 A 
ATOM     10  C   UNL     1      -0.342  10.997  21.604  0.00  0.00    +0.000 A 
ENDROOT
BRANCH  10  11
ATOM     11  N   UNL     1      -1.093  12.026  22.331  0.00  0.00    +0.000 N 
ATOM     12  C   UNL     1      -2.326  11.780  22.839  0.00  0.00    +0.000 A 
ATOM     13  C   UNL     1      -3.031  12.747  23.549  0.00  0.00    +0.000 A 
ATOM     14  C   UNL     1      -2.439  13.974  23.814  0.00  0.00    +0.000 A 
ATOM     15  C   UNL     1      -1.163  14.214  23.335  0.00  0.00    +0.000 A 
ATOM     16  C   UNL     1      -0.521  13.241  22.573  0.00  0.00    +0.000 A 
ENDBRANCH  10  11
BRANCH   1  17
ATOM     17  O   UNL     1       0.072   9.835  23.690  0.00  0.00    +0.000 OA
ATOM     18  H   UNL     1       0.428  10.695  24.000  0.00  0.00    +0.000 HD
ENDBRANCH   1  17
BRANCH   9  19
ATOM     19  C   UNL     1      -0.688  12.027  19.244  0.00  0.00    +0.000 C 
BRANCH  19  20
ATOM     20  C   UNL     1      -2.067  11.794  18.674  0.00  0.00    +0.000 A 
ATOM     21  C   UNL     1      -3.230  12.139  19.375  0.00  0.00    +0.000 A 
ATOM     22  C   UNL     1      -4.486  11.922  18.808  0.00  0.00    +0.000 A 
ATOM     23  C   UNL     1      -4.593  11.397  17.522  0.00  0.00    +0.000 A 
ATOM     24  C   UNL     1      -3.444  11.114  16.789  0.00  0.00    +0.000 A 
ATOM     25  C   UNL     1      -2.187  11.320  17.357  0.00  0.00    +0.000 A 
ENDBRANCH  19  20
ENDBRANCH   9  19
TORSDOF 4
ENDMDL
