MODEL 1
REMARK VINA RESULT:      -6.5      0.000      0.000
REMARK  Name = 
REMARK  13 active torsions:
REMARK  status: ('A' for Active; 'I' for Inactive)
REMARK    1  A    between atoms: C_1  and  C_2
REMARK    2  A    between atoms: C_2  and  N_3
REMARK    3  A    between atoms: N_13  and  C_14
REMARK    4  A    between atoms: C_16  and  C_17
REMARK    5  A    between atoms: C_17  and  O_18
REMARK    6  A    between atoms: O_18  and  P_19
REMARK    7  A    between atoms: P_19  and  O_21
REMARK    8  A    between atoms: P_19  and  O_22
REMARK    9  A    between atoms: O_22  and  P_23
REMARK   10  A    between atoms: P_23  and  O_25
REMARK   11  A    between atoms: P_23  and  O_26
REMARK   12  A    between atoms: C_27  and  O_28
REMARK   13  A    between atoms: C_29  and  O_30
REMARK                            x       y       z     vdW  Elec       q    Type
REMARK                         _______ _______ _______ _____ _____    ______ ____
ROOT
ATOM      1  C   UNL     1       4.468   3.145  17.421  0.00  0.00    +0.000 C 
ATOM      2  O   UNL     1       3.168   3.180  16.795  0.00  0.00    +0.000 OA
ATOM      3  C   UNL     1       2.147   2.974  17.799  0.00  0.00    +0.000 C 
ATOM      4  C   UNL     1       2.879   2.379  18.999  0.00  0.00    +0.000 C 
ATOM      5  C   UNL     1       4.244   3.044  18.932  0.00  0.00    +0.000 C 
ENDROOT
BRANCH   1  16
ATOM      6  N   UNL     1       4.908   4.115  14.710  0.00  0.00    +0.000 N 
ATOM      7  C   UNL     1       5.518   4.711  15.761  0.00  0.00    +0.000 A 
ATOM      8  N   UNL     1       6.387   5.699  15.724  0.00  0.00    +0.000 NA
ATOM      9  C   UNL     1       6.771   5.897  17.032  0.00  0.00    +0.000 A 
ATOM     10  C   UNL     1       7.696   6.773  17.629  0.00  0.00    +0.000 A 
ATOM     11  N   UNL     1       8.464   7.683  16.910  0.00  0.00    +0.000 N 
ATOM     12  N   UNL     1       7.854   6.738  18.971  0.00  0.00    +0.000 NA
ATOM     13  C   UNL     1       7.132   5.839  19.673  0.00  0.00    +0.000 A 
ATOM     14  N   UNL     1       6.235   4.952  19.205  0.00  0.00    +0.000 NA
ATOM     15  C   UNL     1       6.098   5.033  17.878  0.00  0.00    +0.000 A 
ATOM     16  N   UNL     1       5.299   4.281  17.062  0.00  0.00    +0.000 N 
ATOM     17  H   UNL     1       4.575   3.158  14.832  0.00  0.00    +0.000 HD
ATOM     18  H   UNL     1       8.049   7.925  16.018  0.00  0.00    +0.000 HD
ATOM     19  H   UNL     1       8.779   8.440  17.503  0.00  0.00    +0.000 HD
BRANCH   6  21
ATOM     20  C   UNL     1       4.830   3.368  12.397  0.00  0.00    +0.000 C 
ATOM     21  C   UNL     1       5.518   4.288  13.396  0.00  0.00    +0.000 C 
ENDBRANCH   6  21
ENDBRANCH   1  16
BRANCH   4  22
ATOM     22  O   UNL     1       3.075   0.960  18.855  0.00  0.00    +0.000 OA
ATOM     23  H   UNL     1       3.328   0.772  17.931  0.00  0.00    +0.000 HD
ENDBRANCH   4  22
BRANCH   5  24
ATOM     24  O   UNL     1       5.245   2.250  19.580  0.00  0.00    +0.000 OA
ATOM     25  H   UNL     1       4.921   1.324  19.535  0.00  0.00    +0.000 HD
ENDBRANCH   5  24
BRANCH   3  26
ATOM     26  C   UNL     1       1.442   4.289  18.151  0.00  0.00    +0.000 C 
BRANCH  26  27
ATOM     27  O   UNL     1       2.110   5.390  17.539  0.00  0.00    +0.000 OA
BRANCH  27  28
ATOM     28  P   UNL     1       2.102   6.870  18.435  0.00  0.00    +0.000 P 
ATOM     29  O   UNL     1       2.508   6.156  19.731  0.00  0.00    +0.000 OA
BRANCH  28  30
ATOM     30  O   UNL     1       3.466   7.348  17.674  0.00  0.00    +0.000 OA
ATOM     31  H   UNL     1       3.539   8.316  17.616  0.00  0.00    +0.000 HD
ENDBRANCH  28  30
BRANCH  28  32
ATOM     32  O   UNL     1       2.094   8.350  19.331  0.00  0.00    +0.000 OA
BRANCH  32  33
ATOM     33  P   UNL     1       1.002   9.467  18.589  0.00  0.00    +0.000 P 
ATOM     34  O   UNL     1       1.198  10.491  19.705  0.00  0.00    +0.000 OA
BRANCH  33  35
ATOM     35  O   UNL     1       2.029   9.926  17.398  0.00  0.00    +0.000 OA
ATOM     36  H   UNL     1       2.245  10.871  17.538  0.00  0.00    +0.000 HD
ENDBRANCH  33  35
BRANCH  33  37
ATOM     37  O   UNL     1      -0.091  10.586  17.847  0.00  0.00    +0.000 OA
ATOM     38  H   UNL     1      -0.128  10.266  16.921  0.00  0.00    +0.000 HD
ENDBRANCH  33  37
ENDBRANCH  32  33
ENDBRANCH  28  32
ENDBRANCH  27  28
ENDBRANCH  26  27
ENDBRANCH   3  26
TORSDOF 12
ENDMDL
MODEL 2
REMARK VINA RESULT:      -6.4      4.177      6.902
REMARK  Name = 
REMARK  13 active torsions:
REMARK  status: ('A' for Active; 'I' for Inactive)
REMARK    1  A    between atoms: C_1  and  C_2
REMARK    2  A    between atoms: C_2  and  N_3
REMARK    3  A    between atoms: N_13  and  C_14
REMARK    4  A    between atoms: C_16  and  C_17
REMARK    5  A    between atoms: C_17  and  O_18
REMARK    6  A    between atoms: O_18  and  P_19
REMARK    7  A    between atoms: P_19  and  O_21
REMARK    8  A    between atoms: P_19  and  O_22
REMARK    9  A    between atoms: O_22  and  P_23
REMARK   10  A    between atoms: P_23  and  O_25
REMARK   11  A    between atoms: P_23  and  O_26
REMARK   12  A    between atoms: C_27  and  O_28
REMARK   13  A    between atoms: C_29  and  O_30
REMARK                            x       y       z     vdW  Elec       q    Type
REMARK                         _______ _______ _______ _____ _____    ______ ____
ROOT
ATOM      1  C   UNL     1       5.587   6.214  18.532  0.00  0.00    +0.000 C 
ATOM      2  O   UNL     1       5.930   6.776  17.247  0.00  0.00    +0.000 OA
ATOM      3  C   UNL     1       7.267   6.358  16.884  0.00  0.00    +0.000 C 
ATOM      4  C   UNL     1       7.903   5.873  18.184  0.00  0.00    +0.000 C 
ATOM      5  C   UNL     1       6.726   5.276  18.939  0.00  0.00    +0.000 C 
ENDROOT
BRANCH   1  16
ATOM      6  N   UNL     1       3.050   7.454  17.814  0.00  0.00    +0.000 N 
ATOM      7  C   UNL     1       3.096   6.160  18.210  0.00  0.00    +0.000 A 
ATOM      8  N   UNL     1       2.078   5.343  18.384  0.00  0.00    +0.000 NA
ATOM      9  C   UNL     1       2.627   4.173  18.861  0.00  0.00    +0.000 A 
ATOM     10  C   UNL     1       2.057   2.955  19.271  0.00  0.00    +0.000 A 
ATOM     11  N   UNL     1       0.688   2.707  19.264  0.00  0.00    +0.000 N 
ATOM     12  N   UNL     1       2.873   1.964  19.696  0.00  0.00    +0.000 NA
ATOM     13  C   UNL     1       4.201   2.205  19.731  0.00  0.00    +0.000 A 
ATOM     14  N   UNL     1       4.847   3.331  19.376  0.00  0.00    +0.000 NA
ATOM     15  C   UNL     1       4.004   4.275  18.947  0.00  0.00    +0.000 A 
ATOM     16  N   UNL     1       4.297   5.544  18.529  0.00  0.00    +0.000 N 
ATOM     17  H   UNL     1       3.827   8.062  18.079  0.00  0.00    +0.000 HD
ATOM     18  H   UNL     1       0.188   3.299  18.611  0.00  0.00    +0.000 HD
ATOM     19  H   UNL     1       0.499   1.713  19.238  0.00  0.00    +0.000 HD
BRANCH   6  21
ATOM     20  C   UNL     1       2.023   9.654  17.945  0.00  0.00    +0.000 C 
ATOM     21  C   UNL     1       1.776   8.152  17.950  0.00  0.00    +0.000 C 
ENDBRANCH   6  21
ENDBRANCH   1  16
BRANCH   4  22
ATOM     22  O   UNL     1       8.418   6.966  18.967  0.00  0.00    +0.000 OA
ATOM     23  H   UNL     1       9.224   6.666  19.429  0.00  0.00    +0.000 HD
ENDBRANCH   4  22
BRANCH   5  24
ATOM     24  O   UNL     1       6.957   5.280  20.353  0.00  0.00    +0.000 OA
ATOM     25  H   UNL     1       7.485   4.474  20.539  0.00  0.00    +0.000 HD
ENDBRANCH   5  24
BRANCH   3  26
ATOM     26  C   UNL     1       7.233   5.260  15.815  0.00  0.00    +0.000 C 
BRANCH  26  27
ATOM     27  O   UNL     1       6.444   5.674  14.702  0.00  0.00    +0.000 OA
BRANCH  27  28
ATOM     28  P   UNL     1       6.555   4.684  13.288  0.00  0.00    +0.000 P 
ATOM     29  O   UNL     1       7.966   5.195  12.969  0.00  0.00    +0.000 OA
BRANCH  28  30
ATOM     30  O   UNL     1       6.699   3.352  14.222  0.00  0.00    +0.000 OA
ATOM     31  H   UNL     1       5.890   2.812  14.225  0.00  0.00    +0.000 HD
ENDBRANCH  28  30
BRANCH  28  32
ATOM     32  O   UNL     1       6.666   3.694  11.874  0.00  0.00    +0.000 OA
BRANCH  32  33
ATOM     33  P   UNL     1       5.078   3.224  11.373  0.00  0.00    +0.000 P 
ATOM     34  O   UNL     1       5.428   1.740  11.451  0.00  0.00    +0.000 OA
BRANCH  33  35
ATOM     35  O   UNL     1       4.352   3.572  12.799  0.00  0.00    +0.000 OA
ATOM     36  H   UNL     1       4.606   2.877  13.441  0.00  0.00    +0.000 HD
ENDBRANCH  33  35
BRANCH  33  37
ATOM     37  O   UNL     1       3.490   2.754  10.871  0.00  0.00    +0.000 OA
ATOM     38  H   UNL     1       3.666   1.969  10.311  0.00  0.00    +0.000 HD
ENDBRANCH  33  37
ENDBRANCH  32  33
ENDBRANCH  28  32
ENDBRANCH  27  28
ENDBRANCH  26  27
ENDBRANCH   3  26
TORSDOF 12
ENDMDL
MODEL 3
REMARK VINA RESULT:      -6.4      7.080      9.485
REMARK  Name = 
REMARK  13 active torsions:
REMARK  status: ('A' for Active; 'I' for Inactive)
REMARK    1  A    between atoms: C_1  and  C_2
REMARK    2  A    between atoms: C_2  and  N_3
REMARK    3  A    between atoms: N_13  and  C_14
REMARK    4  A    between atoms: C_16  and  C_17
REMARK    5  A    between atoms: C_17  and  O_18
REMARK    6  A    between atoms: O_18  and  P_19
REMARK    7  A    between atoms: P_19  and  O_21
REMARK    8  A    between atoms: P_19  and  O_22
REMARK    9  A    between atoms: O_22  and  P_23
REMARK   10  A    between atoms: P_23  and  O_25
REMARK   11  A    between atoms: P_23  and  O_26
REMARK   12  A    between atoms: C_27  and  O_28
REMARK   13  A    between atoms: C_29  and  O_30
REMARK                            x       y       z     vdW  Elec       q    Type
REMARK                         _______ _______ _______ _____ _____    ______ ____
ROOT
ATOM      1  C   UNL     1       0.115  10.554  20.570  0.00  0.00    +0.000 C 
ATOM      2  O   UNL     1       1.278  10.492  19.717  0.00  0.00    +0.000 OA
ATOM      3  C   UNL     1       1.803   9.144  19.722  0.00  0.00    +0.000 C 
ATOM      4  C   UNL     1       1.182   8.475  20.945  0.00  0.00    +0.000 C 
ATOM      5  C   UNL     1      -0.188   9.128  21.033  0.00  0.00    +0.000 C 
ENDROOT
BRANCH   1  16
ATOM      6  N   UNL     1      -1.569  12.615  21.756  0.00  0.00    +0.000 N 
ATOM      7  C   UNL     1      -1.833  12.139  20.516  0.00  0.00    +0.000 A 
ATOM      8  N   UNL     1      -2.848  12.457  19.740  0.00  0.00    +0.000 NA
ATOM      9  C   UNL     1      -2.719  11.658  18.625  0.00  0.00    +0.000 A 
ATOM     10  C   UNL     1      -3.507  11.503  17.471  0.00  0.00    +0.000 A 
ATOM     11  N   UNL     1      -4.682  12.211  17.244  0.00  0.00    +0.000 N 
ATOM     12  N   UNL     1      -3.110  10.623  16.524  0.00  0.00    +0.000 NA
ATOM     13  C   UNL     1      -1.984   9.913  16.748  0.00  0.00    +0.000 A 
ATOM     14  N   UNL     1      -1.167   9.972  17.816  0.00  0.00    +0.000 NA
ATOM     15  C   UNL     1      -1.587  10.866  18.716  0.00  0.00    +0.000 A 
ATOM     16  N   UNL     1      -1.027  11.179  19.923  0.00  0.00    +0.000 N 
ATOM     17  H   UNL     1      -1.004  12.035  22.379  0.00  0.00    +0.000 HD
ATOM     18  H   UNL     1      -4.721  13.080  17.764  0.00  0.00    +0.000 HD
ATOM     19  H   UNL     1      -4.903  12.243  16.257  0.00  0.00    +0.000 HD
BRANCH   6  21
ATOM     20  C   UNL     1      -2.342  14.703  22.734  0.00  0.00    +0.000 C 
ATOM     21  C   UNL     1      -2.669  13.238  22.483  0.00  0.00    +0.000 C 
ENDBRANCH   6  21
ENDBRANCH   1  16
BRANCH   4  22
ATOM     22  O   UNL     1       1.899   8.797  22.151  0.00  0.00    +0.000 OA
ATOM     23  H   UNL     1       1.807   9.754  22.323  0.00  0.00    +0.000 HD
ENDBRANCH   4  22
BRANCH   5  24
ATOM     24  O   UNL     1      -0.703   9.085  22.369  0.00  0.00    +0.000 OA
ATOM     25  H   UNL     1      -1.075   8.185  22.483  0.00  0.00    +0.000 HD
ENDBRANCH   5  24
BRANCH   3  26
ATOM     26  C   UNL     1       1.451   8.407  18.423  0.00  0.00    +0.000 C 
BRANCH  26  27
ATOM     27  O   UNL     1       2.622   7.836  17.844  0.00  0.00    +0.000 OA
BRANCH  27  28
ATOM     28  P   UNL     1       3.297   6.484  18.685  0.00  0.00    +0.000 P 
ATOM     29  O   UNL     1       2.269   5.519  18.080  0.00  0.00    +0.000 OA
BRANCH  28  30
ATOM     30  O   UNL     1       4.602   6.514  17.703  0.00  0.00    +0.000 OA
ATOM     31  H   UNL     1       5.067   7.367  17.730  0.00  0.00    +0.000 HD
ENDBRANCH  28  30
BRANCH  28  32
ATOM     32  O   UNL     1       3.973   5.132  19.527  0.00  0.00    +0.000 OA
BRANCH  32  33
ATOM     33  P   UNL     1       5.423   4.625  18.733  0.00  0.00    +0.000 P 
ATOM     34  O   UNL     1       6.304   5.284  19.792  0.00  0.00    +0.000 OA
BRANCH  33  35
ATOM     35  O   UNL     1       5.310   3.054  19.184  0.00  0.00    +0.000 OA
ATOM     36  H   UNL     1       4.419   2.917  19.566  0.00  0.00    +0.000 HD
ENDBRANCH  33  35
BRANCH  33  37
ATOM     37  O   UNL     1       6.875   4.117  17.939  0.00  0.00    +0.000 OA
ATOM     38  H   UNL     1       7.566   4.633  18.406  0.00  0.00    +0.000 HD
ENDBRANCH  33  37
ENDBRANCH  32  33
ENDBRANCH  28  32
ENDBRANCH  27  28
ENDBRANCH  26  27
ENDBRANCH   3  26
TORSDOF 12
ENDMDL
MODEL 4
REMARK VINA RESULT:      -6.4      6.991      9.507
REMARK  Name = 
REMARK  13 active torsions:
REMARK  status: ('A' for Active; 'I' for Inactive)
REMARK    1  A    between atoms: C_1  and  C_2
REMARK    2  A    between atoms: C_2  and  N_3
REMARK    3  A    between atoms: N_13  and  C_14
REMARK    4  A    between atoms: C_16  and  C_17
REMARK    5  A    between atoms: C_17  and  O_18
REMARK    6  A    between atoms: O_18  and  P_19
REMARK    7  A    between atoms: P_19  and  O_21
REMARK    8  A    between atoms: P_19  and  O_22
REMARK    9  A    between atoms: O_22  and  P_23
REMARK   10  A    between atoms: P_23  and  O_25
REMARK   11  A    between atoms: P_23  and  O_26
REMARK   12  A    between atoms: C_27  and  O_28
REMARK   13  A    between atoms: C_29  and  O_30
REMARK                            x       y       z     vdW  Elec       q    Type
REMARK                         _______ _______ _______ _____ _____    ______ ____
ROOT
ATOM      1  C   UNL     1       0.098  10.619  20.729  0.00  0.00    +0.000 C 
ATOM      2  O   UNL     1       1.307  10.616  19.941  0.00  0.00    +0.000 OA
ATOM      3  C   UNL     1       1.887   9.291  19.958  0.00  0.00    +0.000 C 
ATOM      4  C   UNL     1       1.228   8.579  21.136  0.00  0.00    +0.000 C 
ATOM      5  C   UNL     1      -0.171   9.174  21.157  0.00  0.00    +0.000 C 
ENDROOT
BRANCH   1  16
ATOM      6  N   UNL     1      -1.664  12.675  21.805  0.00  0.00    +0.000 N 
ATOM      7  C   UNL     1      -1.876  12.165  20.569  0.00  0.00    +0.000 A 
ATOM      8  N   UNL     1      -2.868  12.445  19.750  0.00  0.00    +0.000 NA
ATOM      9  C   UNL     1      -2.686  11.622  18.661  0.00  0.00    +0.000 A 
ATOM     10  C   UNL     1      -3.430  11.424  17.484  0.00  0.00    +0.000 A 
ATOM     11  N   UNL     1      -4.609  12.104  17.199  0.00  0.00    +0.000 N 
ATOM     12  N   UNL     1      -2.984  10.529  16.574  0.00  0.00    +0.000 NA
ATOM     13  C   UNL     1      -1.854   9.846  16.854  0.00  0.00    +0.000 A 
ATOM     14  N   UNL     1      -1.077   9.947  17.947  0.00  0.00    +0.000 NA
ATOM     15  C   UNL     1      -1.544  10.853  18.811  0.00  0.00    +0.000 A 
ATOM     16  N   UNL     1      -1.032  11.206  20.028  0.00  0.00    +0.000 N 
ATOM     17  H   UNL     1      -1.111  12.121  22.461  0.00  0.00    +0.000 HD
ATOM     18  H   UNL     1      -4.682  12.984  17.696  0.00  0.00    +0.000 HD
ATOM     19  H   UNL     1      -4.795  12.108  16.205  0.00  0.00    +0.000 HD
BRANCH   6  21
ATOM     20  C   UNL     1      -3.307  12.363  23.570  0.00  0.00    +0.000 C 
ATOM     21  C   UNL     1      -2.800  13.295  22.478  0.00  0.00    +0.000 C 
ENDBRANCH   6  21
ENDBRANCH   1  16
BRANCH   4  22
ATOM     22  O   UNL     1       1.863   8.912  22.385  0.00  0.00    +0.000 OA
ATOM     23  H   UNL     1       2.235   8.097  22.773  0.00  0.00    +0.000 HD
ENDBRANCH   4  22
BRANCH   5  24
ATOM     24  O   UNL     1      -0.756   9.091  22.462  0.00  0.00    +0.000 OA
ATOM     25  H   UNL     1      -1.394   9.835  22.516  0.00  0.00    +0.000 HD
ENDBRANCH   5  24
BRANCH   3  26
ATOM     26  C   UNL     1       1.637   8.560  18.633  0.00  0.00    +0.000 C 
BRANCH  26  27
ATOM     27  O   UNL     1       2.774   7.775  18.277  0.00  0.00    +0.000 OA
BRANCH  27  28
ATOM     28  P   UNL     1       2.580   6.062  18.415  0.00  0.00    +0.000 P 
ATOM     29  O   UNL     1       3.680   5.796  17.379  0.00  0.00    +0.000 OA
BRANCH  28  30
ATOM     30  O   UNL     1       3.274   6.093  19.892  0.00  0.00    +0.000 OA
ATOM     31  H   UNL     1       2.667   5.801  20.594  0.00  0.00    +0.000 HD
ENDBRANCH  28  30
BRANCH  28  32
ATOM     32  O   UNL     1       2.386   4.349  18.552  0.00  0.00    +0.000 OA
BRANCH  32  33
ATOM     33  P   UNL     1       3.895   3.631  18.998  0.00  0.00    +0.000 P 
ATOM     34  O   UNL     1       3.256   2.858  20.149  0.00  0.00    +0.000 OA
BRANCH  33  35
ATOM     35  O   UNL     1       3.946   2.577  17.746  0.00  0.00    +0.000 OA
ATOM     36  H   UNL     1       3.742   3.075  16.927  0.00  0.00    +0.000 HD
ENDBRANCH  33  35
BRANCH  33  37
ATOM     37  O   UNL     1       5.405   2.913  19.444  0.00  0.00    +0.000 OA
ATOM     38  H   UNL     1       5.981   3.695  19.582  0.00  0.00    +0.000 HD
ENDBRANCH  33  37
ENDBRANCH  32  33
ENDBRANCH  28  32
ENDBRANCH  27  28
ENDBRANCH  26  27
ENDBRANCH   3  26
TORSDOF 12
ENDMDL
MODEL 5
REMARK VINA RESULT:      -6.4      4.375      7.193
REMARK  Name = 
REMARK  13 active torsions:
REMARK  status: ('A' for Active; 'I' for Inactive)
REMARK    1  A    between atoms: C_1  and  C_2
REMARK    2  A    between atoms: C_2  and  N_3
REMARK    3  A    between atoms: N_13  and  C_14
REMARK    4  A    between atoms: C_16  and  C_17
REMARK    5  A    between atoms: C_17  and  O_18
REMARK    6  A    between atoms: O_18  and  P_19
REMARK    7  A    between atoms: P_19  and  O_21
REMARK    8  A    between atoms: P_19  and  O_22
REMARK    9  A    between atoms: O_22  and  P_23
REMARK   10  A    between atoms: P_23  and  O_25
REMARK   11  A    between atoms: P_23  and  O_26
REMARK   12  A    between atoms: C_27  and  O_28
REMARK   13  A    between atoms: C_29  and  O_30
REMARK                            x       y       z     vdW  Elec       q    Type
REMARK                         _______ _______ _______ _____ _____    ______ ____
ROOT
ATOM      1  C   UNL     1       5.550   6.202  18.465  0.00  0.00    +0.000 C 
ATOM      2  O   UNL     1       5.894   6.734  17.168  0.00  0.00    +0.000 OA
ATOM      3  C   UNL     1       7.225   6.297  16.809  0.00  0.00    +0.000 C 
ATOM      4  C   UNL     1       7.862   5.833  18.116  0.00  0.00    +0.000 C 
ATOM      5  C   UNL     1       6.682   5.263  18.888  0.00  0.00    +0.000 C 
ENDROOT
BRANCH   1  16
ATOM      6  N   UNL     1       3.008   7.479  17.838  0.00  0.00    +0.000 N 
ATOM      7  C   UNL     1       3.051   6.177  18.205  0.00  0.00    +0.000 A 
ATOM      8  N   UNL     1       2.031   5.365  18.386  0.00  0.00    +0.000 NA
ATOM      9  C   UNL     1       2.580   4.181  18.825  0.00  0.00    +0.000 A 
ATOM     10  C   UNL     1       2.010   2.959  19.223  0.00  0.00    +0.000 A 
ATOM     11  N   UNL     1       0.639   2.723  19.244  0.00  0.00    +0.000 N 
ATOM     12  N   UNL     1       2.827   1.952  19.605  0.00  0.00    +0.000 NA
ATOM     13  C   UNL     1       4.157   2.180  19.611  0.00  0.00    +0.000 A 
ATOM     14  N   UNL     1       4.805   3.308  19.265  0.00  0.00    +0.000 NA
ATOM     15  C   UNL     1       3.960   4.269  18.878  0.00  0.00    +0.000 A 
ATOM     16  N   UNL     1       4.254   5.543  18.480  0.00  0.00    +0.000 N 
ATOM     17  H   UNL     1       3.796   8.074  18.097  0.00  0.00    +0.000 HD
ATOM     18  H   UNL     1       0.128   3.334  18.618  0.00  0.00    +0.000 HD
ATOM     19  H   UNL     1       0.440   1.732  19.202  0.00  0.00    +0.000 HD
BRANCH   6  21
ATOM     20  C   UNL     1       1.980   9.683  17.880  0.00  0.00    +0.000 C 
ATOM     21  C   UNL     1       1.744   8.186  18.021  0.00  0.00    +0.000 C 
ENDBRANCH   6  21
ENDBRANCH   1  16
BRANCH   4  22
ATOM     22  O   UNL     1       8.389   6.938  18.875  0.00  0.00    +0.000 OA
ATOM     23  H   UNL     1       7.718   7.216  19.528  0.00  0.00    +0.000 HD
ENDBRANCH   4  22
BRANCH   5  24
ATOM     24  O   UNL     1       6.918   5.294  20.300  0.00  0.00    +0.000 OA
ATOM     25  H   UNL     1       7.108   6.231  20.519  0.00  0.00    +0.000 HD
ENDBRANCH   5  24
BRANCH   3  26
ATOM     26  C   UNL     1       7.179   5.177  15.763  0.00  0.00    +0.000 C 
BRANCH  26  27
ATOM     27  O   UNL     1       6.140   5.424  14.817  0.00  0.00    +0.000 OA
BRANCH  27  28
ATOM     28  P   UNL     1       6.362   4.721  13.253  0.00  0.00    +0.000 P 
ATOM     29  O   UNL     1       7.804   5.237  13.161  0.00  0.00    +0.000 OA
BRANCH  28  30
ATOM     30  O   UNL     1       6.400   3.230  13.918  0.00  0.00    +0.000 OA
ATOM     31  H   UNL     1       5.632   3.059  14.489  0.00  0.00    +0.000 HD
ENDBRANCH  28  30
BRANCH  28  32
ATOM     32  O   UNL     1       6.584   4.018  11.688  0.00  0.00    +0.000 OA
BRANCH  32  33
ATOM     33  P   UNL     1       6.311   2.313  11.777  0.00  0.00    +0.000 P 
ATOM     34  O   UNL     1       4.958   2.432  11.080  0.00  0.00    +0.000 OA
BRANCH  33  35
ATOM     35  O   UNL     1       7.372   1.920  10.593  0.00  0.00    +0.000 OA
ATOM     36  H   UNL     1       6.891   1.948   9.740  0.00  0.00    +0.000 HD
ENDBRANCH  33  35
BRANCH  33  37
ATOM     37  O   UNL     1       6.038   0.606  11.867  0.00  0.00    +0.000 OA
ATOM     38  H   UNL     1       5.159   0.552  12.298  0.00  0.00    +0.000 HD
ENDBRANCH  33  37
ENDBRANCH  32  33
ENDBRANCH  28  32
ENDBRANCH  27  28
ENDBRANCH  26  27
ENDBRANCH   3  26
TORSDOF 12
ENDMDL
MODEL 6
REMARK VINA RESULT:      -6.4      7.245      9.751
REMARK  Name = 
REMARK  13 active torsions:
REMARK  status: ('A' for Active; 'I' for Inactive)
REMARK    1  A    between atoms: C_1  and  C_2
REMARK    2  A    between atoms: C_2  and  N_3
REMARK    3  A    between atoms: N_13  and  C_14
REMARK    4  A    between atoms: C_16  and  C_17
REMARK    5  A    between atoms: C_17  and  O_18
REMARK    6  A    between atoms: O_18  and  P_19
REMARK    7  A    between atoms: P_19  and  O_21
REMARK    8  A    between atoms: P_19  and  O_22
REMARK    9  A    between atoms: O_22  and  P_23
REMARK   10  A    between atoms: P_23  and  O_25
REMARK   11  A    between atoms: P_23  and  O_26
REMARK   12  A    between atoms: C_27  and  O_28
REMARK   13  A    between atoms: C_29  and  O_30
REMARK                            x       y       z     vdW  Elec       q    Type
REMARK                         _______ _______ _______ _____ _____    ______ ____
ROOT
ATOM      1  C   UNL     1      -0.102  10.945  21.382  0.00  0.00    +0.000 C 
ATOM      2  O   UNL     1       1.145  10.708  20.695  0.00  0.00    +0.000 OA
ATOM      3  C   UNL     1       1.629   9.385  21.026  0.00  0.00    +0.000 C 
ATOM      4  C   UNL     1       0.860   8.978  22.280  0.00  0.00    +0.000 C 
ATOM      5  C   UNL     1      -0.493   9.641  22.081  0.00  0.00    +0.000 C 
ENDROOT
BRANCH   1  16
ATOM      6  N   UNL     1      -2.170  12.859  22.124  0.00  0.00    +0.000 N 
ATOM      7  C   UNL     1      -2.141  12.324  20.881  0.00  0.00    +0.000 A 
ATOM      8  N   UNL     1      -3.010  12.516  19.910  0.00  0.00    +0.000 NA
ATOM      9  C   UNL     1      -2.593  11.702  18.881  0.00  0.00    +0.000 A 
ATOM     10  C   UNL     1      -3.122  11.436  17.605  0.00  0.00    +0.000 A 
ATOM     11  N   UNL     1      -4.292  12.015  17.124  0.00  0.00    +0.000 N 
ATOM     12  N   UNL     1      -2.468  10.573  16.795  0.00  0.00    +0.000 NA
ATOM     13  C   UNL     1      -1.346   9.987  17.264  0.00  0.00    +0.000 A 
ATOM     14  N   UNL     1      -0.763  10.159  18.464  0.00  0.00    +0.000 NA
ATOM     15  C   UNL     1      -1.432  11.031  19.224  0.00  0.00    +0.000 A 
ATOM     16  N   UNL     1      -1.149  11.433  20.500  0.00  0.00    +0.000 N 
ATOM     17  H   UNL     1      -1.686  12.357  22.870  0.00  0.00    +0.000 HD
ATOM     18  H   UNL     1      -4.512  12.890  17.585  0.00  0.00    +0.000 HD
ATOM     19  H   UNL     1      -4.317  11.996  16.113  0.00  0.00    +0.000 HD
BRANCH   6  21
ATOM     20  C   UNL     1      -3.199  14.294  23.796  0.00  0.00    +0.000 C 
ATOM     21  C   UNL     1      -3.444  13.389  22.597  0.00  0.00    +0.000 C 
ENDBRANCH   6  21
ENDBRANCH   1  16
BRANCH   4  22
ATOM     22  O   UNL     1       1.449   9.531  23.471  0.00  0.00    +0.000 OA
ATOM     23  H   UNL     1       1.272  10.492  23.489  0.00  0.00    +0.000 HD
ENDBRANCH   4  22
BRANCH   5  24
ATOM     24  O   UNL     1      -1.152   9.870  23.333  0.00  0.00    +0.000 OA
ATOM     25  H   UNL     1      -0.644  10.583  23.775  0.00  0.00    +0.000 HD
ENDBRANCH   5  24
BRANCH   3  26
ATOM     26  C   UNL     1       1.402   8.406  19.869  0.00  0.00    +0.000 C 
BRANCH  26  27
ATOM     27  O   UNL     1       1.737   7.078  20.268  0.00  0.00    +0.000 OA
BRANCH  27  28
ATOM     28  P   UNL     1       2.541   6.112  19.080  0.00  0.00    +0.000 P 
ATOM     29  O   UNL     1       2.959   7.348  18.273  0.00  0.00    +0.000 OA
BRANCH  28  30
ATOM     30  O   UNL     1       3.732   5.778  20.146  0.00  0.00    +0.000 OA
ATOM     31  H   UNL     1       4.600   6.094  19.843  0.00  0.00    +0.000 HD
ENDBRANCH  28  30
BRANCH  28  32
ATOM     32  O   UNL     1       3.345   5.146  17.891  0.00  0.00    +0.000 OA
BRANCH  32  33
ATOM     33  P   UNL     1       4.236   3.890  18.677  0.00  0.00    +0.000 P 
ATOM     34  O   UNL     1       2.960   3.193  19.142  0.00  0.00    +0.000 OA
BRANCH  33  35
ATOM     35  O   UNL     1       4.671   3.118  17.299  0.00  0.00    +0.000 OA
ATOM     36  H   UNL     1       4.374   2.187  17.371  0.00  0.00    +0.000 HD
ENDBRANCH  33  35
BRANCH  33  37
ATOM     37  O   UNL     1       5.129   2.632  19.463  0.00  0.00    +0.000 OA
ATOM     38  H   UNL     1       4.434   1.970  19.665  0.00  0.00    +0.000 HD
ENDBRANCH  33  37
ENDBRANCH  32  33
ENDBRANCH  28  32
ENDBRANCH  27  28
ENDBRANCH  26  27
ENDBRANCH   3  26
TORSDOF 12
ENDMDL
MODEL 7
REMARK VINA RESULT:      -6.4      7.271      9.719
REMARK  Name = 
REMARK  13 active torsions:
REMARK  status: ('A' for Active; 'I' for Inactive)
REMARK    1  A    between atoms: C_1  and  C_2
REMARK    2  A    between atoms: C_2  and  N_3
REMARK    3  A    between atoms: N_13  and  C_14
REMARK    4  A    between atoms: C_16  and  C_17
REMARK    5  A    between atoms: C_17  and  O_18
REMARK    6  A    between atoms: O_18  and  P_19
REMARK    7  A    between atoms: P_19  and  O_21
REMARK    8  A    between atoms: P_19  and  O_22
REMARK    9  A    between atoms: O_22  and  P_23
REMARK   10  A    between atoms: P_23  and  O_25
REMARK   11  A    between atoms: P_23  and  O_26
REMARK   12  A    between atoms: C_27  and  O_28
REMARK   13  A    between atoms: C_29  and  O_30
REMARK                            x       y       z     vdW  Elec       q    Type
REMARK                         _______ _______ _______ _____ _____    ______ ____
ROOT
ATOM      1  C   UNL     1      -0.136  10.955  21.427  0.00  0.00    +0.000 C 
ATOM      2  O   UNL     1       1.112  10.704  20.747  0.00  0.00    +0.000 OA
ATOM      3  C   UNL     1       1.586   9.381  21.089  0.00  0.00    +0.000 C 
ATOM      4  C   UNL     1       0.808   8.987  22.342  0.00  0.00    +0.000 C 
ATOM      5  C   UNL     1      -0.540   9.658  22.133  0.00  0.00    +0.000 C 
ENDROOT
BRANCH   1  16
ATOM      6  N   UNL     1      -2.211  12.866  22.155  0.00  0.00    +0.000 N 
ATOM      7  C   UNL     1      -2.172  12.333  20.912  0.00  0.00    +0.000 A 
ATOM      8  N   UNL     1      -3.032  12.527  19.934  0.00  0.00    +0.000 NA
ATOM      9  C   UNL     1      -2.606  11.716  18.906  0.00  0.00    +0.000 A 
ATOM     10  C   UNL     1      -3.124  11.452  17.625  0.00  0.00    +0.000 A 
ATOM     11  N   UNL     1      -4.290  12.032  17.135  0.00  0.00    +0.000 N 
ATOM     12  N   UNL     1      -2.462  10.592  16.819  0.00  0.00    +0.000 NA
ATOM     13  C   UNL     1      -1.345  10.005  17.296  0.00  0.00    +0.000 A 
ATOM     14  N   UNL     1      -0.771  10.174  18.501  0.00  0.00    +0.000 NA
ATOM     15  C   UNL     1      -1.448  11.044  19.258  0.00  0.00    +0.000 A 
ATOM     16  N   UNL     1      -1.176  11.444  20.537  0.00  0.00    +0.000 N 
ATOM     17  H   UNL     1      -1.734  12.362  22.905  0.00  0.00    +0.000 HD
ATOM     18  H   UNL     1      -4.514  12.906  17.597  0.00  0.00    +0.000 HD
ATOM     19  H   UNL     1      -4.306  12.015  16.124  0.00  0.00    +0.000 HD
BRANCH   6  21
ATOM     20  C   UNL     1      -3.240  14.558  23.566  0.00  0.00    +0.000 C 
ATOM     21  C   UNL     1      -3.490  13.394  22.619  0.00  0.00    +0.000 C 
ENDBRANCH   6  21
ENDBRANCH   1  16
BRANCH   4  22
ATOM     22  O   UNL     1       1.396   9.544  23.533  0.00  0.00    +0.000 OA
ATOM     23  H   UNL     1       1.590  10.488  23.372  0.00  0.00    +0.000 HD
ENDBRANCH   4  22
BRANCH   5  24
ATOM     24  O   UNL     1      -1.202   9.899  23.380  0.00  0.00    +0.000 OA
ATOM     25  H   UNL     1      -0.698   9.393  24.052  0.00  0.00    +0.000 HD
ENDBRANCH   5  24
BRANCH   3  26
ATOM     26  C   UNL     1       1.357   8.395  19.937  0.00  0.00    +0.000 C 
BRANCH  26  27
ATOM     27  O   UNL     1       1.873   7.109  20.274  0.00  0.00    +0.000 OA
BRANCH  27  28
ATOM     28  P   UNL     1       2.554   6.203  18.967  0.00  0.00    +0.000 P 
ATOM     29  O   UNL     1       3.051   7.474  18.268  0.00  0.00    +0.000 OA
BRANCH  28  30
ATOM     30  O   UNL     1       3.744   5.667  19.949  0.00  0.00    +0.000 OA
ATOM     31  H   UNL     1       3.799   4.696  19.968  0.00  0.00    +0.000 HD
ENDBRANCH  28  30
BRANCH  28  32
ATOM     32  O   UNL     1       3.235   5.297  17.661  0.00  0.00    +0.000 OA
BRANCH  32  33
ATOM     33  P   UNL     1       2.592   3.691  17.676  0.00  0.00    +0.000 P 
ATOM     34  O   UNL     1       3.809   3.147  18.420  0.00  0.00    +0.000 OA
BRANCH  33  35
ATOM     35  O   UNL     1       1.471   3.979  18.835  0.00  0.00    +0.000 OA
ATOM     36  H   UNL     1       0.816   4.608  18.466  0.00  0.00    +0.000 HD
ENDBRANCH  33  35
BRANCH  33  37
ATOM     37  O   UNL     1       1.950   2.084  17.691  0.00  0.00    +0.000 OA
ATOM     38  H   UNL     1       2.415   1.675  18.451  0.00  0.00    +0.000 HD
ENDBRANCH  33  37
ENDBRANCH  32  33
ENDBRANCH  28  32
ENDBRANCH  27  28
ENDBRANCH  26  27
ENDBRANCH   3  26
TORSDOF 12
ENDMDL
MODEL 8
REMARK VINA RESULT:      -6.3      1.984      3.790
REMARK  Name = 
REMARK  13 active torsions:
REMARK  status: ('A' for Active; 'I' for Inactive)
REMARK    1  A    between atoms: C_1  and  C_2
REMARK    2  A    between atoms: C_2  and  N_3
REMARK    3  A    between atoms: N_13  and  C_14
REMARK    4  A    between atoms: C_16  and  C_17
REMARK    5  A    between atoms: C_17  and  O_18
REMARK    6  A    between atoms: O_18  and  P_19
REMARK    7  A    between atoms: P_19  and  O_21
REMARK    8  A    between atoms: P_19  and  O_22
REMARK    9  A    between atoms: O_22  and  P_23
REMARK   10  A    between atoms: P_23  and  O_25
REMARK   11  A    between atoms: P_23  and  O_26
REMARK   12  A    between atoms: C_27  and  O_28
REMARK   13  A    between atoms: C_29  and  O_30
REMARK                            x       y       z     vdW  Elec       q    Type
REMARK                         _______ _______ _______ _____ _____    ______ ____
ROOT
ATOM      1  C   UNL     1       4.497   3.816  17.484  0.00  0.00    +0.000 C 
ATOM      2  O   UNL     1       3.360   4.672  17.245  0.00  0.00    +0.000 OA
ATOM      3  C   UNL     1       2.811   5.106  18.511  0.00  0.00    +0.000 C 
ATOM      4  C   UNL     1       3.383   4.143  19.547  0.00  0.00    +0.000 C 
ATOM      5  C   UNL     1       4.762   3.821  18.992  0.00  0.00    +0.000 C 
ENDROOT
BRANCH   1  16
ATOM      6  N   UNL     1       6.894   5.051  18.590  0.00  0.00    +0.000 N 
ATOM      7  C   UNL     1       6.790   4.818  17.260  0.00  0.00    +0.000 A 
ATOM      8  N   UNL     1       7.655   5.146  16.323  0.00  0.00    +0.000 NA
ATOM      9  C   UNL     1       7.068   4.769  15.136  0.00  0.00    +0.000 A 
ATOM     10  C   UNL     1       7.473   4.890  13.795  0.00  0.00    +0.000 A 
ATOM     11  N   UNL     1       8.670   5.484  13.406  0.00  0.00    +0.000 N 
ATOM     12  N   UNL     1       6.666   4.407  12.824  0.00  0.00    +0.000 NA
ATOM     13  C   UNL     1       5.492   3.853  13.191  0.00  0.00    +0.000 A 
ATOM     14  N   UNL     1       5.003   3.698  14.434  0.00  0.00    +0.000 NA
ATOM     15  C   UNL     1       5.839   4.173  15.362  0.00  0.00    +0.000 A 
ATOM     16  N   UNL     1       5.669   4.206  16.718  0.00  0.00    +0.000 N 
ATOM     17  H   UNL     1       6.031   5.098  19.134  0.00  0.00    +0.000 HD
ATOM     18  H   UNL     1       9.367   5.475  14.141  0.00  0.00    +0.000 HD
ATOM     19  H   UNL     1       8.950   5.168  12.487  0.00  0.00    +0.000 HD
BRANCH   6  21
ATOM     20  C   UNL     1       7.676   7.307  18.134  0.00  0.00    +0.000 C 
ATOM     21  C   UNL     1       7.835   6.079  19.019  0.00  0.00    +0.000 C 
ENDBRANCH   6  21
ENDBRANCH   1  16
BRANCH   4  22
ATOM     22  O   UNL     1       2.636   2.913  19.604  0.00  0.00    +0.000 OA
ATOM     23  H   UNL     1       2.774   2.504  20.480  0.00  0.00    +0.000 HD
ENDBRANCH   4  22
BRANCH   5  24
ATOM     24  O   UNL     1       5.234   2.555  19.467  0.00  0.00    +0.000 OA
ATOM     25  H   UNL     1       4.885   2.465  20.379  0.00  0.00    +0.000 HD
ENDBRANCH   5  24
BRANCH   3  26
ATOM     26  C   UNL     1       3.189   6.562  18.810  0.00  0.00    +0.000 C 
BRANCH  26  27
ATOM     27  O   UNL     1       2.016   7.358  18.964  0.00  0.00    +0.000 OA
BRANCH  27  28
ATOM     28  P   UNL     1       1.818   8.118  20.505  0.00  0.00    +0.000 P 
ATOM     29  O   UNL     1       0.602   8.918  20.020  0.00  0.00    +0.000 OA
BRANCH  28  30
ATOM     30  O   UNL     1       1.279   6.713  21.139  0.00  0.00    +0.000 OA
ATOM     31  H   UNL     1       0.977   6.090  20.456  0.00  0.00    +0.000 HD
ENDBRANCH  28  30
BRANCH  28  32
ATOM     32  O   UNL     1       1.620   8.878  22.046  0.00  0.00    +0.000 OA
BRANCH  32  33
ATOM     33  P   UNL     1       0.247   9.929  21.999  0.00  0.00    +0.000 P 
ATOM     34  O   UNL     1       0.141   9.957  23.522  0.00  0.00    +0.000 OA
BRANCH  33  35
ATOM     35  O   UNL     1       1.090  11.275  21.600  0.00  0.00    +0.000 OA
ATOM     36  H   UNL     1       0.778  12.004  22.176  0.00  0.00    +0.000 HD
ENDBRANCH  33  35
BRANCH  33  37
ATOM     37  O   UNL     1      -1.128  10.980  21.951  0.00  0.00    +0.000 OA
ATOM     38  H   UNL     1      -1.722  10.527  21.317  0.00  0.00    +0.000 HD
ENDBRANCH  33  37
ENDBRANCH  32  33
ENDBRANCH  28  32
ENDBRANCH  27  28
ENDBRANCH  26  27
ENDBRANCH   3  26
TORSDOF 12
ENDMDL
MODEL 9
REMARK VINA RESULT:      -6.3      6.983      9.479
REMARK  Name = 
REMARK  13 active torsions:
REMARK  status: ('A' for Active; 'I' for Inactive)
REMARK    1  A    between atoms: C_1  and  C_2
REMARK    2  A    between atoms: C_2  and  N_3
REMARK    3  A    between atoms: N_13  and  C_14
REMARK    4  A    between atoms: C_16  and  C_17
REMARK    5  A    between atoms: C_17  and  O_18
REMARK    6  A    between atoms: O_18  and  P_19
REMARK    7  A    between atoms: P_19  and  O_21
REMARK    8  A    between atoms: P_19  and  O_22
REMARK    9  A    between atoms: O_22  and  P_23
REMARK   10  A    between atoms: P_23  and  O_25
REMARK   11  A    between atoms: P_23  and  O_26
REMARK   12  A    between atoms: C_27  and  O_28
REMARK   13  A    between atoms: C_29  and  O_30
REMARK                            x       y       z     vdW  Elec       q    Type
REMARK                         _______ _______ _______ _____ _____    ______ ____
ROOT
ATOM      1  C   UNL     1       0.113  10.585  20.735  0.00  0.00    +0.000 C 
ATOM      2  O   UNL     1       1.325  10.577  19.951  0.00  0.00    +0.000 OA
ATOM      3  C   UNL     1       1.894   9.247  19.962  0.00  0.00    +0.000 C 
ATOM      4  C   UNL     1       1.225   8.534  21.134  0.00  0.00    +0.000 C 
ATOM      5  C   UNL     1      -0.169   9.140  21.154  0.00  0.00    +0.000 C 
ENDROOT
BRANCH   1  16
ATOM      6  N   UNL     1      -1.636  12.649  21.816  0.00  0.00    +0.000 N 
ATOM      7  C   UNL     1      -1.848  12.147  20.577  0.00  0.00    +0.000 A 
ATOM      8  N   UNL     1      -2.836  12.439  19.756  0.00  0.00    +0.000 NA
ATOM      9  C   UNL     1      -2.657  11.620  18.663  0.00  0.00    +0.000 A 
ATOM     10  C   UNL     1      -3.398  11.434  17.483  0.00  0.00    +0.000 A 
ATOM     11  N   UNL     1      -4.572  12.125  17.198  0.00  0.00    +0.000 N 
ATOM     12  N   UNL     1      -2.957  10.541  16.569  0.00  0.00    +0.000 NA
ATOM     13  C   UNL     1      -1.833   9.848  16.850  0.00  0.00    +0.000 A 
ATOM     14  N   UNL     1      -1.058   9.936  17.946  0.00  0.00    +0.000 NA
ATOM     15  C   UNL     1      -1.521  10.842  18.813  0.00  0.00    +0.000 A 
ATOM     16  N   UNL     1      -1.010  11.184  20.033  0.00  0.00    +0.000 N 
ATOM     17  H   UNL     1      -1.090  12.088  22.471  0.00  0.00    +0.000 HD
ATOM     18  H   UNL     1      -4.639  13.003  17.699  0.00  0.00    +0.000 HD
ATOM     19  H   UNL     1      -4.755  12.135  16.203  0.00  0.00    +0.000 HD
BRANCH   6  21
ATOM     20  C   UNL     1      -3.296  12.335  23.564  0.00  0.00    +0.000 C 
ATOM     21  C   UNL     1      -2.770  13.274  22.489  0.00  0.00    +0.000 C 
ENDBRANCH   6  21
ENDBRANCH   1  16
BRANCH   4  22
ATOM     22  O   UNL     1       1.860   8.856  22.387  0.00  0.00    +0.000 OA
ATOM     23  H   UNL     1       2.394   8.089  22.671  0.00  0.00    +0.000 HD
ENDBRANCH   4  22
BRANCH   5  24
ATOM     24  O   UNL     1      -0.758   9.054  22.457  0.00  0.00    +0.000 OA
ATOM     25  H   UNL     1      -0.093   8.605  23.021  0.00  0.00    +0.000 HD
ENDBRANCH   5  24
BRANCH   3  26
ATOM     26  C   UNL     1       1.643   8.525  18.632  0.00  0.00    +0.000 C 
BRANCH  26  27
ATOM     27  O   UNL     1       1.680   7.112  18.820  0.00  0.00    +0.000 OA
BRANCH  27  28
ATOM     28  P   UNL     1       3.106   6.313  18.255  0.00  0.00    +0.000 P 
ATOM     29  O   UNL     1       3.546   5.962  19.683  0.00  0.00    +0.000 OA
BRANCH  28  30
ATOM     30  O   UNL     1       2.201   5.079  17.687  0.00  0.00    +0.000 OA
ATOM     31  H   UNL     1       2.189   4.318  18.292  0.00  0.00    +0.000 HD
ENDBRANCH  28  30
BRANCH  28  32
ATOM     32  O   UNL     1       4.533   5.514  17.691  0.00  0.00    +0.000 OA
BRANCH  32  33
ATOM     33  P   UNL     1       4.819   4.102  18.646  0.00  0.00    +0.000 P 
ATOM     34  O   UNL     1       4.274   3.181  17.557  0.00  0.00    +0.000 OA
BRANCH  33  35
ATOM     35  O   UNL     1       6.444   4.097  18.441  0.00  0.00    +0.000 OA
ATOM     36  H   UNL     1       6.796   3.286  18.863  0.00  0.00    +0.000 HD
ENDBRANCH  33  35
BRANCH  33  37
ATOM     37  O   UNL     1       5.106   2.687  19.602  0.00  0.00    +0.000 OA
ATOM     38  H   UNL     1       4.816   2.970  20.495  0.00  0.00    +0.000 HD
ENDBRANCH  33  37
ENDBRANCH  32  33
ENDBRANCH  28  32
ENDBRANCH  27  28
ENDBRANCH  26  27
ENDBRANCH   3  26
TORSDOF 12
ENDMDL
