MODEL 1
REMARK VINA RESULT:      -7.9      0.000      0.000
REMARK  Name = 
REMARK  7 active torsions:
REMARK  status: ('A' for Active; 'I' for Inactive)
REMARK    1  A    between atoms: C_2  and  C_3
REMARK    2  A    between atoms: C_3  and  C_4
REMARK    3  A    between atoms: C_4  and  C_5
REMARK    4  A    between atoms: C_5  and  C_6
REMARK    5  A    between atoms: N_9  and  S_10
REMARK    6  A    between atoms: S_10  and  C_13
REMARK    7  A    between atoms: N_22  and  O_23
REMARK                            x       y       z     vdW  Elec       q    Type
REMARK                         _______ _______ _______ _____ _____    ______ ____
ROOT
ATOM      1  C   UNL     1       2.784   5.766  18.582  0.00  0.00    +0.000 C 
ATOM      2  C   UNL     1       3.278   6.867  17.628  0.00  0.00    +0.000 C 
ATOM      3  C   UNL     1       4.633   6.543  17.000  0.00  0.00    +0.000 C 
ATOM      4  N   UNL     1       5.659   6.257  18.048  0.00  0.00    +0.000 NA
ATOM      5  C   UNL     1       5.222   5.200  19.014  0.00  0.00    +0.000 C 
ATOM      6  C   UNL     1       3.876   5.552  19.638  0.00  0.00    +0.000 C 
ENDROOT
BRANCH   4   7
ATOM      7  S   UNL     1       7.224   5.895  17.405  0.00  0.00    +0.000 S 
ATOM      8  O   UNL     1       7.863   7.140  17.041  0.00  0.00    +0.000 OA
ATOM      9  O   UNL     1       7.855   4.967  18.322  0.00  0.00    +0.000 OA
BRANCH   7  10
ATOM     10  C   UNL     1       6.876   5.037  15.890  0.00  0.00    +0.000 A 
ATOM     11  C   UNL     1       5.954   3.983  15.907  0.00  0.00    +0.000 A 
ATOM     12  C   UNL     1       5.615   3.348  14.711  0.00  0.00    +0.000 A 
ATOM     13  C   UNL     1       6.187   3.774  13.510  0.00  0.00    +0.000 A 
ATOM     14 CL   UNL     1       5.753   3.002  12.037  0.00  0.00    +0.000 Cl
ATOM     15  C   UNL     1       7.101   4.829  13.493  0.00  0.00    +0.000 A 
ATOM     16  C   UNL     1       7.447   5.465  14.689  0.00  0.00    +0.000 A 
ENDBRANCH   7  10
ENDBRANCH   4   7
BRANCH   1  17
ATOM     17  C   UNL     1       2.380   4.482  17.819  0.00  0.00    +0.000 C 
BRANCH  17  18
ATOM     18  C   UNL     1       1.115   3.815  18.372  0.00  0.00    +0.000 C 
BRANCH  18  19
ATOM     19  C   UNL     1       1.398   3.021  19.648  0.00  0.00    +0.000 C 
BRANCH  19  21
ATOM     20  O   UNL     1       3.619   2.316  20.353  0.00  0.00    +0.000 OA
ATOM     21  C   UNL     1       2.691   2.235  19.552  0.00  0.00    +0.000 C 
ATOM     22  N   UNL     1       2.746   1.407  18.457  0.00  0.00    +0.000 N 
ATOM     23  H   UNL     1       2.076   1.399  17.696  0.00  0.00    +0.000 HD
BRANCH  22  24
ATOM     24  O   UNL     1       3.950   0.695  18.265  0.00  0.00    +0.000 OA
ATOM     25  H   UNL     1       3.997   0.139  19.074  0.00  0.00    +0.000 HD
ENDBRANCH  22  24
ENDBRANCH  19  21
ENDBRANCH  18  19
ENDBRANCH  17  18
ENDBRANCH   1  17
TORSDOF 7
ENDMDL
MODEL 2
REMARK VINA RESULT:      -7.5      4.252      6.804
REMARK  Name = 
REMARK  7 active torsions:
REMARK  status: ('A' for Active; 'I' for Inactive)
REMARK    1  A    between atoms: C_2  and  C_3
REMARK    2  A    between atoms: C_3  and  C_4
REMARK    3  A    between atoms: C_4  and  C_5
REMARK    4  A    between atoms: C_5  and  C_6
REMARK    5  A    between atoms: N_9  and  S_10
REMARK    6  A    between atoms: S_10  and  C_13
REMARK    7  A    between atoms: N_22  and  O_23
REMARK                            x       y       z     vdW  Elec       q    Type
REMARK                         _______ _______ _______ _____ _____    ______ ____
ROOT
ATOM      1  C   UNL     1       7.036   5.653  16.541  0.00  0.00    +0.000 C 
ATOM      2  C   UNL     1       7.082   5.389  18.055  0.00  0.00    +0.000 C 
ATOM      3  C   UNL     1       5.735   4.939  18.619  0.00  0.00    +0.000 C 
ATOM      4  N   UNL     1       4.656   5.919  18.290  0.00  0.00    +0.000 NA
ATOM      5  C   UNL     1       4.578   6.223  16.826  0.00  0.00    +0.000 C 
ATOM      6  C   UNL     1       5.927   6.684  16.289  0.00  0.00    +0.000 C 
ENDROOT
BRANCH   4   7
ATOM      7  S   UNL     1       3.104   5.477  18.912  0.00  0.00    +0.000 S 
ATOM      8  O   UNL     1       2.380   4.781  17.872  0.00  0.00    +0.000 OA
ATOM      9  O   UNL     1       3.325   4.866  20.208  0.00  0.00    +0.000 OA
BRANCH   7  10
ATOM     10  C   UNL     1       2.282   7.031  19.157  0.00  0.00    +0.000 A 
ATOM     11  C   UNL     1       1.819   7.356  20.438  0.00  0.00    +0.000 A 
ATOM     12  C   UNL     1       1.237   8.605  20.662  0.00  0.00    +0.000 A 
ATOM     13  C   UNL     1       1.133   9.522  19.613  0.00  0.00    +0.000 A 
ATOM     14 CL   UNL     1       0.433  11.066  19.897  0.00  0.00    +0.000 Cl
ATOM     15  C   UNL     1       1.600   9.200  18.338  0.00  0.00    +0.000 A 
ATOM     16  C   UNL     1       2.179   7.948  18.108  0.00  0.00    +0.000 A 
ENDBRANCH   7  10
ENDBRANCH   4   7
BRANCH   1  17
ATOM     17  C   UNL     1       6.877   4.343  15.733  0.00  0.00    +0.000 C 
BRANCH  17  18
ATOM     18  C   UNL     1       6.766   4.567  14.220  0.00  0.00    +0.000 C 
BRANCH  18  19
ATOM     19  C   UNL     1       5.389   4.173  13.683  0.00  0.00    +0.000 C 
BRANCH  19  21
ATOM     20  O   UNL     1       4.604   3.204  11.592  0.00  0.00    +0.000 OA
ATOM     21  C   UNL     1       5.490   3.317  12.436  0.00  0.00    +0.000 C 
ATOM     22  N   UNL     1       6.687   2.652  12.326  0.00  0.00    +0.000 N 
ATOM     23  H   UNL     1       7.395   2.600  13.050  0.00  0.00    +0.000 HD
BRANCH  22  24
ATOM     24  O   UNL     1       6.826   1.781  11.223  0.00  0.00    +0.000 OA
ATOM     25  H   UNL     1       7.476   1.123  11.556  0.00  0.00    +0.000 HD
ENDBRANCH  22  24
ENDBRANCH  19  21
ENDBRANCH  18  19
ENDBRANCH  17  18
ENDBRANCH   1  17
TORSDOF 7
ENDMDL
MODEL 3
REMARK VINA RESULT:      -7.5      1.295      1.846
REMARK  Name = 
REMARK  7 active torsions:
REMARK  status: ('A' for Active; 'I' for Inactive)
REMARK    1  A    between atoms: C_2  and  C_3
REMARK    2  A    between atoms: C_3  and  C_4
REMARK    3  A    between atoms: C_4  and  C_5
REMARK    4  A    between atoms: C_5  and  C_6
REMARK    5  A    between atoms: N_9  and  S_10
REMARK    6  A    between atoms: S_10  and  C_13
REMARK    7  A    between atoms: N_22  and  O_23
REMARK                            x       y       z     vdW  Elec       q    Type
REMARK                         _______ _______ _______ _____ _____    ______ ____
ROOT
ATOM      1  C   UNL     1       2.803   5.919  18.628  0.00  0.00    +0.000 C 
ATOM      2  C   UNL     1       3.373   7.086  17.804  0.00  0.00    +0.000 C 
ATOM      3  C   UNL     1       4.681   6.731  17.100  0.00  0.00    +0.000 C 
ATOM      4  N   UNL     1       5.699   6.228  18.072  0.00  0.00    +0.000 NA
ATOM      5  C   UNL     1       5.190   5.099  18.911  0.00  0.00    +0.000 C 
ATOM      6  C   UNL     1       3.893   5.480  19.615  0.00  0.00    +0.000 C 
ENDROOT
BRANCH   4   7
ATOM      7  S   UNL     1       7.213   5.820  17.341  0.00  0.00    +0.000 S 
ATOM      8  O   UNL     1       7.895   7.047  16.996  0.00  0.00    +0.000 OA
ATOM      9  O   UNL     1       7.839   4.826  18.190  0.00  0.00    +0.000 OA
BRANCH   7  10
ATOM     10  C   UNL     1       6.754   5.043  15.812  0.00  0.00    +0.000 A 
ATOM     11  C   UNL     1       7.391   5.445  14.632  0.00  0.00    +0.000 A 
ATOM     12  C   UNL     1       7.095   4.792  13.434  0.00  0.00    +0.000 A 
ATOM     13  C   UNL     1       6.177   3.739  13.425  0.00  0.00    +0.000 A 
ATOM     14 CL   UNL     1       5.828   2.924  11.951  0.00  0.00    +0.000 Cl
ATOM     15  C   UNL     1       5.547   3.335  14.602  0.00  0.00    +0.000 A 
ATOM     16  C   UNL     1       5.837   3.988  15.803  0.00  0.00    +0.000 A 
ENDBRANCH   7  10
ENDBRANCH   4   7
BRANCH   1  17
ATOM     17  C   UNL     1       2.273   4.781  17.724  0.00  0.00    +0.000 C 
BRANCH  17  18
ATOM     18  C   UNL     1       3.099   3.492  17.817  0.00  0.00    +0.000 C 
BRANCH  18  19
ATOM     19  C   UNL     1       2.210   2.250  17.909  0.00  0.00    +0.000 C 
BRANCH  19  21
ATOM     20  O   UNL     1       0.003   2.260  18.935  0.00  0.00    +0.000 OA
ATOM     21  C   UNL     1       1.222   2.343  19.055  0.00  0.00    +0.000 C 
ATOM     22  N   UNL     1       1.821   2.544  20.275  0.00  0.00    +0.000 N 
ATOM     23  H   UNL     1       2.802   2.755  20.418  0.00  0.00    +0.000 HD
BRANCH  22  24
ATOM     24  O   UNL     1       0.958   2.710  21.381  0.00  0.00    +0.000 OA
ATOM     25  H   UNL     1       0.496   1.843  21.420  0.00  0.00    +0.000 HD
ENDBRANCH  22  24
ENDBRANCH  19  21
ENDBRANCH  18  19
ENDBRANCH  17  18
ENDBRANCH   1  17
TORSDOF 7
ENDMDL
MODEL 4
REMARK VINA RESULT:      -7.5      1.054      1.078
REMARK  Name = 
REMARK  7 active torsions:
REMARK  status: ('A' for Active; 'I' for Inactive)
REMARK    1  A    between atoms: C_2  and  C_3
REMARK    2  A    between atoms: C_3  and  C_4
REMARK    3  A    between atoms: C_4  and  C_5
REMARK    4  A    between atoms: C_5  and  C_6
REMARK    5  A    between atoms: N_9  and  S_10
REMARK    6  A    between atoms: S_10  and  C_13
REMARK    7  A    between atoms: N_22  and  O_23
REMARK                            x       y       z     vdW  Elec       q    Type
REMARK                         _______ _______ _______ _____ _____    ______ ____
ROOT
ATOM      1  C   UNL     1       2.758   6.011  18.571  0.00  0.00    +0.000 C 
ATOM      2  C   UNL     1       3.316   7.064  17.599  0.00  0.00    +0.000 C 
ATOM      3  C   UNL     1       4.647   6.647  16.975  0.00  0.00    +0.000 C 
ATOM      4  N   UNL     1       5.656   6.315  18.026  0.00  0.00    +0.000 NA
ATOM      5  C   UNL     1       5.157   5.303  19.009  0.00  0.00    +0.000 C 
ATOM      6  C   UNL     1       3.837   5.746  19.629  0.00  0.00    +0.000 C 
ENDROOT
BRANCH   4   7
ATOM      7  S   UNL     1       7.194   5.847  17.387  0.00  0.00    +0.000 S 
ATOM      8  O   UNL     1       7.915   7.045  17.019  0.00  0.00    +0.000 OA
ATOM      9  O   UNL     1       7.761   4.884  18.309  0.00  0.00    +0.000 OA
BRANCH   7  10
ATOM     10  C   UNL     1       6.792   5.007  15.875  0.00  0.00    +0.000 A 
ATOM     11  C   UNL     1       5.822   3.998  15.901  0.00  0.00    +0.000 A 
ATOM     12  C   UNL     1       5.442   3.380  14.708  0.00  0.00    +0.000 A 
ATOM     13  C   UNL     1       6.022   3.779  13.502  0.00  0.00    +0.000 A 
ATOM     14 CL   UNL     1       5.539   3.029  12.033  0.00  0.00    +0.000 Cl
ATOM     15  C   UNL     1       6.985   4.789  13.477  0.00  0.00    +0.000 A 
ATOM     16  C   UNL     1       7.372   5.409  14.669  0.00  0.00    +0.000 A 
ENDBRANCH   7  10
ENDBRANCH   4   7
BRANCH   1  17
ATOM     17  C   UNL     1       2.274   4.742  17.830  0.00  0.00    +0.000 C 
BRANCH  17  18
ATOM     18  C   UNL     1       2.803   3.438  18.439  0.00  0.00    +0.000 C 
BRANCH  18  19
ATOM     19  C   UNL     1       2.046   3.053  19.711  0.00  0.00    +0.000 C 
BRANCH  19  21
ATOM     20  O   UNL     1       2.703   2.513  21.992  0.00  0.00    +0.000 OA
ATOM     21  C   UNL     1       2.977   2.547  20.795  0.00  0.00    +0.000 C 
ATOM     22  N   UNL     1       4.193   2.125  20.316  0.00  0.00    +0.000 N 
ATOM     23  H   UNL     1       4.524   2.254  19.366  0.00  0.00    +0.000 HD
BRANCH  22  24
ATOM     24  O   UNL     1       5.138   1.704  21.276  0.00  0.00    +0.000 OA
ATOM     25  H   UNL     1       4.904   0.758  21.402  0.00  0.00    +0.000 HD
ENDBRANCH  22  24
ENDBRANCH  19  21
ENDBRANCH  18  19
ENDBRANCH  17  18
ENDBRANCH   1  17
TORSDOF 7
ENDMDL
MODEL 5
REMARK VINA RESULT:      -7.5      4.323      6.924
REMARK  Name = 
REMARK  7 active torsions:
REMARK  status: ('A' for Active; 'I' for Inactive)
REMARK    1  A    between atoms: C_2  and  C_3
REMARK    2  A    between atoms: C_3  and  C_4
REMARK    3  A    between atoms: C_4  and  C_5
REMARK    4  A    between atoms: C_5  and  C_6
REMARK    5  A    between atoms: N_9  and  S_10
REMARK    6  A    between atoms: S_10  and  C_13
REMARK    7  A    between atoms: N_22  and  O_23
REMARK                            x       y       z     vdW  Elec       q    Type
REMARK                         _______ _______ _______ _____ _____    ______ ____
ROOT
ATOM      1  C   UNL     1       6.675   5.264  16.659  0.00  0.00    +0.000 C 
ATOM      2  C   UNL     1       6.667   4.823  18.132  0.00  0.00    +0.000 C 
ATOM      3  C   UNL     1       5.257   4.591  18.673  0.00  0.00    +0.000 C 
ATOM      4  N   UNL     1       4.399   5.800  18.481  0.00  0.00    +0.000 NA
ATOM      5  C   UNL     1       4.384   6.280  17.064  0.00  0.00    +0.000 C 
ATOM      6  C   UNL     1       5.799   6.519  16.551  0.00  0.00    +0.000 C 
ENDROOT
BRANCH   4   7
ATOM      7  S   UNL     1       2.789   5.610  19.086  0.00  0.00    +0.000 S 
ATOM      8  O   UNL     1       1.999   4.949  18.071  0.00  0.00    +0.000 OA
ATOM      9  O   UNL     1       2.900   5.063  20.423  0.00  0.00    +0.000 OA
BRANCH   7  10
ATOM     10  C   UNL     1       2.179   7.272  19.208  0.00  0.00    +0.000 A 
ATOM     11  C   UNL     1       2.106   8.053  18.048  0.00  0.00    +0.000 A 
ATOM     12  C   UNL     1       1.559   9.335  18.116  0.00  0.00    +0.000 A 
ATOM     13  C   UNL     1       1.080   9.824  19.333  0.00  0.00    +0.000 A 
ATOM     14 CL   UNL     1       0.390  11.397  19.410  0.00  0.00    +0.000 Cl
ATOM     15  C   UNL     1       1.148   9.043  20.488  0.00  0.00    +0.000 A 
ATOM     16  C   UNL     1       1.698   7.760  20.427  0.00  0.00    +0.000 A 
ENDBRANCH   7  10
ENDBRANCH   4   7
BRANCH   1  17
ATOM     17  C   UNL     1       6.255   4.115  15.712  0.00  0.00    +0.000 C 
BRANCH  17  18
ATOM     18  C   UNL     1       5.716   4.602  14.361  0.00  0.00    +0.000 C 
BRANCH  18  19
ATOM     19  C   UNL     1       6.639   4.216  13.204  0.00  0.00    +0.000 C 
BRANCH  19  21
ATOM     20  O   UNL     1       4.812   3.188  11.968  0.00  0.00    +0.000 OA
ATOM     21  C   UNL     1       5.999   3.197  12.283  0.00  0.00    +0.000 C 
ATOM     22  N   UNL     1       6.881   2.250  11.821  0.00  0.00    +0.000 N 
ATOM     23  H   UNL     1       7.833   2.128  12.150  0.00  0.00    +0.000 HD
BRANCH  22  24
ATOM     24  O   UNL     1       6.341   1.227  11.011  0.00  0.00    +0.000 OA
ATOM     25  H   UNL     1       7.040   1.107  10.330  0.00  0.00    +0.000 HD
ENDBRANCH  22  24
ENDBRANCH  19  21
ENDBRANCH  18  19
ENDBRANCH  17  18
ENDBRANCH   1  17
TORSDOF 7
ENDMDL
MODEL 6
REMARK VINA RESULT:      -7.4      3.890      7.311
REMARK  Name = 
REMARK  7 active torsions:
REMARK  status: ('A' for Active; 'I' for Inactive)
REMARK    1  A    between atoms: C_2  and  C_3
REMARK    2  A    between atoms: C_3  and  C_4
REMARK    3  A    between atoms: C_4  and  C_5
REMARK    4  A    between atoms: C_5  and  C_6
REMARK    5  A    between atoms: N_9  and  S_10
REMARK    6  A    between atoms: S_10  and  C_13
REMARK    7  A    between atoms: N_22  and  O_23
REMARK                            x       y       z     vdW  Elec       q    Type
REMARK                         _______ _______ _______ _____ _____    ______ ____
ROOT
ATOM      1  C   UNL     1       7.275   5.796  16.815  0.00  0.00    +0.000 C 
ATOM      2  C   UNL     1       6.368   5.302  15.675  0.00  0.00    +0.000 C 
ATOM      3  C   UNL     1       4.954   4.965  16.148  0.00  0.00    +0.000 C 
ATOM      4  N   UNL     1       4.980   3.974  17.265  0.00  0.00    +0.000 NA
ATOM      5  C   UNL     1       5.862   4.400  18.397  0.00  0.00    +0.000 C 
ATOM      6  C   UNL     1       7.270   4.717  17.906  0.00  0.00    +0.000 C 
ENDROOT
BRANCH   4   7
ATOM      7  S   UNL     1       3.408   3.536  17.840  0.00  0.00    +0.000 S 
ATOM      8  O   UNL     1       2.525   3.422  16.701  0.00  0.00    +0.000 OA
ATOM      9  O   UNL     1       3.586   2.433  18.763  0.00  0.00    +0.000 OA
BRANCH   7  10
ATOM     10  C   UNL     1       2.877   4.957  18.760  0.00  0.00    +0.000 A 
ATOM     11  C   UNL     1       2.896   6.211  18.138  0.00  0.00    +0.000 A 
ATOM     12  C   UNL     1       2.412   7.327  18.823  0.00  0.00    +0.000 A 
ATOM     13  C   UNL     1       1.903   7.182  20.116  0.00  0.00    +0.000 A 
ATOM     14 CL   UNL     1       1.290   8.554  20.951  0.00  0.00    +0.000 Cl
ATOM     15  C   UNL     1       1.878   5.931  20.734  0.00  0.00    +0.000 A 
ATOM     16  C   UNL     1       2.366   4.811  20.053  0.00  0.00    +0.000 A 
ENDBRANCH   7  10
ENDBRANCH   4   7
BRANCH   1  17
ATOM     17  C   UNL     1       6.860   7.201  17.313  0.00  0.00    +0.000 C 
BRANCH  17  18
ATOM     18  C   UNL     1       7.983   7.947  18.044  0.00  0.00    +0.000 C 
BRANCH  18  19
ATOM     19  C   UNL     1       8.183   9.360  17.493  0.00  0.00    +0.000 C 
BRANCH  19  21
ATOM     20  O   UNL     1       9.244  11.414  18.257  0.00  0.00    +0.000 OA
ATOM     21  C   UNL     1       8.874  10.266  18.493  0.00  0.00    +0.000 C 
ATOM     22  N   UNL     1       9.066   9.678  19.719  0.00  0.00    +0.000 N 
ATOM     23  H   UNL     1       8.906   8.699  19.930  0.00  0.00    +0.000 HD
BRANCH  22  24
ATOM     24  O   UNL     1       9.767  10.439  20.681  0.00  0.00    +0.000 OA
ATOM     25  H   UNL     1       9.062  10.657  21.331  0.00  0.00    +0.000 HD
ENDBRANCH  22  24
ENDBRANCH  19  21
ENDBRANCH  18  19
ENDBRANCH  17  18
ENDBRANCH   1  17
TORSDOF 7
ENDMDL
MODEL 7
REMARK VINA RESULT:      -7.4      4.177      7.539
REMARK  Name = 
REMARK  7 active torsions:
REMARK  status: ('A' for Active; 'I' for Inactive)
REMARK    1  A    between atoms: C_2  and  C_3
REMARK    2  A    between atoms: C_3  and  C_4
REMARK    3  A    between atoms: C_4  and  C_5
REMARK    4  A    between atoms: C_5  and  C_6
REMARK    5  A    between atoms: N_9  and  S_10
REMARK    6  A    between atoms: S_10  and  C_13
REMARK    7  A    between atoms: N_22  and  O_23
REMARK                            x       y       z     vdW  Elec       q    Type
REMARK                         _______ _______ _______ _____ _____    ______ ____
ROOT
ATOM      1  C   UNL     1       7.650   6.508  17.669  0.00  0.00    +0.000 C 
ATOM      2  C   UNL     1       7.137   5.581  16.554  0.00  0.00    +0.000 C 
ATOM      3  C   UNL     1       5.675   5.178  16.744  0.00  0.00    +0.000 C 
ATOM      4  N   UNL     1       5.455   4.558  18.085  0.00  0.00    +0.000 NA
ATOM      5  C   UNL     1       5.951   5.415  19.208  0.00  0.00    +0.000 C 
ATOM      6  C   UNL     1       7.414   5.791  19.005  0.00  0.00    +0.000 C 
ENDROOT
BRANCH   4   7
ATOM      7  S   UNL     1       3.820   4.065  18.360  0.00  0.00    +0.000 S 
ATOM      8  O   UNL     1       3.207   3.792  17.080  0.00  0.00    +0.000 OA
ATOM      9  O   UNL     1       3.850   3.062  19.406  0.00  0.00    +0.000 OA
BRANCH   7  10
ATOM     10  C   UNL     1       3.036   5.522  19.003  0.00  0.00    +0.000 A 
ATOM     11  C   UNL     1       2.971   6.666  18.199  0.00  0.00    +0.000 A 
ATOM     12  C   UNL     1       2.292   7.794  18.662  0.00  0.00    +0.000 A 
ATOM     13  C   UNL     1       1.677   7.770  19.915  0.00  0.00    +0.000 A 
ATOM     14 CL   UNL     1       0.826   9.156  20.475  0.00  0.00    +0.000 Cl
ATOM     15  C   UNL     1       1.737   6.628  20.715  0.00  0.00    +0.000 A 
ATOM     16  C   UNL     1       2.419   5.497  20.257  0.00  0.00    +0.000 A 
ENDBRANCH   7  10
ENDBRANCH   4   7
BRANCH   1  17
ATOM     17  C   UNL     1       7.013   7.916  17.585  0.00  0.00    +0.000 C 
BRANCH  17  18
ATOM     18  C   UNL     1       8.033   9.056  17.701  0.00  0.00    +0.000 C 
BRANCH  18  19
ATOM     19  C   UNL     1       8.841   8.970  18.997  0.00  0.00    +0.000 C 
BRANCH  19  21
ATOM     20  O   UNL     1       9.820  11.162  18.592  0.00  0.00    +0.000 OA
ATOM     21  C   UNL     1       9.430  10.311  19.388  0.00  0.00    +0.000 C 
ATOM     22  N   UNL     1       9.501  10.499  20.747  0.00  0.00    +0.000 N 
ATOM     23  H   UNL     1       9.323   9.787  21.446  0.00  0.00    +0.000 HD
BRANCH  22  24
ATOM     24  O   UNL     1      10.103  11.699  21.187  0.00  0.00    +0.000 OA
ATOM     25  H   UNL     1      10.209  11.539  22.151  0.00  0.00    +0.000 HD
ENDBRANCH  22  24
ENDBRANCH  19  21
ENDBRANCH  18  19
ENDBRANCH  17  18
ENDBRANCH   1  17
TORSDOF 7
ENDMDL
MODEL 8
REMARK VINA RESULT:      -7.3      4.063      7.493
REMARK  Name = 
REMARK  7 active torsions:
REMARK  status: ('A' for Active; 'I' for Inactive)
REMARK    1  A    between atoms: C_2  and  C_3
REMARK    2  A    between atoms: C_3  and  C_4
REMARK    3  A    between atoms: C_4  and  C_5
REMARK    4  A    between atoms: C_5  and  C_6
REMARK    5  A    between atoms: N_9  and  S_10
REMARK    6  A    between atoms: S_10  and  C_13
REMARK    7  A    between atoms: N_22  and  O_23
REMARK                            x       y       z     vdW  Elec       q    Type
REMARK                         _______ _______ _______ _____ _____    ______ ____
ROOT
ATOM      1  C   UNL     1       7.614   6.008  17.959  0.00  0.00    +0.000 C 
ATOM      2  C   UNL     1       7.215   4.940  16.925  0.00  0.00    +0.000 C 
ATOM      3  C   UNL     1       5.723   4.611  16.961  0.00  0.00    +0.000 C 
ATOM      4  N   UNL     1       5.292   4.202  18.332  0.00  0.00    +0.000 NA
ATOM      5  C   UNL     1       5.670   5.202  19.380  0.00  0.00    +0.000 C 
ATOM      6  C   UNL     1       7.163   5.504  19.336  0.00  0.00    +0.000 C 
ENDROOT
BRANCH   4   7
ATOM      7  S   UNL     1       3.613   3.800  18.439  0.00  0.00    +0.000 S 
ATOM      8  O   UNL     1       3.131   3.508  17.108  0.00  0.00    +0.000 OA
ATOM      9  O   UNL     1       3.475   2.839  19.515  0.00  0.00    +0.000 OA
BRANCH   7  10
ATOM     10  C   UNL     1       2.841   5.318  18.942  0.00  0.00    +0.000 A 
ATOM     11  C   UNL     1       2.241   5.385  20.205  0.00  0.00    +0.000 A 
ATOM     12  C   UNL     1       1.696   6.593  20.644  0.00  0.00    +0.000 A 
ATOM     13  C   UNL     1       1.763   7.724  19.827  0.00  0.00    +0.000 A 
ATOM     14 CL   UNL     1       1.108   9.215  20.378  0.00  0.00    +0.000 Cl
ATOM     15  C   UNL     1       2.366   7.658  18.570  0.00  0.00    +0.000 A 
ATOM     16  C   UNL     1       2.910   6.450  18.125  0.00  0.00    +0.000 A 
ENDBRANCH   7  10
ENDBRANCH   4   7
BRANCH   1  17
ATOM     17  C   UNL     1       7.063   7.404  17.584  0.00  0.00    +0.000 C 
BRANCH  17  18
ATOM     18  C   UNL     1       8.157   8.466  17.407  0.00  0.00    +0.000 C 
BRANCH  18  19
ATOM     19  C   UNL     1       8.625   9.032  18.749  0.00  0.00    +0.000 C 
BRANCH  19  21
ATOM     20  O   UNL     1       8.635  11.284  17.823  0.00  0.00    +0.000 OA
ATOM     21  C   UNL     1       9.086  10.471  18.626  0.00  0.00    +0.000 C 
ATOM     22  N   UNL     1      10.087  10.800  19.509  0.00  0.00    +0.000 N 
ATOM     23  H   UNL     1      10.588  10.142  20.096  0.00  0.00    +0.000 HD
BRANCH  22  24
ATOM     24  O   UNL     1      10.615  12.106  19.406  0.00  0.00    +0.000 OA
ATOM     25  H   UNL     1      11.422  12.051  19.964  0.00  0.00    +0.000 HD
ENDBRANCH  22  24
ENDBRANCH  19  21
ENDBRANCH  18  19
ENDBRANCH  17  18
ENDBRANCH   1  17
TORSDOF 7
ENDMDL
MODEL 9
REMARK VINA RESULT:      -7.1      1.186      1.506
REMARK  Name = 
REMARK  7 active torsions:
REMARK  status: ('A' for Active; 'I' for Inactive)
REMARK    1  A    between atoms: C_2  and  C_3
REMARK    2  A    between atoms: C_3  and  C_4
REMARK    3  A    between atoms: C_4  and  C_5
REMARK    4  A    between atoms: C_5  and  C_6
REMARK    5  A    between atoms: N_9  and  S_10
REMARK    6  A    between atoms: S_10  and  C_13
REMARK    7  A    between atoms: N_22  and  O_23
REMARK                            x       y       z     vdW  Elec       q    Type
REMARK                         _______ _______ _______ _____ _____    ______ ____
ROOT
ATOM      1  C   UNL     1       2.311   6.246  18.391  0.00  0.00    +0.000 C 
ATOM      2  C   UNL     1       3.157   7.316  17.680  0.00  0.00    +0.000 C 
ATOM      3  C   UNL     1       4.522   6.793  17.234  0.00  0.00    +0.000 C 
ATOM      4  N   UNL     1       5.276   6.205  18.382  0.00  0.00    +0.000 NA
ATOM      5  C   UNL     1       4.491   5.165  19.119  0.00  0.00    +0.000 C 
ATOM      6  C   UNL     1       3.141   5.713  19.566  0.00  0.00    +0.000 C 
ENDROOT
BRANCH   4   7
ATOM      7  S   UNL     1       6.840   5.605  17.949  0.00  0.00    +0.000 S 
ATOM      8  O   UNL     1       7.730   6.732  17.791  0.00  0.00    +0.000 OA
ATOM      9  O   UNL     1       7.150   4.527  18.867  0.00  0.00    +0.000 OA
BRANCH   7  10
ATOM     10  C   UNL     1       6.599   4.912  16.332  0.00  0.00    +0.000 A 
ATOM     11  C   UNL     1       5.582   3.969  16.145  0.00  0.00    +0.000 A 
ATOM     12  C   UNL     1       5.332   3.471  14.865  0.00  0.00    +0.000 A 
ATOM     13  C   UNL     1       6.090   3.925  13.783  0.00  0.00    +0.000 A 
ATOM     14 CL   UNL     1       5.768   3.323  12.204  0.00  0.00    +0.000 Cl
ATOM     15  C   UNL     1       7.100   4.869  13.968  0.00  0.00    +0.000 A 
ATOM     16  C   UNL     1       7.357   5.367  15.249  0.00  0.00    +0.000 A 
ENDBRANCH   7  10
ENDBRANCH   4   7
BRANCH   1  17
ATOM     17  C   UNL     1       1.827   5.152  17.411  0.00  0.00    +0.000 C 
BRANCH  17  18
ATOM     18  C   UNL     1       2.188   3.729  17.855  0.00  0.00    +0.000 C 
BRANCH  18  19
ATOM     19  C   UNL     1       1.062   3.079  18.661  0.00  0.00    +0.000 C 
BRANCH  19  21
ATOM     20  O   UNL     1       2.419   1.617  20.057  0.00  0.00    +0.000 OA
ATOM     21  C   UNL     1       1.563   2.494  19.966  0.00  0.00    +0.000 C 
ATOM     22  N   UNL     1       0.956   3.035  21.074  0.00  0.00    +0.000 N 
ATOM     23  H   UNL     1       0.156   3.656  21.057  0.00  0.00    +0.000 HD
BRANCH  22  24
ATOM     24  O   UNL     1       1.324   2.489  22.324  0.00  0.00    +0.000 OA
ATOM     25  H   UNL     1       0.461   2.436  22.792  0.00  0.00    +0.000 HD
ENDBRANCH  22  24
ENDBRANCH  19  21
ENDBRANCH  18  19
ENDBRANCH  17  18
ENDBRANCH   1  17
TORSDOF 7
ENDMDL
