MODEL 1
REMARK VINA RESULT:      -7.3      0.000      0.000
REMARK  Name = 
REMARK  11 active torsions:
REMARK  status: ('A' for Active; 'I' for Inactive)
REMARK    1  A    between atoms: C_1  and  C_2
REMARK    2  A    between atoms: C_2  and  C_3
REMARK    3  A    between atoms: C_2  and  N_4
REMARK    4  A    between atoms: C_5  and  C_7
REMARK    5  A    between atoms: C_10  and  C_11
REMARK    6  A    between atoms: C_11  and  S_12
REMARK    7  A    between atoms: S_12  and  C_13
REMARK    8  A    between atoms: C_20  and  C_21
REMARK    9  A    between atoms: N_23  and  C_24
REMARK   10  A    between atoms: C_24  and  C_25
REMARK   11  A    between atoms: C_24  and  C_26
REMARK                            x       y       z     vdW  Elec       q    Type
REMARK                         _______ _______ _______ _____ _____    ______ ____
ROOT
ATOM      1  C   UNL     1       5.311   5.840  16.035  0.00  0.00    +0.000 A 
ATOM      2  O   UNL     1       4.952   7.070  15.582  0.00  0.00    +0.000 OA
ATOM      3  N   UNL     1       4.098   7.664  16.455  0.00  0.00    +0.000 NA
ATOM      4  C   UNL     1       3.914   6.805  17.468  0.00  0.00    +0.000 A 
ATOM      5  C   UNL     1       4.698   5.607  17.258  0.00  0.00    +0.000 A 
ENDROOT
BRANCH   1   7
ATOM      6  N   UNL     1       5.806   4.669  14.008  0.00  0.00    +0.000 N 
ATOM      7  C   UNL     1       6.251   5.103  15.234  0.00  0.00    +0.000 C 
ATOM      8  O   UNL     1       7.413   4.869  15.625  0.00  0.00    +0.000 OA
ATOM      9  H   UNL     1       4.891   4.989  13.698  0.00  0.00    +0.000 HD
BRANCH   6  11
ATOM     10  C   UNL     1       5.796   3.036  12.163  0.00  0.00    +0.000 C 
ATOM     11  C   UNL     1       6.640   3.890  13.104  0.00  0.00    +0.000 C 
ATOM     12  C   UNL     1       7.573   4.765  12.272  0.00  0.00    +0.000 C 
ENDBRANCH   6  11
ENDBRANCH   1   7
BRANCH   5  13
ATOM     13  C   UNL     1       4.905   4.466  18.143  0.00  0.00    +0.000 C 
ATOM     14  O   UNL     1       5.986   4.317  18.718  0.00  0.00    +0.000 OA
ATOM     15  N   UNL     1       3.868   3.573  18.323  0.00  0.00    +0.000 N 
ATOM     16  H   UNL     1       3.237   3.441  17.534  0.00  0.00    +0.000 HD
BRANCH  15  17
ATOM     17  C   UNL     1       4.033   2.432  19.222  0.00  0.00    +0.000 C 
ATOM     18  C   UNL     1       3.241   2.641  20.507  0.00  0.00    +0.000 C 
ATOM     19  C   UNL     1       3.606   1.122  18.566  0.00  0.00    +0.000 C 
ENDBRANCH  15  17
ENDBRANCH   5  13
BRANCH   4  20
ATOM     20  C   UNL     1       3.017   7.223  18.608  0.00  0.00    +0.000 C 
BRANCH  20  21
ATOM     21  S   UNL     1       2.054   8.759  18.190  0.00  0.00    +0.000 S 
BRANCH  21  22
ATOM     22  C   UNL     1       1.055   9.065  19.636  0.00  0.00    +0.000 A 
ATOM     23  C   UNL     1       0.094  10.077  19.709  0.00  0.00    +0.000 A 
ATOM     24  C   UNL     1      -0.390  10.490  20.952  0.00  0.00    +0.000 A 
ATOM     25  C   UNL     1       0.063   9.866  22.109  0.00  0.00    +0.000 A 
ATOM     26  F   UNL     1      -0.344  10.313  23.303  0.00  0.00    +0.000 F 
ATOM     27  C   UNL     1       0.967   8.814  22.044  0.00  0.00    +0.000 A 
ATOM     28  C   UNL     1       1.443   8.394  20.804  0.00  0.00    +0.000 A 
ENDBRANCH  21  22
ENDBRANCH  20  21
ENDBRANCH   4  20
TORSDOF 7
ENDMDL
MODEL 2
REMARK VINA RESULT:      -7.2      4.475      6.997
REMARK  Name = 
REMARK  11 active torsions:
REMARK  status: ('A' for Active; 'I' for Inactive)
REMARK    1  A    between atoms: C_1  and  C_2
REMARK    2  A    between atoms: C_2  and  C_3
REMARK    3  A    between atoms: C_2  and  N_4
REMARK    4  A    between atoms: C_5  and  C_7
REMARK    5  A    between atoms: C_10  and  C_11
REMARK    6  A    between atoms: C_11  and  S_12
REMARK    7  A    between atoms: S_12  and  C_13
REMARK    8  A    between atoms: C_20  and  C_21
REMARK    9  A    between atoms: N_23  and  C_24
REMARK   10  A    between atoms: C_24  and  C_25
REMARK   11  A    between atoms: C_24  and  C_26
REMARK                            x       y       z     vdW  Elec       q    Type
REMARK                         _______ _______ _______ _____ _____    ______ ____
ROOT
ATOM      1  C   UNL     1       5.503   4.414  18.661  0.00  0.00    +0.000 A 
ATOM      2  O   UNL     1       5.965   4.630  19.921  0.00  0.00    +0.000 OA
ATOM      3  N   UNL     1       6.981   5.531  19.903  0.00  0.00    +0.000 NA
ATOM      4  C   UNL     1       7.164   5.889  18.624  0.00  0.00    +0.000 A 
ATOM      5  C   UNL     1       6.213   5.208  17.772  0.00  0.00    +0.000 A 
ENDROOT
BRANCH   1   7
ATOM      6  N   UNL     1       3.376   3.644  19.445  0.00  0.00    +0.000 N 
ATOM      7  C   UNL     1       4.391   3.512  18.525  0.00  0.00    +0.000 C 
ATOM      8  O   UNL     1       4.342   2.654  17.622  0.00  0.00    +0.000 OA
ATOM      9  H   UNL     1       3.419   4.435  20.084  0.00  0.00    +0.000 HD
BRANCH   6  11
ATOM     10  C   UNL     1       1.620   2.633  20.846  0.00  0.00    +0.000 C 
ATOM     11  C   UNL     1       2.203   2.782  19.444  0.00  0.00    +0.000 C 
ATOM     12  C   UNL     1       1.111   3.286  18.506  0.00  0.00    +0.000 C 
ENDBRANCH   6  11
ENDBRANCH   1   7
BRANCH   5  13
ATOM     13  C   UNL     1       5.960   5.373  16.345  0.00  0.00    +0.000 C 
ATOM     14  O   UNL     1       4.980   6.017  15.961  0.00  0.00    +0.000 OA
ATOM     15  N   UNL     1       6.841   4.804  15.448  0.00  0.00    +0.000 N 
ATOM     16  H   UNL     1       7.300   3.944  15.742  0.00  0.00    +0.000 HD
BRANCH  15  17
ATOM     17  C   UNL     1       6.631   4.973  14.011  0.00  0.00    +0.000 C 
ATOM     18  C   UNL     1       7.946   5.284  13.307  0.00  0.00    +0.000 C 
ATOM     19  C   UNL     1       5.994   3.738  13.380  0.00  0.00    +0.000 C 
ENDBRANCH  15  17
ENDBRANCH   5  13
BRANCH   4  20
ATOM     20  C   UNL     1       8.229   6.912  18.311  0.00  0.00    +0.000 C 
BRANCH  20  21
ATOM     21  S   UNL     1       7.488   8.491  17.664  0.00  0.00    +0.000 S 
BRANCH  21  22
ATOM     22  C   UNL     1       8.560   9.773  18.286  0.00  0.00    +0.000 A 
ATOM     23  C   UNL     1       9.163   9.730  19.546  0.00  0.00    +0.000 A 
ATOM     24  C   UNL     1       9.687  10.895  20.109  0.00  0.00    +0.000 A 
ATOM     25  C   UNL     1       9.636  12.087  19.396  0.00  0.00    +0.000 A 
ATOM     26  F   UNL     1      10.070  13.218  19.966  0.00  0.00    +0.000 F 
ATOM     27  C   UNL     1       9.100  12.129  18.115  0.00  0.00    +0.000 A 
ATOM     28  C   UNL     1       8.586  10.965  17.548  0.00  0.00    +0.000 A 
ENDBRANCH  21  22
ENDBRANCH  20  21
ENDBRANCH   4  20
TORSDOF 7
ENDMDL
MODEL 3
REMARK VINA RESULT:      -7.1      1.321      1.707
REMARK  Name = 
REMARK  11 active torsions:
REMARK  status: ('A' for Active; 'I' for Inactive)
REMARK    1  A    between atoms: C_1  and  C_2
REMARK    2  A    between atoms: C_2  and  C_3
REMARK    3  A    between atoms: C_2  and  N_4
REMARK    4  A    between atoms: C_5  and  C_7
REMARK    5  A    between atoms: C_10  and  C_11
REMARK    6  A    between atoms: C_11  and  S_12
REMARK    7  A    between atoms: S_12  and  C_13
REMARK    8  A    between atoms: C_20  and  C_21
REMARK    9  A    between atoms: N_23  and  C_24
REMARK   10  A    between atoms: C_24  and  C_25
REMARK   11  A    between atoms: C_24  and  C_26
REMARK                            x       y       z     vdW  Elec       q    Type
REMARK                         _______ _______ _______ _____ _____    ______ ____
ROOT
ATOM      1  C   UNL     1       4.606   5.895  17.080  0.00  0.00    +0.000 A 
ATOM      2  O   UNL     1       4.559   7.210  16.741  0.00  0.00    +0.000 OA
ATOM      3  N   UNL     1       3.647   7.863  17.507  0.00  0.00    +0.000 NA
ATOM      4  C   UNL     1       3.113   6.957  18.337  0.00  0.00    +0.000 A 
ATOM      5  C   UNL     1       3.716   5.660  18.118  0.00  0.00    +0.000 A 
ENDROOT
BRANCH   1   7
ATOM      6  N   UNL     1       5.389   4.958  15.021  0.00  0.00    +0.000 N 
ATOM      7  C   UNL     1       5.562   5.079  16.381  0.00  0.00    +0.000 C 
ATOM      8  O   UNL     1       6.502   4.510  16.970  0.00  0.00    +0.000 OA
ATOM      9  H   UNL     1       4.675   5.537  14.583  0.00  0.00    +0.000 HD
BRANCH   6  11
ATOM     10  C   UNL     1       5.519   3.573  12.988  0.00  0.00    +0.000 C 
ATOM     11  C   UNL     1       6.264   4.143  14.191  0.00  0.00    +0.000 C 
ATOM     12  C   UNL     1       7.482   4.916  13.696  0.00  0.00    +0.000 C 
ENDBRANCH   6  11
ENDBRANCH   1   7
BRANCH   5  13
ATOM     13  C   UNL     1       3.539   4.416  18.860  0.00  0.00    +0.000 C 
ATOM     14  O   UNL     1       4.510   3.862  19.381  0.00  0.00    +0.000 OA
ATOM     15  N   UNL     1       2.268   3.887  18.969  0.00  0.00    +0.000 N 
ATOM     16  H   UNL     1       1.634   4.058  18.190  0.00  0.00    +0.000 HD
BRANCH  15  17
ATOM     17  C   UNL     1       2.051   2.656  19.727  0.00  0.00    +0.000 C 
ATOM     18  C   UNL     1       1.564   2.970  21.136  0.00  0.00    +0.000 C 
ATOM     19  C   UNL     1       1.055   1.730  19.036  0.00  0.00    +0.000 C 
ENDBRANCH  15  17
ENDBRANCH   5  13
BRANCH   4  20
ATOM     20  C   UNL     1       2.074   7.419  19.330  0.00  0.00    +0.000 C 
BRANCH  20  21
ATOM     21  S   UNL     1       1.494   9.147  18.956  0.00  0.00    +0.000 S 
BRANCH  21  22
ATOM     22  C   UNL     1       0.847   9.744  20.506  0.00  0.00    +0.000 A 
ATOM     23  C   UNL     1       0.704   8.942  21.642  0.00  0.00    +0.000 A 
ATOM     24  C   UNL     1      -0.121   9.358  22.690  0.00  0.00    +0.000 A 
ATOM     25  C   UNL     1      -0.768  10.585  22.610  0.00  0.00    +0.000 A 
ATOM     26  F   UNL     1      -1.618  10.948  23.579  0.00  0.00    +0.000 F 
ATOM     27  C   UNL     1      -0.581  11.421  21.517  0.00  0.00    +0.000 A 
ATOM     28  C   UNL     1       0.249  11.012  20.475  0.00  0.00    +0.000 A 
ENDBRANCH  21  22
ENDBRANCH  20  21
ENDBRANCH   4  20
TORSDOF 7
ENDMDL
MODEL 4
REMARK VINA RESULT:      -7.1      1.439      1.503
REMARK  Name = 
REMARK  11 active torsions:
REMARK  status: ('A' for Active; 'I' for Inactive)
REMARK    1  A    between atoms: C_1  and  C_2
REMARK    2  A    between atoms: C_2  and  C_3
REMARK    3  A    between atoms: C_2  and  N_4
REMARK    4  A    between atoms: C_5  and  C_7
REMARK    5  A    between atoms: C_10  and  C_11
REMARK    6  A    between atoms: C_11  and  S_12
REMARK    7  A    between atoms: S_12  and  C_13
REMARK    8  A    between atoms: C_20  and  C_21
REMARK    9  A    between atoms: N_23  and  C_24
REMARK   10  A    between atoms: C_24  and  C_25
REMARK   11  A    between atoms: C_24  and  C_26
REMARK                            x       y       z     vdW  Elec       q    Type
REMARK                         _______ _______ _______ _____ _____    ______ ____
ROOT
ATOM      1  C   UNL     1       4.627   5.449  16.653  0.00  0.00    +0.000 A 
ATOM      2  O   UNL     1       5.059   6.737  16.672  0.00  0.00    +0.000 OA
ATOM      3  N   UNL     1       4.289   7.482  17.507  0.00  0.00    +0.000 NA
ATOM      4  C   UNL     1       3.363   6.661  18.022  0.00  0.00    +0.000 A 
ATOM      5  C   UNL     1       3.548   5.318  17.517  0.00  0.00    +0.000 A 
ENDROOT
BRANCH   1   7
ATOM      6  N   UNL     1       5.668   4.932  14.562  0.00  0.00    +0.000 N 
ATOM      7  C   UNL     1       5.375   4.527  15.843  0.00  0.00    +0.000 C 
ATOM      8  O   UNL     1       5.742   3.415  16.273  0.00  0.00    +0.000 OA
ATOM      9  H   UNL     1       5.443   5.892  14.308  0.00  0.00    +0.000 HD
BRANCH   6  11
ATOM     10  C   UNL     1       5.458   3.462  12.596  0.00  0.00    +0.000 C 
ATOM     11  C   UNL     1       6.395   4.091  13.622  0.00  0.00    +0.000 C 
ATOM     12  C   UNL     1       7.492   4.853  12.886  0.00  0.00    +0.000 C 
ENDBRANCH   6  11
ENDBRANCH   1   7
BRANCH   5  13
ATOM     13  C   UNL     1       2.863   4.084  17.886  0.00  0.00    +0.000 C 
ATOM     14  O   UNL     1       2.479   3.304  17.012  0.00  0.00    +0.000 OA
ATOM     15  N   UNL     1       2.666   3.814  19.226  0.00  0.00    +0.000 N 
ATOM     16  H   UNL     1       2.542   4.617  19.840  0.00  0.00    +0.000 HD
BRANCH  15  17
ATOM     17  C   UNL     1       2.006   2.574  19.632  0.00  0.00    +0.000 C 
ATOM     18  C   UNL     1       1.971   2.455  21.150  0.00  0.00    +0.000 C 
ATOM     19  C   UNL     1       0.587   2.478  19.079  0.00  0.00    +0.000 C 
ENDBRANCH  15  17
ENDBRANCH   5  13
BRANCH   4  20
ATOM     20  C   UNL     1       2.377   7.226  19.015  0.00  0.00    +0.000 C 
BRANCH  20  21
ATOM     21  S   UNL     1       1.800   8.923  18.513  0.00  0.00    +0.000 S 
BRANCH  21  22
ATOM     22  C   UNL     1       0.718   9.433  19.835  0.00  0.00    +0.000 A 
ATOM     23  C   UNL     1      -0.022  10.619  19.812  0.00  0.00    +0.000 A 
ATOM     24  C   UNL     1      -0.558  11.130  20.995  0.00  0.00    +0.000 A 
ATOM     25  C   UNL     1      -0.382  10.436  22.186  0.00  0.00    +0.000 A 
ATOM     26  F   UNL     1      -0.830  10.964  23.332  0.00  0.00    +0.000 F 
ATOM     27  C   UNL     1       0.294   9.223  22.212  0.00  0.00    +0.000 A 
ATOM     28  C   UNL     1       0.821   8.706  21.030  0.00  0.00    +0.000 A 
ENDBRANCH  21  22
ENDBRANCH  20  21
ENDBRANCH   4  20
TORSDOF 7
ENDMDL
MODEL 5
REMARK VINA RESULT:      -7.0      2.748      3.778
REMARK  Name = 
REMARK  11 active torsions:
REMARK  status: ('A' for Active; 'I' for Inactive)
REMARK    1  A    between atoms: C_1  and  C_2
REMARK    2  A    between atoms: C_2  and  C_3
REMARK    3  A    between atoms: C_2  and  N_4
REMARK    4  A    between atoms: C_5  and  C_7
REMARK    5  A    between atoms: C_10  and  C_11
REMARK    6  A    between atoms: C_11  and  S_12
REMARK    7  A    between atoms: S_12  and  C_13
REMARK    8  A    between atoms: C_20  and  C_21
REMARK    9  A    between atoms: N_23  and  C_24
REMARK   10  A    between atoms: C_24  and  C_25
REMARK   11  A    between atoms: C_24  and  C_26
REMARK                            x       y       z     vdW  Elec       q    Type
REMARK                         _______ _______ _______ _____ _____    ______ ____
ROOT
ATOM      1  C   UNL     1       3.415   6.565  17.803  0.00  0.00    +0.000 A 
ATOM      2  O   UNL     1       3.650   7.753  17.188  0.00  0.00    +0.000 OA
ATOM      3  N   UNL     1       2.862   8.724  17.719  0.00  0.00    +0.000 NA
ATOM      4  C   UNL     1       2.123   8.148  18.677  0.00  0.00    +0.000 A 
ATOM      5  C   UNL     1       2.457   6.744  18.791  0.00  0.00    +0.000 A 
ENDROOT
BRANCH   1   7
ATOM      6  N   UNL     1       5.568   5.650  17.299  0.00  0.00    +0.000 N 
ATOM      7  C   UNL     1       4.210   5.446  17.375  0.00  0.00    +0.000 C 
ATOM      8  O   UNL     1       3.702   4.343  17.089  0.00  0.00    +0.000 OA
ATOM      9  H   UNL     1       5.933   6.532  17.655  0.00  0.00    +0.000 HD
BRANCH   6  11
ATOM     10  C   UNL     1       6.917   4.831  15.407  0.00  0.00    +0.000 C 
ATOM     11  C   UNL     1       6.492   4.616  16.856  0.00  0.00    +0.000 C 
ATOM     12  C   UNL     1       7.740   4.537  17.730  0.00  0.00    +0.000 C 
ENDBRANCH   6  11
ENDBRANCH   1   7
BRANCH   5  13
ATOM     13  C   UNL     1       2.002   5.758  19.764  0.00  0.00    +0.000 C 
ATOM     14  O   UNL     1       1.778   6.095  20.929  0.00  0.00    +0.000 OA
ATOM     15  N   UNL     1       1.825   4.453  19.349  0.00  0.00    +0.000 N 
ATOM     16  H   UNL     1       2.437   4.123  18.604  0.00  0.00    +0.000 HD
BRANCH  15  17
ATOM     17  C   UNL     1       1.346   3.444  20.293  0.00  0.00    +0.000 C 
ATOM     18  C   UNL     1       0.640   2.311  19.558  0.00  0.00    +0.000 C 
ATOM     19  C   UNL     1       2.479   2.875  21.142  0.00  0.00    +0.000 C 
ENDBRANCH  15  17
ENDBRANCH   5  13
BRANCH   4  20
ATOM     20  C   UNL     1       1.164   9.011  19.460  0.00  0.00    +0.000 C 
BRANCH  20  21
ATOM     21  S   UNL     1       1.061  10.729  18.753  0.00  0.00    +0.000 S 
BRANCH  21  22
ATOM     22  C   UNL     1      -0.660  10.936  18.336  0.00  0.00    +0.000 A 
ATOM     23  C   UNL     1      -1.497  11.870  18.953  0.00  0.00    +0.000 A 
ATOM     24  C   UNL     1      -2.883  11.745  18.844  0.00  0.00    +0.000 A 
ATOM     25  C   UNL     1      -3.422  10.709  18.091  0.00  0.00    +0.000 A 
ATOM     26  F   UNL     1      -4.751  10.544  18.049  0.00  0.00    +0.000 F 
ATOM     27  C   UNL     1      -2.602   9.814  17.417  0.00  0.00    +0.000 A 
ATOM     28  C   UNL     1      -1.218   9.943  17.517  0.00  0.00    +0.000 A 
ENDBRANCH  21  22
ENDBRANCH  20  21
ENDBRANCH   4  20
TORSDOF 7
ENDMDL
MODEL 6
REMARK VINA RESULT:      -7.0      4.614      9.458
REMARK  Name = 
REMARK  11 active torsions:
REMARK  status: ('A' for Active; 'I' for Inactive)
REMARK    1  A    between atoms: C_1  and  C_2
REMARK    2  A    between atoms: C_2  and  C_3
REMARK    3  A    between atoms: C_2  and  N_4
REMARK    4  A    between atoms: C_5  and  C_7
REMARK    5  A    between atoms: C_10  and  C_11
REMARK    6  A    between atoms: C_11  and  S_12
REMARK    7  A    between atoms: S_12  and  C_13
REMARK    8  A    between atoms: C_20  and  C_21
REMARK    9  A    between atoms: N_23  and  C_24
REMARK   10  A    between atoms: C_24  and  C_25
REMARK   11  A    between atoms: C_24  and  C_26
REMARK                            x       y       z     vdW  Elec       q    Type
REMARK                         _______ _______ _______ _____ _____    ______ ____
ROOT
ATOM      1  C   UNL     1       0.709   9.472  21.168  0.00  0.00    +0.000 A 
ATOM      2  O   UNL     1       1.587   8.482  21.475  0.00  0.00    +0.000 OA
ATOM      3  N   UNL     1       2.065   7.906  20.341  0.00  0.00    +0.000 NA
ATOM      4  C   UNL     1       1.485   8.535  19.309  0.00  0.00    +0.000 A 
ATOM      5  C   UNL     1       0.607   9.581  19.788  0.00  0.00    +0.000 A 
ENDROOT
BRANCH   1   7
ATOM      6  N   UNL     1      -0.588  11.324  21.953  0.00  0.00    +0.000 N 
ATOM      7  C   UNL     1       0.150  10.207  22.270  0.00  0.00    +0.000 C 
ATOM      8  O   UNL     1       0.320   9.855  23.455  0.00  0.00    +0.000 OA
ATOM      9  H   UNL     1      -0.787  11.494  20.969  0.00  0.00    +0.000 HD
BRANCH   6  11
ATOM     10  C   UNL     1      -0.850  13.647  22.732  0.00  0.00    +0.000 C 
ATOM     11  C   UNL     1      -1.190  12.178  22.967  0.00  0.00    +0.000 C 
ATOM     12  C   UNL     1      -2.706  12.026  23.031  0.00  0.00    +0.000 C 
ENDBRANCH   6  11
ENDBRANCH   1   7
BRANCH   5  13
ATOM     13  C   UNL     1      -0.130  10.591  19.037  0.00  0.00    +0.000 C 
ATOM     14  O   UNL     1       0.297  11.746  18.970  0.00  0.00    +0.000 OA
ATOM     15  N   UNL     1      -1.300  10.221  18.404  0.00  0.00    +0.000 N 
ATOM     16  H   UNL     1      -1.843   9.481  18.846  0.00  0.00    +0.000 HD
BRANCH  15  17
ATOM     17  C   UNL     1      -2.050  11.201  17.622  0.00  0.00    +0.000 C 
ATOM     18  C   UNL     1      -2.444  10.624  16.268  0.00  0.00    +0.000 C 
ATOM     19  C   UNL     1      -3.299  11.680  18.356  0.00  0.00    +0.000 C 
ENDBRANCH  15  17
ENDBRANCH   5  13
BRANCH   4  20
ATOM     20  C   UNL     1       1.858   8.109  17.909  0.00  0.00    +0.000 C 
BRANCH  20  21
ATOM     21  S   UNL     1       3.496   7.227  17.878  0.00  0.00    +0.000 S 
BRANCH  21  22
ATOM     22  C   UNL     1       3.068   5.496  17.859  0.00  0.00    +0.000 A 
ATOM     23  C   UNL     1       1.751   5.027  17.839  0.00  0.00    +0.000 A 
ATOM     24  C   UNL     1       1.477   3.701  18.179  0.00  0.00    +0.000 A 
ATOM     25  C   UNL     1       2.523   2.844  18.504  0.00  0.00    +0.000 A 
ATOM     26  F   UNL     1       2.254   1.595  18.904  0.00  0.00    +0.000 F 
ATOM     27  C   UNL     1       3.841   3.280  18.462  0.00  0.00    +0.000 A 
ATOM     28  C   UNL     1       4.116   4.600  18.113  0.00  0.00    +0.000 A 
ENDBRANCH  21  22
ENDBRANCH  20  21
ENDBRANCH   4  20
TORSDOF 7
ENDMDL
MODEL 7
REMARK VINA RESULT:      -7.0      2.927      3.995
REMARK  Name = 
REMARK  11 active torsions:
REMARK  status: ('A' for Active; 'I' for Inactive)
REMARK    1  A    between atoms: C_1  and  C_2
REMARK    2  A    between atoms: C_2  and  C_3
REMARK    3  A    between atoms: C_2  and  N_4
REMARK    4  A    between atoms: C_5  and  C_7
REMARK    5  A    between atoms: C_10  and  C_11
REMARK    6  A    between atoms: C_11  and  S_12
REMARK    7  A    between atoms: S_12  and  C_13
REMARK    8  A    between atoms: C_20  and  C_21
REMARK    9  A    between atoms: N_23  and  C_24
REMARK   10  A    between atoms: C_24  and  C_25
REMARK   11  A    between atoms: C_24  and  C_26
REMARK                            x       y       z     vdW  Elec       q    Type
REMARK                         _______ _______ _______ _____ _____    ______ ____
ROOT
ATOM      1  C   UNL     1       3.272   6.687  17.843  0.00  0.00    +0.000 A 
ATOM      2  O   UNL     1       3.385   7.838  17.129  0.00  0.00    +0.000 OA
ATOM      3  N   UNL     1       2.633   8.819  17.692  0.00  0.00    +0.000 NA
ATOM      4  C   UNL     1       2.040   8.288  18.770  0.00  0.00    +0.000 A 
ATOM      5  C   UNL     1       2.436   6.905  18.929  0.00  0.00    +0.000 A 
ENDROOT
BRANCH   1   7
ATOM      6  N   UNL     1       5.391   5.789  17.187  0.00  0.00    +0.000 N 
ATOM      7  C   UNL     1       4.049   5.565  17.391  0.00  0.00    +0.000 C 
ATOM      8  O   UNL     1       3.540   4.443  17.194  0.00  0.00    +0.000 OA
ATOM      9  H   UNL     1       5.767   6.691  17.475  0.00  0.00    +0.000 HD
BRANCH   6  11
ATOM     10  C   UNL     1       6.689   4.990  15.252  0.00  0.00    +0.000 C 
ATOM     11  C   UNL     1       6.293   4.753  16.706  0.00  0.00    +0.000 C 
ATOM     12  C   UNL     1       7.559   4.645  17.550  0.00  0.00    +0.000 C 
ENDBRANCH   6  11
ENDBRANCH   1   7
BRANCH   5  13
ATOM     13  C   UNL     1       2.142   5.974  20.013  0.00  0.00    +0.000 C 
ATOM     14  O   UNL     1       1.520   6.357  21.007  0.00  0.00    +0.000 OA
ATOM     15  N   UNL     1       2.566   4.666  19.894  0.00  0.00    +0.000 N 
ATOM     16  H   UNL     1       3.425   4.510  19.368  0.00  0.00    +0.000 HD
BRANCH  15  17
ATOM     17  C   UNL     1       2.265   3.700  20.949  0.00  0.00    +0.000 C 
ATOM     18  C   UNL     1       0.901   3.062  20.723  0.00  0.00    +0.000 C 
ATOM     19  C   UNL     1       3.330   2.611  21.045  0.00  0.00    +0.000 C 
ENDBRANCH  15  17
ENDBRANCH   5  13
BRANCH   4  20
ATOM     20  C   UNL     1       1.153   9.174  19.610  0.00  0.00    +0.000 C 
BRANCH  20  21
ATOM     21  S   UNL     1       0.713  10.744  18.714  0.00  0.00    +0.000 S 
BRANCH  21  22
ATOM     22  C   UNL     1      -1.015  10.561  18.317  0.00  0.00    +0.000 A 
ATOM     23  C   UNL     1      -1.484   9.789  17.251  0.00  0.00    +0.000 A 
ATOM     24  C   UNL     1      -2.787   9.966  16.781  0.00  0.00    +0.000 A 
ATOM     25  C   UNL     1      -3.622  10.888  17.401  0.00  0.00    +0.000 A 
ATOM     26  F   UNL     1      -4.845  11.112  16.903  0.00  0.00    +0.000 F 
ATOM     27  C   UNL     1      -3.191  11.613  18.504  0.00  0.00    +0.000 A 
ATOM     28  C   UNL     1      -1.894  11.430  18.980  0.00  0.00    +0.000 A 
ENDBRANCH  21  22
ENDBRANCH  20  21
ENDBRANCH   4  20
TORSDOF 7
ENDMDL
MODEL 8
REMARK VINA RESULT:      -6.9      3.353      5.591
REMARK  Name = 
REMARK  11 active torsions:
REMARK  status: ('A' for Active; 'I' for Inactive)
REMARK    1  A    between atoms: C_1  and  C_2
REMARK    2  A    between atoms: C_2  and  C_3
REMARK    3  A    between atoms: C_2  and  N_4
REMARK    4  A    between atoms: C_5  and  C_7
REMARK    5  A    between atoms: C_10  and  C_11
REMARK    6  A    between atoms: C_11  and  S_12
REMARK    7  A    between atoms: S_12  and  C_13
REMARK    8  A    between atoms: C_20  and  C_21
REMARK    9  A    between atoms: N_23  and  C_24
REMARK   10  A    between atoms: C_24  and  C_25
REMARK   11  A    between atoms: C_24  and  C_26
REMARK                            x       y       z     vdW  Elec       q    Type
REMARK                         _______ _______ _______ _____ _____    ______ ____
ROOT
ATOM      1  C   UNL     1       7.314   6.690  18.251  0.00  0.00    +0.000 A 
ATOM      2  O   UNL     1       7.403   6.247  19.532  0.00  0.00    +0.000 OA
ATOM      3  N   UNL     1       6.683   5.106  19.689  0.00  0.00    +0.000 NA
ATOM      4  C   UNL     1       6.134   4.824  18.499  0.00  0.00    +0.000 A 
ATOM      5  C   UNL     1       6.528   5.812  17.518  0.00  0.00    +0.000 A 
ENDROOT
BRANCH   1   7
ATOM      6  N   UNL     1       8.517   8.628  18.977  0.00  0.00    +0.000 N 
ATOM      7  C   UNL     1       8.064   7.872  17.921  0.00  0.00    +0.000 C 
ATOM      8  O   UNL     1       8.296   8.200  16.740  0.00  0.00    +0.000 OA
ATOM      9  H   UNL     1       8.396   8.248  19.914  0.00  0.00    +0.000 HD
BRANCH   6  11
ATOM     10  C   UNL     1       8.502  10.852  17.918  0.00  0.00    +0.000 C 
ATOM     11  C   UNL     1       9.265   9.862  18.792  0.00  0.00    +0.000 C 
ATOM     12  C   UNL     1       9.612  10.537  20.115  0.00  0.00    +0.000 C 
ENDBRANCH   6  11
ENDBRANCH   1   7
BRANCH   5  13
ATOM     13  C   UNL     1       6.276   5.847  16.082  0.00  0.00    +0.000 C 
ATOM     14  O   UNL     1       5.412   6.600  15.623  0.00  0.00    +0.000 OA
ATOM     15  N   UNL     1       7.025   5.030  15.259  0.00  0.00    +0.000 N 
ATOM     16  H   UNL     1       7.336   4.145  15.655  0.00  0.00    +0.000 HD
BRANCH  15  17
ATOM     17  C   UNL     1       6.815   5.059  13.813  0.00  0.00    +0.000 C 
ATOM     18  C   UNL     1       8.112   5.394  13.086  0.00  0.00    +0.000 C 
ATOM     19  C   UNL     1       6.265   3.735  13.290  0.00  0.00    +0.000 C 
ENDBRANCH  15  17
ENDBRANCH   5  13
BRANCH   4  20
ATOM     20  C   UNL     1       5.290   3.578  18.376  0.00  0.00    +0.000 C 
BRANCH  20  21
ATOM     21  S   UNL     1       3.751   3.893  17.378  0.00  0.00    +0.000 S 
BRANCH  21  22
ATOM     22  C   UNL     1       2.827   5.071  18.346  0.00  0.00    +0.000 A 
ATOM     23  C   UNL     1       2.839   6.447  18.102  0.00  0.00    +0.000 A 
ATOM     24  C   UNL     1       2.396   7.334  19.086  0.00  0.00    +0.000 A 
ATOM     25  C   UNL     1       1.913   6.838  20.291  0.00  0.00    +0.000 A 
ATOM     26  F   UNL     1       1.560   7.690  21.262  0.00  0.00    +0.000 F 
ATOM     27  C   UNL     1       1.834   5.471  20.520  0.00  0.00    +0.000 A 
ATOM     28  C   UNL     1       2.266   4.585  19.535  0.00  0.00    +0.000 A 
ENDBRANCH  21  22
ENDBRANCH  20  21
ENDBRANCH   4  20
TORSDOF 7
ENDMDL
MODEL 9
REMARK VINA RESULT:      -6.9      3.890      8.113
REMARK  Name = 
REMARK  11 active torsions:
REMARK  status: ('A' for Active; 'I' for Inactive)
REMARK    1  A    between atoms: C_1  and  C_2
REMARK    2  A    between atoms: C_2  and  C_3
REMARK    3  A    between atoms: C_2  and  N_4
REMARK    4  A    between atoms: C_5  and  C_7
REMARK    5  A    between atoms: C_10  and  C_11
REMARK    6  A    between atoms: C_11  and  S_12
REMARK    7  A    between atoms: S_12  and  C_13
REMARK    8  A    between atoms: C_20  and  C_21
REMARK    9  A    between atoms: N_23  and  C_24
REMARK   10  A    between atoms: C_24  and  C_25
REMARK   11  A    between atoms: C_24  and  C_26
REMARK                            x       y       z     vdW  Elec       q    Type
REMARK                         _______ _______ _______ _____ _____    ______ ____
ROOT
ATOM      1  C   UNL     1       2.662   7.701  18.410  0.00  0.00    +0.000 A 
ATOM      2  O   UNL     1       3.561   8.149  17.494  0.00  0.00    +0.000 OA
ATOM      3  N   UNL     1       4.459   7.173  17.198  0.00  0.00    +0.000 NA
ATOM      4  C   UNL     1       4.128   6.101  17.931  0.00  0.00    +0.000 A 
ATOM      5  C   UNL     1       2.950   6.381  18.724  0.00  0.00    +0.000 A 
ENDROOT
BRANCH   1   7
ATOM      6  N   UNL     1       1.353   8.716  20.137  0.00  0.00    +0.000 N 
ATOM      7  C   UNL     1       1.617   8.613  18.791  0.00  0.00    +0.000 C 
ATOM      8  O   UNL     1       0.981   9.279  17.950  0.00  0.00    +0.000 OA
ATOM      9  H   UNL     1       1.981   8.236  20.779  0.00  0.00    +0.000 HD
BRANCH   6  11
ATOM     10  C   UNL     1      -0.351   8.967  21.898  0.00  0.00    +0.000 C 
ATOM     11  C   UNL     1       0.305   9.578  20.665  0.00  0.00    +0.000 C 
ATOM     12  C   UNL     1       0.820  10.970  21.018  0.00  0.00    +0.000 C 
ENDBRANCH   6  11
ENDBRANCH   1   7
BRANCH   5  13
ATOM     13  C   UNL     1       2.167   5.487  19.569  0.00  0.00    +0.000 C 
ATOM     14  O   UNL     1       1.729   5.884  20.652  0.00  0.00    +0.000 OA
ATOM     15  N   UNL     1       1.924   4.202  19.126  0.00  0.00    +0.000 N 
ATOM     16  H   UNL     1       2.642   3.778  18.541  0.00  0.00    +0.000 HD
BRANCH  15  17
ATOM     17  C   UNL     1       1.121   3.288  19.937  0.00  0.00    +0.000 C 
ATOM     18  C   UNL     1       0.518   2.189  19.071  0.00  0.00    +0.000 C 
ATOM     19  C   UNL     1       1.936   2.661  21.065  0.00  0.00    +0.000 C 
ENDBRANCH  15  17
ENDBRANCH   5  13
BRANCH   4  20
ATOM     20  C   UNL     1       4.954   4.847  17.780  0.00  0.00    +0.000 C 
BRANCH  20  21
ATOM     21  S   UNL     1       6.642   5.221  17.091  0.00  0.00    +0.000 S 
BRANCH  21  22
ATOM     22  C   UNL     1       6.479   4.937  15.339  0.00  0.00    +0.000 A 
ATOM     23  C   UNL     1       5.506   4.105  14.779  0.00  0.00    +0.000 A 
ATOM     24  C   UNL     1       5.648   3.649  13.467  0.00  0.00    +0.000 A 
ATOM     25  C   UNL     1       6.742   4.056  12.713  0.00  0.00    +0.000 A 
ATOM     26  F   UNL     1       6.919   3.558  11.482  0.00  0.00    +0.000 F 
ATOM     27  C   UNL     1       7.681   4.936  13.234  0.00  0.00    +0.000 A 
ATOM     28  C   UNL     1       7.535   5.399  14.540  0.00  0.00    +0.000 A 
ENDBRANCH  21  22
ENDBRANCH  20  21
ENDBRANCH   4  20
TORSDOF 7
ENDMDL
