MODEL 1
REMARK VINA RESULT:      -8.3      0.000      0.000
REMARK  Name = 
REMARK  8 active torsions:
REMARK  status: ('A' for Active; 'I' for Inactive)
REMARK    1  A    between atoms: C_1  and  C_2
REMARK    2  A    between atoms: C_2  and  C_3
REMARK    3  A    between atoms: C_2  and  C_4
REMARK    4  A    between atoms: C_4  and  N_5
REMARK    5  A    between atoms: C_6  and  S_7
REMARK    6  A    between atoms: S_7  and  C_8
REMARK    7  A    between atoms: C_8  and  C_9
REMARK    8  A    between atoms: N_11  and  C_12
REMARK                            x       y       z     vdW  Elec       q    Type
REMARK                         _______ _______ _______ _____ _____    ______ ____
ROOT
ATOM      1  S   UNL     1       7.570   4.876  17.864  0.00  0.00    +0.000 S 
ENDROOT
BRANCH   1   3
ATOM      2  N   UNL     1       4.926   4.159  17.324  0.00  0.00    +0.000 N 
ATOM      3  C   UNL     1       5.854   4.744  18.160  0.00  0.00    +0.000 A 
ATOM      4  N   UNL     1       5.294   5.203  19.256  0.00  0.00    +0.000 NA
ATOM      5  C   UNL     1       3.977   4.840  19.180  0.00  0.00    +0.000 A 
ATOM      6  C   UNL     1       2.930   5.084  20.079  0.00  0.00    +0.000 A 
ATOM      7  C   UNL     1       1.655   4.586  19.782  0.00  0.00    +0.000 A 
ATOM      8  C   UNL     1       1.432   3.833  18.629  0.00  0.00    +0.000 A 
ATOM      9  C   UNL     1       2.467   3.574  17.729  0.00  0.00    +0.000 A 
ATOM     10  C   UNL     1       3.726   4.122  18.017  0.00  0.00    +0.000 A 
BRANCH   2  11
ATOM     11  C   UNL     1       5.073   3.612  15.988  0.00  0.00    +0.000 C 
BRANCH  11  13
ATOM     12  C   UNL     1       5.985   3.877  13.553  0.00  0.00    +0.000 C 
ATOM     13  C   UNL     1       5.871   4.461  14.966  0.00  0.00    +0.000 C 
ATOM     14  C   UNL     1       5.335   5.888  14.891  0.00  0.00    +0.000 C 
ENDBRANCH  11  13
ENDBRANCH   2  11
ENDBRANCH   1   3
BRANCH   1  15
ATOM     15  C   UNL     1       7.975   6.238  19.032  0.00  0.00    +0.000 C 
BRANCH  15  16
ATOM     16  C   UNL     1       8.167   7.627  18.422  0.00  0.00    +0.000 C 
ATOM     17  O   UNL     1       7.774   7.842  17.277  0.00  0.00    +0.000 OA
ATOM     18  N   UNL     1       8.813   8.558  19.210  0.00  0.00    +0.000 N 
ATOM     19  H   UNL     1       9.169   8.204  20.089  0.00  0.00    +0.000 HD
BRANCH  18  20
ATOM     20  C   UNL     1       9.053   9.923  18.932  0.00  0.00    +0.000 A 
ATOM     21  C   UNL     1       8.493  10.629  17.845  0.00  0.00    +0.000 A 
ATOM     22  C   UNL     1       8.740  12.003  17.664  0.00  0.00    +0.000 A 
ATOM     23  C   UNL     1       9.536  12.637  18.585  0.00  0.00    +0.000 A 
ATOM     24  C   UNL     1      10.097  11.954  19.638  0.00  0.00    +0.000 A 
ATOM     25  C   UNL     1       9.880  10.604  19.834  0.00  0.00    +0.000 A 
ATOM     26  O   UNL     1      10.841  12.763  20.441  0.00  0.00    +0.000 OA
ATOM     27  C   UNL     1      10.502  14.052  19.890  0.00  0.00    +0.000 C 
ATOM     28  O   UNL     1       9.849  13.961  18.607  0.00  0.00    +0.000 OA
ENDBRANCH  18  20
ENDBRANCH  15  16
ENDBRANCH   1  15
TORSDOF 6
ENDMDL
MODEL 2
REMARK VINA RESULT:      -8.1      6.104      7.860
REMARK  Name = 
REMARK  8 active torsions:
REMARK  status: ('A' for Active; 'I' for Inactive)
REMARK    1  A    between atoms: C_1  and  C_2
REMARK    2  A    between atoms: C_2  and  C_3
REMARK    3  A    between atoms: C_2  and  C_4
REMARK    4  A    between atoms: C_4  and  N_5
REMARK    5  A    between atoms: C_6  and  S_7
REMARK    6  A    between atoms: S_7  and  C_8
REMARK    7  A    between atoms: C_8  and  C_9
REMARK    8  A    between atoms: N_11  and  C_12
REMARK                            x       y       z     vdW  Elec       q    Type
REMARK                         _______ _______ _______ _____ _____    ______ ____
ROOT
ATOM      1  S   UNL     1       2.190   7.323  19.599  0.00  0.00    +0.000 S 
ENDROOT
BRANCH   1   3
ATOM      2  N   UNL     1       3.561   5.163  18.482  0.00  0.00    +0.000 N 
ATOM      3  C   UNL     1       3.257   6.508  18.483  0.00  0.00    +0.000 A 
ATOM      4  N   UNL     1       3.870   7.141  17.508  0.00  0.00    +0.000 NA
ATOM      5  C   UNL     1       4.531   6.178  16.796  0.00  0.00    +0.000 A 
ATOM      6  C   UNL     1       5.345   6.305  15.663  0.00  0.00    +0.000 A 
ATOM      7  C   UNL     1       5.901   5.150  15.098  0.00  0.00    +0.000 A 
ATOM      8  C   UNL     1       5.627   3.891  15.630  0.00  0.00    +0.000 A 
ATOM      9  C   UNL     1       4.810   3.747  16.753  0.00  0.00    +0.000 A 
ATOM     10  C   UNL     1       4.301   4.917  17.336  0.00  0.00    +0.000 A 
BRANCH   2  11
ATOM     11  C   UNL     1       3.196   4.113  19.414  0.00  0.00    +0.000 C 
BRANCH  11  13
ATOM     12  C   UNL     1       1.538   2.281  18.561  0.00  0.00    +0.000 C 
ATOM     13  C   UNL     1       1.741   3.585  19.342  0.00  0.00    +0.000 C 
ATOM     14  C   UNL     1       1.130   3.452  20.734  0.00  0.00    +0.000 C 
ENDBRANCH  11  13
ENDBRANCH   2  11
ENDBRANCH   1   3
BRANCH   1  15
ATOM     15  C   UNL     1       1.773   8.805  18.592  0.00  0.00    +0.000 C 
BRANCH  15  16
ATOM     16  C   UNL     1       0.785   9.796  19.209  0.00  0.00    +0.000 C 
ATOM     17  O   UNL     1      -0.130  10.242  18.520  0.00  0.00    +0.000 OA
ATOM     18  N   UNL     1       1.013  10.151  20.523  0.00  0.00    +0.000 N 
ATOM     19  H   UNL     1       1.864   9.780  20.926  0.00  0.00    +0.000 HD
BRANCH  18  20
ATOM     20  C   UNL     1       0.223  10.977  21.355  0.00  0.00    +0.000 A 
ATOM     21  C   UNL     1      -0.667  10.500  22.341  0.00  0.00    +0.000 A 
ATOM     22  C   UNL     1      -1.382  11.388  23.167  0.00  0.00    +0.000 A 
ATOM     23  C   UNL     1      -1.177  12.734  22.990  0.00  0.00    +0.000 A 
ATOM     24  C   UNL     1      -0.322  13.206  22.022  0.00  0.00    +0.000 A 
ATOM     25  C   UNL     1       0.383  12.358  21.190  0.00  0.00    +0.000 A 
ATOM     26  O   UNL     1      -0.250  14.566  22.015  0.00  0.00    +0.000 OA
ATOM     27  C   UNL     1      -0.985  14.866  23.218  0.00  0.00    +0.000 C 
ATOM     28  O   UNL     1      -1.735  13.739  23.716  0.00  0.00    +0.000 OA
ENDBRANCH  18  20
ENDBRANCH  15  16
ENDBRANCH   1  15
TORSDOF 6
ENDMDL
MODEL 3
REMARK VINA RESULT:      -8.0      4.198      6.384
REMARK  Name = 
REMARK  8 active torsions:
REMARK  status: ('A' for Active; 'I' for Inactive)
REMARK    1  A    between atoms: C_1  and  C_2
REMARK    2  A    between atoms: C_2  and  C_3
REMARK    3  A    between atoms: C_2  and  C_4
REMARK    4  A    between atoms: C_4  and  N_5
REMARK    5  A    between atoms: C_6  and  S_7
REMARK    6  A    between atoms: S_7  and  C_8
REMARK    7  A    between atoms: C_8  and  C_9
REMARK    8  A    between atoms: N_11  and  C_12
REMARK                            x       y       z     vdW  Elec       q    Type
REMARK                         _______ _______ _______ _____ _____    ______ ____
ROOT
ATOM      1  S   UNL     1       4.047   2.637  18.554  0.00  0.00    +0.000 S 
ENDROOT
BRANCH   1   3
ATOM      2  N   UNL     1       5.347   4.738  17.254  0.00  0.00    +0.000 N 
ATOM      3  C   UNL     1       5.199   3.935  18.366  0.00  0.00    +0.000 A 
ATOM      4  N   UNL     1       6.043   4.268  19.316  0.00  0.00    +0.000 NA
ATOM      5  C   UNL     1       6.709   5.370  18.853  0.00  0.00    +0.000 A 
ATOM      6  C   UNL     1       7.722   6.122  19.462  0.00  0.00    +0.000 A 
ATOM      7  C   UNL     1       8.238   7.234  18.784  0.00  0.00    +0.000 A 
ATOM      8  C   UNL     1       7.735   7.607  17.538  0.00  0.00    +0.000 A 
ATOM      9  C   UNL     1       6.720   6.873  16.923  0.00  0.00    +0.000 A 
ATOM     10  C   UNL     1       6.248   5.735  17.594  0.00  0.00    +0.000 A 
BRANCH   2  11
ATOM     11  C   UNL     1       4.707   4.675  15.954  0.00  0.00    +0.000 C 
BRANCH  11  13
ATOM     12  C   UNL     1       7.043   4.144  14.909  0.00  0.00    +0.000 C 
ATOM     13  C   UNL     1       5.633   4.712  14.712  0.00  0.00    +0.000 C 
ATOM     14  C   UNL     1       4.972   4.045  13.509  0.00  0.00    +0.000 C 
ENDBRANCH  11  13
ENDBRANCH   2  11
ENDBRANCH   1   3
BRANCH   1  15
ATOM     15  C   UNL     1       2.762   3.512  19.537  0.00  0.00    +0.000 C 
BRANCH  15  16
ATOM     16  C   UNL     1       2.224   4.818  18.952  0.00  0.00    +0.000 C 
ATOM     17  O   UNL     1       1.507   4.781  17.953  0.00  0.00    +0.000 OA
ATOM     18  N   UNL     1       2.616   5.980  19.584  0.00  0.00    +0.000 N 
ATOM     19  H   UNL     1       3.289   5.857  20.331  0.00  0.00    +0.000 HD
BRANCH  18  20
ATOM     20  C   UNL     1       2.212   7.306  19.307  0.00  0.00    +0.000 A 
ATOM     21  C   UNL     1       2.377   7.947  18.060  0.00  0.00    +0.000 A 
ATOM     22  C   UNL     1       1.903   9.256  17.847  0.00  0.00    +0.000 A 
ATOM     23  C   UNL     1       1.263   9.883  18.886  0.00  0.00    +0.000 A 
ATOM     24  C   UNL     1       1.111   9.270  20.107  0.00  0.00    +0.000 A 
ATOM     25  C   UNL     1       1.577   7.992  20.349  0.00  0.00    +0.000 A 
ATOM     26  O   UNL     1       0.443  10.053  20.999  0.00  0.00    +0.000 OA
ATOM     27  C   UNL     1       0.015  11.121  20.130  0.00  0.00    +0.000 C 
ATOM     28  O   UNL     1       0.697  11.120  18.859  0.00  0.00    +0.000 OA
ENDBRANCH  18  20
ENDBRANCH  15  16
ENDBRANCH   1  15
TORSDOF 6
ENDMDL
MODEL 4
REMARK VINA RESULT:      -8.0      6.101      8.115
REMARK  Name = 
REMARK  8 active torsions:
REMARK  status: ('A' for Active; 'I' for Inactive)
REMARK    1  A    between atoms: C_1  and  C_2
REMARK    2  A    between atoms: C_2  and  C_3
REMARK    3  A    between atoms: C_2  and  C_4
REMARK    4  A    between atoms: C_4  and  N_5
REMARK    5  A    between atoms: C_6  and  S_7
REMARK    6  A    between atoms: S_7  and  C_8
REMARK    7  A    between atoms: C_8  and  C_9
REMARK    8  A    between atoms: N_11  and  C_12
REMARK                            x       y       z     vdW  Elec       q    Type
REMARK                         _______ _______ _______ _____ _____    ______ ____
ROOT
ATOM      1  S   UNL     1       2.332   7.515  19.110  0.00  0.00    +0.000 S 
ENDROOT
BRANCH   1   3
ATOM      2  N   UNL     1       3.649   5.225  18.204  0.00  0.00    +0.000 N 
ATOM      3  C   UNL     1       3.422   6.583  18.114  0.00  0.00    +0.000 A 
ATOM      4  N   UNL     1       4.134   7.127  17.153  0.00  0.00    +0.000 NA
ATOM      5  C   UNL     1       4.784   6.092  16.540  0.00  0.00    +0.000 A 
ATOM      6  C   UNL     1       5.678   6.112  15.461  0.00  0.00    +0.000 A 
ATOM      7  C   UNL     1       6.204   4.900  14.996  0.00  0.00    +0.000 A 
ATOM      8  C   UNL     1       5.823   3.689  15.572  0.00  0.00    +0.000 A 
ATOM      9  C   UNL     1       4.926   3.651  16.641  0.00  0.00    +0.000 A 
ATOM     10  C   UNL     1       4.448   4.878  17.126  0.00  0.00    +0.000 A 
BRANCH   2  11
ATOM     11  C   UNL     1       3.163   4.250  19.161  0.00  0.00    +0.000 C 
BRANCH  11  13
ATOM     12  C   UNL     1       1.428   2.385  18.570  0.00  0.00    +0.000 C 
ATOM     13  C   UNL     1       1.678   3.824  19.038  0.00  0.00    +0.000 C 
ATOM     14  C   UNL     1       0.917   4.083  20.335  0.00  0.00    +0.000 C 
ENDBRANCH  11  13
ENDBRANCH   2  11
ENDBRANCH   1   3
BRANCH   1  15
ATOM     15  C   UNL     1       1.985   8.907  17.959  0.00  0.00    +0.000 C 
BRANCH  15  16
ATOM     16  C   UNL     1       1.327  10.148  18.565  0.00  0.00    +0.000 C 
ATOM     17  O   UNL     1       1.815  11.255  18.346  0.00  0.00    +0.000 OA
ATOM     18  N   UNL     1       0.221   9.929  19.359  0.00  0.00    +0.000 N 
ATOM     19  H   UNL     1      -0.000   8.955  19.529  0.00  0.00    +0.000 HD
BRANCH  18  20
ATOM     20  C   UNL     1      -0.617  10.886  19.974  0.00  0.00    +0.000 A 
ATOM     21  C   UNL     1      -1.687  11.544  19.330  0.00  0.00    +0.000 A 
ATOM     22  C   UNL     1      -2.510  12.450  20.026  0.00  0.00    +0.000 A 
ATOM     23  C   UNL     1      -2.245  12.664  21.356  0.00  0.00    +0.000 A 
ATOM     24  C   UNL     1      -1.196  12.038  21.986  0.00  0.00    +0.000 A 
ATOM     25  C   UNL     1      -0.366  11.154  21.325  0.00  0.00    +0.000 A 
ATOM     26  O   UNL     1      -1.110  12.376  23.303  0.00  0.00    +0.000 OA
ATOM     27  C   UNL     1      -2.343  13.106  23.461  0.00  0.00    +0.000 C 
ATOM     28  O   UNL     1      -2.953  13.460  22.202  0.00  0.00    +0.000 OA
ENDBRANCH  18  20
ENDBRANCH  15  16
ENDBRANCH   1  15
TORSDOF 6
ENDMDL
MODEL 5
REMARK VINA RESULT:      -8.0      1.180      1.644
REMARK  Name = 
REMARK  8 active torsions:
REMARK  status: ('A' for Active; 'I' for Inactive)
REMARK    1  A    between atoms: C_1  and  C_2
REMARK    2  A    between atoms: C_2  and  C_3
REMARK    3  A    between atoms: C_2  and  C_4
REMARK    4  A    between atoms: C_4  and  N_5
REMARK    5  A    between atoms: C_6  and  S_7
REMARK    6  A    between atoms: S_7  and  C_8
REMARK    7  A    between atoms: C_8  and  C_9
REMARK    8  A    between atoms: N_11  and  C_12
REMARK                            x       y       z     vdW  Elec       q    Type
REMARK                         _______ _______ _______ _____ _____    ______ ____
ROOT
ATOM      1  S   UNL     1       7.628   5.113  17.501  0.00  0.00    +0.000 S 
ENDROOT
BRANCH   1   3
ATOM      2  N   UNL     1       4.990   4.412  16.915  0.00  0.00    +0.000 N 
ATOM      3  C   UNL     1       6.018   4.521  17.828  0.00  0.00    +0.000 A 
ATOM      4  N   UNL     1       5.651   4.107  19.019  0.00  0.00    +0.000 NA
ATOM      5  C   UNL     1       4.375   3.635  18.872  0.00  0.00    +0.000 A 
ATOM      6  C   UNL     1       3.510   3.086  19.827  0.00  0.00    +0.000 A 
ATOM      7  C   UNL     1       2.241   2.652  19.421  0.00  0.00    +0.000 A 
ATOM      8  C   UNL     1       1.854   2.734  18.084  0.00  0.00    +0.000 A 
ATOM      9  C   UNL     1       2.708   3.270  17.118  0.00  0.00    +0.000 A 
ATOM     10  C   UNL     1       3.955   3.744  17.551  0.00  0.00    +0.000 A 
BRANCH   2  11
ATOM     11  C   UNL     1       4.912   4.830  15.528  0.00  0.00    +0.000 C 
BRANCH  11  13
ATOM     12  C   UNL     1       5.124   3.636  13.213  0.00  0.00    +0.000 C 
ATOM     13  C   UNL     1       5.806   4.073  14.514  0.00  0.00    +0.000 C 
ATOM     14  C   UNL     1       7.071   4.865  14.193  0.00  0.00    +0.000 C 
ENDBRANCH  11  13
ENDBRANCH   2  11
ENDBRANCH   1   3
BRANCH   1  15
ATOM     15  C   UNL     1       7.258   6.904  17.304  0.00  0.00    +0.000 C 
BRANCH  15  16
ATOM     16  C   UNL     1       8.060   7.869  18.179  0.00  0.00    +0.000 C 
ATOM     17  O   UNL     1       8.686   7.429  19.142  0.00  0.00    +0.000 OA
ATOM     18  N   UNL     1       7.998   9.203  17.836  0.00  0.00    +0.000 N 
ATOM     19  H   UNL     1       7.360   9.423  17.080  0.00  0.00    +0.000 HD
BRANCH  18  20
ATOM     20  C   UNL     1       8.693  10.289  18.416  0.00  0.00    +0.000 A 
ATOM     21  C   UNL     1       9.413  10.221  19.628  0.00  0.00    +0.000 A 
ATOM     22  C   UNL     1      10.122  11.335  20.116  0.00  0.00    +0.000 A 
ATOM     23  C   UNL     1      10.100  12.486  19.370  0.00  0.00    +0.000 A 
ATOM     24  C   UNL     1       9.389  12.564  18.196  0.00  0.00    +0.000 A 
ATOM     25  C   UNL     1       8.675  11.491  17.699  0.00  0.00    +0.000 A 
ATOM     26  O   UNL     1       9.503  13.785  17.603  0.00  0.00    +0.000 OA
ATOM     27  C   UNL     1      10.529  14.374  18.427  0.00  0.00    +0.000 C 
ATOM     28  O   UNL     1      10.758  13.644  19.650  0.00  0.00    +0.000 OA
ENDBRANCH  18  20
ENDBRANCH  15  16
ENDBRANCH   1  15
TORSDOF 6
ENDMDL
MODEL 6
REMARK VINA RESULT:      -8.0      6.362      8.137
REMARK  Name = 
REMARK  8 active torsions:
REMARK  status: ('A' for Active; 'I' for Inactive)
REMARK    1  A    between atoms: C_1  and  C_2
REMARK    2  A    between atoms: C_2  and  C_3
REMARK    3  A    between atoms: C_2  and  C_4
REMARK    4  A    between atoms: C_4  and  N_5
REMARK    5  A    between atoms: C_6  and  S_7
REMARK    6  A    between atoms: S_7  and  C_8
REMARK    7  A    between atoms: C_8  and  C_9
REMARK    8  A    between atoms: N_11  and  C_12
REMARK                            x       y       z     vdW  Elec       q    Type
REMARK                         _______ _______ _______ _____ _____    ______ ____
ROOT
ATOM      1  S   UNL     1       2.038   7.573  19.572  0.00  0.00    +0.000 S 
ENDROOT
BRANCH   1   3
ATOM      2  N   UNL     1       3.415   5.372  18.545  0.00  0.00    +0.000 N 
ATOM      3  C   UNL     1       3.123   6.719  18.503  0.00  0.00    +0.000 A 
ATOM      4  N   UNL     1       3.763   7.321  17.526  0.00  0.00    +0.000 NA
ATOM      5  C   UNL     1       4.431   6.333  16.855  0.00  0.00    +0.000 A 
ATOM      6  C   UNL     1       5.272   6.423  15.738  0.00  0.00    +0.000 A 
ATOM      7  C   UNL     1       5.830   5.249  15.216  0.00  0.00    +0.000 A 
ATOM      8  C   UNL     1       5.532   4.007  15.775  0.00  0.00    +0.000 A 
ATOM      9  C   UNL     1       4.689   3.900  16.883  0.00  0.00    +0.000 A 
ATOM     10  C   UNL     1       4.178   5.090  17.423  0.00  0.00    +0.000 A 
BRANCH   2  11
ATOM     11  C   UNL     1       3.019   4.351  19.496  0.00  0.00    +0.000 C 
BRANCH  11  13
ATOM     12  C   UNL     1       1.585   2.447  18.422  0.00  0.00    +0.000 C 
ATOM     13  C   UNL     1       1.624   3.707  19.296  0.00  0.00    +0.000 C 
ATOM     14  C   UNL     1       0.945   3.427  20.633  0.00  0.00    +0.000 C 
ENDBRANCH  11  13
ENDBRANCH   2  11
ENDBRANCH   1   3
BRANCH   1  15
ATOM     15  C   UNL     1       1.643   9.022  18.510  0.00  0.00    +0.000 C 
BRANCH  15  16
ATOM     16  C   UNL     1       0.700  10.069  19.104  0.00  0.00    +0.000 C 
ATOM     17  O   UNL     1      -0.305  10.399  18.476  0.00  0.00    +0.000 OA
ATOM     18  N   UNL     1       1.067  10.605  20.321  0.00  0.00    +0.000 N 
ATOM     19  H   UNL     1       1.972  10.308  20.665  0.00  0.00    +0.000 HD
BRANCH  18  20
ATOM     20  C   UNL     1       0.351  11.521  21.124  0.00  0.00    +0.000 A 
ATOM     21  C   UNL     1       0.582  12.914  21.147  0.00  0.00    +0.000 A 
ATOM     22  C   UNL     1      -0.208  13.769  21.939  0.00  0.00    +0.000 A 
ATOM     23  C   UNL     1      -1.218  13.206  22.679  0.00  0.00    +0.000 A 
ATOM     24  C   UNL     1      -1.439  11.849  22.673  0.00  0.00    +0.000 A 
ATOM     25  C   UNL     1      -0.672  10.986  21.915  0.00  0.00    +0.000 A 
ATOM     26  O   UNL     1      -2.490  11.494  23.462  0.00  0.00    +0.000 OA
ATOM     27  C   UNL     1      -3.021  12.796  23.783  0.00  0.00    +0.000 C 
ATOM     28  O   UNL     1      -2.111  13.869  23.462  0.00  0.00    +0.000 OA
ENDBRANCH  18  20
ENDBRANCH  15  16
ENDBRANCH   1  15
TORSDOF 6
ENDMDL
MODEL 7
REMARK VINA RESULT:      -7.9      1.220      1.690
REMARK  Name = 
REMARK  8 active torsions:
REMARK  status: ('A' for Active; 'I' for Inactive)
REMARK    1  A    between atoms: C_1  and  C_2
REMARK    2  A    between atoms: C_2  and  C_3
REMARK    3  A    between atoms: C_2  and  C_4
REMARK    4  A    between atoms: C_4  and  N_5
REMARK    5  A    between atoms: C_6  and  S_7
REMARK    6  A    between atoms: S_7  and  C_8
REMARK    7  A    between atoms: C_8  and  C_9
REMARK    8  A    between atoms: N_11  and  C_12
REMARK                            x       y       z     vdW  Elec       q    Type
REMARK                         _______ _______ _______ _____ _____    ______ ____
ROOT
ATOM      1  S   UNL     1       7.444   6.263  16.727  0.00  0.00    +0.000 S 
ENDROOT
BRANCH   1   3
ATOM      2  N   UNL     1       5.236   4.572  16.484  0.00  0.00    +0.000 N 
ATOM      3  C   UNL     1       5.838   5.667  17.067  0.00  0.00    +0.000 A 
ATOM      4  N   UNL     1       5.051   6.237  17.951  0.00  0.00    +0.000 NA
ATOM      5  C   UNL     1       3.933   5.451  18.014  0.00  0.00    +0.000 A 
ATOM      6  C   UNL     1       2.776   5.604  18.790  0.00  0.00    +0.000 A 
ATOM      7  C   UNL     1       1.763   4.641  18.690  0.00  0.00    +0.000 A 
ATOM      8  C   UNL     1       1.912   3.532  17.858  0.00  0.00    +0.000 A 
ATOM      9  C   UNL     1       3.062   3.361  17.086  0.00  0.00    +0.000 A 
ATOM     10  C   UNL     1       4.045   4.359  17.161  0.00  0.00    +0.000 A 
BRANCH   2  11
ATOM     11  C   UNL     1       5.685   3.710  15.407  0.00  0.00    +0.000 C 
BRANCH  11  13
ATOM     12  C   UNL     1       7.204   4.759  13.556  0.00  0.00    +0.000 C 
ATOM     13  C   UNL     1       5.795   4.346  13.998  0.00  0.00    +0.000 C 
ATOM     14  C   UNL     1       5.163   3.451  12.936  0.00  0.00    +0.000 C 
ENDBRANCH  11  13
ENDBRANCH   2  11
ENDBRANCH   1   3
BRANCH   1  15
ATOM     15  C   UNL     1       7.806   7.090  18.330  0.00  0.00    +0.000 C 
BRANCH  15  16
ATOM     16  C   UNL     1       8.083   8.593  18.277  0.00  0.00    +0.000 C 
ATOM     17  O   UNL     1       7.466   9.291  17.475  0.00  0.00    +0.000 OA
ATOM     18  N   UNL     1       9.054   9.067  19.135  0.00  0.00    +0.000 N 
ATOM     19  H   UNL     1       9.546   8.356  19.662  0.00  0.00    +0.000 HD
BRANCH  18  20
ATOM     20  C   UNL     1       9.453  10.406  19.350  0.00  0.00    +0.000 A 
ATOM     21  C   UNL     1       9.458  11.047  20.607  0.00  0.00    +0.000 A 
ATOM     22  C   UNL     1       9.919  12.370  20.747  0.00  0.00    +0.000 A 
ATOM     23  C   UNL     1      10.374  13.013  19.623  0.00  0.00    +0.000 A 
ATOM     24  C   UNL     1      10.359  12.399  18.393  0.00  0.00    +0.000 A 
ATOM     25  C   UNL     1       9.902  11.107  18.224  0.00  0.00    +0.000 A 
ATOM     26  O   UNL     1      10.861  13.199  17.411  0.00  0.00    +0.000 OA
ATOM     27  C   UNL     1      11.381  14.284  18.206  0.00  0.00    +0.000 C 
ATOM     28  O   UNL     1      10.900  14.266  19.566  0.00  0.00    +0.000 OA
ENDBRANCH  18  20
ENDBRANCH  15  16
ENDBRANCH   1  15
TORSDOF 6
ENDMDL
MODEL 8
REMARK VINA RESULT:      -7.9      5.858      7.925
REMARK  Name = 
REMARK  8 active torsions:
REMARK  status: ('A' for Active; 'I' for Inactive)
REMARK    1  A    between atoms: C_1  and  C_2
REMARK    2  A    between atoms: C_2  and  C_3
REMARK    3  A    between atoms: C_2  and  C_4
REMARK    4  A    between atoms: C_4  and  N_5
REMARK    5  A    between atoms: C_6  and  S_7
REMARK    6  A    between atoms: S_7  and  C_8
REMARK    7  A    between atoms: C_8  and  C_9
REMARK    8  A    between atoms: N_11  and  C_12
REMARK                            x       y       z     vdW  Elec       q    Type
REMARK                         _______ _______ _______ _____ _____    ______ ____
ROOT
ATOM      1  S   UNL     1       2.490   7.160  18.966  0.00  0.00    +0.000 S 
ENDROOT
BRANCH   1   3
ATOM      2  N   UNL     1       3.499   5.021  17.482  0.00  0.00    +0.000 N 
ATOM      3  C   UNL     1       3.670   6.274  18.032  0.00  0.00    +0.000 A 
ATOM      4  N   UNL     1       4.860   6.761  17.761  0.00  0.00    +0.000 NA
ATOM      5  C   UNL     1       5.460   5.843  16.943  0.00  0.00    +0.000 A 
ATOM      6  C   UNL     1       6.737   5.860  16.368  0.00  0.00    +0.000 A 
ATOM      7  C   UNL     1       7.120   4.797  15.540  0.00  0.00    +0.000 A 
ATOM      8  C   UNL     1       6.237   3.753  15.265  0.00  0.00    +0.000 A 
ATOM      9  C   UNL     1       4.958   3.726  15.824  0.00  0.00    +0.000 A 
ATOM     10  C   UNL     1       4.609   4.774  16.689  0.00  0.00    +0.000 A 
BRANCH   2  11
ATOM     11  C   UNL     1       2.401   4.081  17.600  0.00  0.00    +0.000 C 
BRANCH  11  13
ATOM     12  C   UNL     1       1.062   2.910  19.516  0.00  0.00    +0.000 C 
ATOM     13  C   UNL     1       2.414   3.136  18.829  0.00  0.00    +0.000 C 
ATOM     14  C   UNL     1       3.050   1.792  18.487  0.00  0.00    +0.000 C 
ENDBRANCH  11  13
ENDBRANCH   2  11
ENDBRANCH   1   3
BRANCH   1  15
ATOM     15  C   UNL     1       2.182   8.561  17.814  0.00  0.00    +0.000 C 
BRANCH  15  16
ATOM     16  C   UNL     1       1.544   9.814  18.417  0.00  0.00    +0.000 C 
ATOM     17  O   UNL     1       2.039  10.915  18.180  0.00  0.00    +0.000 OA
ATOM     18  N   UNL     1       0.446   9.613  19.228  0.00  0.00    +0.000 N 
ATOM     19  H   UNL     1       0.219   8.643  19.410  0.00  0.00    +0.000 HD
BRANCH  18  20
ATOM     20  C   UNL     1      -0.375  10.584  19.845  0.00  0.00    +0.000 A 
ATOM     21  C   UNL     1      -1.363  11.337  19.176  0.00  0.00    +0.000 A 
ATOM     22  C   UNL     1      -2.177  12.252  19.872  0.00  0.00    +0.000 A 
ATOM     23  C   UNL     1      -1.986  12.378  21.225  0.00  0.00    +0.000 A 
ATOM     24  C   UNL     1      -1.016  11.658  21.881  0.00  0.00    +0.000 A 
ATOM     25  C   UNL     1      -0.196  10.763  21.222  0.00  0.00    +0.000 A 
ATOM     26  O   UNL     1      -0.995  11.919  23.217  0.00  0.00    +0.000 OA
ATOM     27  C   UNL     1      -2.193  12.712  23.342  0.00  0.00    +0.000 C 
ATOM     28  O   UNL     1      -2.700  13.168  22.071  0.00  0.00    +0.000 OA
ENDBRANCH  18  20
ENDBRANCH  15  16
ENDBRANCH   1  15
TORSDOF 6
ENDMDL
MODEL 9
REMARK VINA RESULT:      -7.9      2.234      3.690
REMARK  Name = 
REMARK  8 active torsions:
REMARK  status: ('A' for Active; 'I' for Inactive)
REMARK    1  A    between atoms: C_1  and  C_2
REMARK    2  A    between atoms: C_2  and  C_3
REMARK    3  A    between atoms: C_2  and  C_4
REMARK    4  A    between atoms: C_4  and  N_5
REMARK    5  A    between atoms: C_6  and  S_7
REMARK    6  A    between atoms: S_7  and  C_8
REMARK    7  A    between atoms: C_8  and  C_9
REMARK    8  A    between atoms: N_11  and  C_12
REMARK                            x       y       z     vdW  Elec       q    Type
REMARK                         _______ _______ _______ _____ _____    ______ ____
ROOT
ATOM      1  S   UNL     1       5.575   5.057  17.526  0.00  0.00    +0.000 S 
ENDROOT
BRANCH   1   3
ATOM      2  N   UNL     1       3.487   5.958  19.147  0.00  0.00    +0.000 N 
ATOM      3  C   UNL     1       4.273   6.109  18.024  0.00  0.00    +0.000 A 
ATOM      4  N   UNL     1       3.935   7.180  17.340  0.00  0.00    +0.000 NA
ATOM      5  C   UNL     1       2.957   7.795  18.072  0.00  0.00    +0.000 A 
ATOM      6  C   UNL     1       2.242   8.969  17.799  0.00  0.00    +0.000 A 
ATOM      7  C   UNL     1       1.290   9.412  18.727  0.00  0.00    +0.000 A 
ATOM      8  C   UNL     1       1.077   8.718  19.917  0.00  0.00    +0.000 A 
ATOM      9  C   UNL     1       1.787   7.552  20.208  0.00  0.00    +0.000 A 
ATOM     10  C   UNL     1       2.702   7.096  19.246  0.00  0.00    +0.000 A 
BRANCH   2  11
ATOM     11  C   UNL     1       3.439   4.890  20.127  0.00  0.00    +0.000 C 
BRANCH  11  13
ATOM     12  C   UNL     1       2.686   2.553  19.227  0.00  0.00    +0.000 C 
ATOM     13  C   UNL     1       2.308   3.841  19.968  0.00  0.00    +0.000 C 
ATOM     14  C   UNL     1       1.681   3.495  21.315  0.00  0.00    +0.000 C 
ENDBRANCH  11  13
ENDBRANCH   2  11
ENDBRANCH   1   3
BRANCH   1  15
ATOM     15  C   UNL     1       6.686   6.298  16.745  0.00  0.00    +0.000 C 
BRANCH  15  16
ATOM     16  C   UNL     1       7.489   7.190  17.693  0.00  0.00    +0.000 C 
ATOM     17  O   UNL     1       8.032   6.689  18.676  0.00  0.00    +0.000 OA
ATOM     18  N   UNL     1       7.524   8.535  17.387  0.00  0.00    +0.000 N 
ATOM     19  H   UNL     1       6.944   8.812  16.604  0.00  0.00    +0.000 HD
BRANCH  18  20
ATOM     20  C   UNL     1       8.245   9.562  18.038  0.00  0.00    +0.000 A 
ATOM     21  C   UNL     1       9.016   9.380  19.206  0.00  0.00    +0.000 A 
ATOM     22  C   UNL     1       9.747  10.444  19.768  0.00  0.00    +0.000 A 
ATOM     23  C   UNL     1       9.696  11.661  19.135  0.00  0.00    +0.000 A 
ATOM     24  C   UNL     1       8.935  11.849  18.005  0.00  0.00    +0.000 A 
ATOM     25  C   UNL     1       8.199  10.827  17.440  0.00  0.00    +0.000 A 
ATOM     26  O   UNL     1       9.026  13.121  17.527  0.00  0.00    +0.000 OA
ATOM     27  C   UNL     1      10.088  13.631  18.359  0.00  0.00    +0.000 C 
ATOM     28  O   UNL     1      10.367  12.788  19.496  0.00  0.00    +0.000 OA
ENDBRANCH  18  20
ENDBRANCH  15  16
ENDBRANCH   1  15
TORSDOF 6
ENDMDL
