MODEL 1
REMARK VINA RESULT:      -6.9      0.000      0.000
REMARK  Name = 
REMARK  2 active torsions:
REMARK  status: ('A' for Active; 'I' for Inactive)
REMARK    1  A    between atoms: C_1  and  O_2
REMARK    2  A    between atoms: O_2  and  C_3
REMARK                            x       y       z     vdW  Elec       q    Type
REMARK                         _______ _______ _______ _____ _____    ______ ____
ROOT
ATOM      1  C   UNL     1       1.620   7.982  19.826  0.00  0.00    +0.000 A 
ATOM      2  C   UNL     1       1.503   9.218  19.188  0.00  0.00    +0.000 A 
ATOM      3  C   UNL     1       2.136   9.450  17.973  0.00  0.00    +0.000 A 
ATOM      4  C   UNL     1       2.921   8.459  17.358  0.00  0.00    +0.000 A 
ATOM      5  C   UNL     1       3.065   7.180  17.951  0.00  0.00    +0.000 A 
ATOM      6  C   UNL     1       3.827   5.978  17.622  0.00  0.00    +0.000 A 
ATOM      7  C   UNL     1       4.760   5.513  16.620  0.00  0.00    +0.000 A 
ATOM      8  C   UNL     1       5.385   4.246  16.815  0.00  0.00    +0.000 A 
ATOM      9  C   UNL     1       5.039   3.431  17.894  0.00  0.00    +0.000 A 
ATOM     10  C   UNL     1       4.082   3.828  18.799  0.00  0.00    +0.000 A 
ATOM     11  C   UNL     1       3.523   5.096  18.656  0.00  0.00    +0.000 A 
ATOM     12  N   UNL     1       2.619   5.651  19.541  0.00  0.00    +0.000 N 
ATOM     13  C   UNL     1       2.387   6.970  19.184  0.00  0.00    +0.000 A 
ATOM     14  C   UNL     1       2.099   4.863  20.612  0.00  0.00    +0.000 C 
ATOM     15  O   UNL     1       1.447   5.330  21.531  0.00  0.00    +0.000 OA
ATOM     16  C   UNL     1       2.303   3.379  20.426  0.00  0.00    +0.000 C 
ATOM     17  C   UNL     1       3.712   3.004  19.998  0.00  0.00    +0.000 C 
ATOM     18  C   UNL     1       6.553   3.779  15.983  0.00  0.00    +0.000 C 
ATOM     19  N   UNL     1       6.519   4.158  14.588  0.00  0.00    +0.000 NA
ATOM     20  C   UNL     1       6.047   5.513  14.333  0.00  0.00    +0.000 C 
ATOM     21  C   UNL     1       5.207   6.287  15.391  0.00  0.00    +0.000 C 
ATOM     22  H   UNL     1       5.976   3.480  14.058  0.00  0.00    +0.000 HD
ENDROOT
BRANCH   1  24
ATOM     23  C   UNL     1       0.111   8.590  21.596  0.00  0.00    +0.000 C 
ATOM     24  O   UNL     1       1.122   7.742  21.073  0.00  0.00    +0.000 OA
ENDBRANCH   1  24
TORSDOF 1
ENDMDL
MODEL 2
REMARK VINA RESULT:      -6.8      2.244      5.800
REMARK  Name = 
REMARK  2 active torsions:
REMARK  status: ('A' for Active; 'I' for Inactive)
REMARK    1  A    between atoms: C_1  and  O_2
REMARK    2  A    between atoms: O_2  and  C_3
REMARK                            x       y       z     vdW  Elec       q    Type
REMARK                         _______ _______ _______ _____ _____    ______ ____
ROOT
ATOM      1  C   UNL     1       3.578   3.082  20.095  0.00  0.00    +0.000 A 
ATOM      2  C   UNL     1       2.778   2.771  21.196  0.00  0.00    +0.000 A 
ATOM      3  C   UNL     1       1.826   3.674  21.657  0.00  0.00    +0.000 A 
ATOM      4  C   UNL     1       1.650   4.926  21.042  0.00  0.00    +0.000 A 
ATOM      5  C   UNL     1       2.423   5.291  19.911  0.00  0.00    +0.000 A 
ATOM      6  C   UNL     1       2.534   6.495  19.091  0.00  0.00    +0.000 A 
ATOM      7  C   UNL     1       1.976   7.828  19.021  0.00  0.00    +0.000 A 
ATOM      8  C   UNL     1       2.538   8.747  18.087  0.00  0.00    +0.000 A 
ATOM      9  C   UNL     1       3.537   8.349  17.197  0.00  0.00    +0.000 A 
ATOM     10  C   UNL     1       4.005   7.055  17.196  0.00  0.00    +0.000 A 
ATOM     11  C   UNL     1       3.515   6.174  18.156  0.00  0.00    +0.000 A 
ATOM     12  N   UNL     1       3.961   4.876  18.321  0.00  0.00    +0.000 N 
ATOM     13  C   UNL     1       3.373   4.336  19.454  0.00  0.00    +0.000 A 
ATOM     14  C   UNL     1       4.890   4.323  17.390  0.00  0.00    +0.000 C 
ATOM     15  O   UNL     1       5.465   3.262  17.569  0.00  0.00    +0.000 OA
ATOM     16  C   UNL     1       4.985   5.095  16.096  0.00  0.00    +0.000 C 
ATOM     17  C   UNL     1       5.110   6.597  16.288  0.00  0.00    +0.000 C 
ATOM     18  C   UNL     1       2.218  10.221  18.104  0.00  0.00    +0.000 C 
ATOM     19  N   UNL     1       0.855  10.560  18.447  0.00  0.00    +0.000 NA
ATOM     20  C   UNL     1       0.276   9.764  19.522  0.00  0.00    +0.000 C 
ATOM     21  C   UNL     1       0.877   8.381  19.912  0.00  0.00    +0.000 C 
ATOM     22  H   UNL     1       0.269  10.527  17.616  0.00  0.00    +0.000 HD
ENDROOT
BRANCH   1  24
ATOM     23  C   UNL     1       5.133   1.309  20.561  0.00  0.00    +0.000 C 
ATOM     24  O   UNL     1       4.605   2.288  19.678  0.00  0.00    +0.000 OA
ENDBRANCH   1  24
TORSDOF 1
ENDMDL
MODEL 3
REMARK VINA RESULT:      -6.5      7.696     10.977
REMARK  Name = 
REMARK  2 active torsions:
REMARK  status: ('A' for Active; 'I' for Inactive)
REMARK    1  A    between atoms: C_1  and  O_2
REMARK    2  A    between atoms: O_2  and  C_3
REMARK                            x       y       z     vdW  Elec       q    Type
REMARK                         _______ _______ _______ _____ _____    ______ ____
ROOT
ATOM      1  C   UNL     1      -3.550  11.204  17.384  0.00  0.00    +0.000 A 
ATOM      2  C   UNL     1      -4.808  11.443  16.827  0.00  0.00    +0.000 A 
ATOM      3  C   UNL     1      -5.773  12.148  17.536  0.00  0.00    +0.000 A 
ATOM      4  C   UNL     1      -5.521  12.627  18.833  0.00  0.00    +0.000 A 
ATOM      5  C   UNL     1      -4.259  12.426  19.445  0.00  0.00    +0.000 A 
ATOM      6  C   UNL     1      -3.697  12.731  20.759  0.00  0.00    +0.000 A 
ATOM      7  C   UNL     1      -4.103  13.326  22.013  0.00  0.00    +0.000 A 
ATOM      8  C   UNL     1      -3.202  13.258  23.116  0.00  0.00    +0.000 A 
ATOM      9  C   UNL     1      -1.924  12.717  22.969  0.00  0.00    +0.000 A 
ATOM     10  C   UNL     1      -1.498  12.235  21.753  0.00  0.00    +0.000 A 
ATOM     11  C   UNL     1      -2.399  12.229  20.692  0.00  0.00    +0.000 A 
ATOM     12  N   UNL     1      -2.130  11.696  19.446  0.00  0.00    +0.000 N 
ATOM     13  C   UNL     1      -3.287  11.719  18.684  0.00  0.00    +0.000 A 
ATOM     14  C   UNL     1      -0.816  11.228  19.144  0.00  0.00    +0.000 C 
ATOM     15  O   UNL     1      -0.549  10.584  18.143  0.00  0.00    +0.000 OA
ATOM     16  C   UNL     1       0.240  11.729  20.099  0.00  0.00    +0.000 C 
ATOM     17  C   UNL     1      -0.149  11.603  21.563  0.00  0.00    +0.000 C 
ATOM     18  C   UNL     1      -3.614  13.608  24.524  0.00  0.00    +0.000 C 
ATOM     19  N   UNL     1      -4.542  14.709  24.649  0.00  0.00    +0.000 NA
ATOM     20  C   UNL     1      -5.598  14.737  23.645  0.00  0.00    +0.000 C 
ATOM     21  C   UNL     1      -5.451  13.964  22.300  0.00  0.00    +0.000 C 
ATOM     22  H   UNL     1      -4.035  15.590  24.666  0.00  0.00    +0.000 HD
ENDROOT
BRANCH   1  24
ATOM     23  C   UNL     1      -2.777  10.049  15.422  0.00  0.00    +0.000 C 
ATOM     24  O   UNL     1      -2.612  10.417  16.783  0.00  0.00    +0.000 OA
ENDBRANCH   1  24
TORSDOF 1
ENDMDL
MODEL 4
REMARK VINA RESULT:      -6.4      9.716     11.579
REMARK  Name = 
REMARK  2 active torsions:
REMARK  status: ('A' for Active; 'I' for Inactive)
REMARK    1  A    between atoms: C_1  and  O_2
REMARK    2  A    between atoms: O_2  and  C_3
REMARK                            x       y       z     vdW  Elec       q    Type
REMARK                         _______ _______ _______ _____ _____    ______ ____
ROOT
ATOM      1  C   UNL     1      10.885  13.743  18.579  0.00  0.00    +0.000 A 
ATOM      2  C   UNL     1      11.850  12.768  18.843  0.00  0.00    +0.000 A 
ATOM      3  C   UNL     1      11.702  11.900  19.918  0.00  0.00    +0.000 A 
ATOM      4  C   UNL     1      10.592  11.983  20.776  0.00  0.00    +0.000 A 
ATOM      5  C   UNL     1       9.573  12.942  20.549  0.00  0.00    +0.000 A 
ATOM      6  C   UNL     1       8.353  13.327  21.255  0.00  0.00    +0.000 A 
ATOM      7  C   UNL     1       7.622  12.974  22.452  0.00  0.00    +0.000 A 
ATOM      8  C   UNL     1       6.503  13.778  22.821  0.00  0.00    +0.000 A 
ATOM      9  C   UNL     1       6.064  14.820  22.004  0.00  0.00    +0.000 A 
ATOM     10  C   UNL     1       6.699  15.099  20.815  0.00  0.00    +0.000 A 
ATOM     11  C   UNL     1       7.837  14.368  20.487  0.00  0.00    +0.000 A 
ATOM     12  N   UNL     1       8.617  14.603  19.370  0.00  0.00    +0.000 N 
ATOM     13  C   UNL     1       9.746  13.801  19.429  0.00  0.00    +0.000 A 
ATOM     14  C   UNL     1       8.195  15.560  18.399  0.00  0.00    +0.000 C 
ATOM     15  O   UNL     1       8.909  15.953  17.492  0.00  0.00    +0.000 OA
ATOM     16  C   UNL     1       6.736  15.932  18.510  0.00  0.00    +0.000 C 
ATOM     17  C   UNL     1       6.288  16.239  19.929  0.00  0.00    +0.000 C 
ATOM     18  C   UNL     1       5.833  13.667  24.168  0.00  0.00    +0.000 C 
ATOM     19  N   UNL     1       5.746  12.332  24.715  0.00  0.00    +0.000 NA
ATOM     20  C   UNL     1       6.935  11.511  24.519  0.00  0.00    +0.000 C 
ATOM     21  C   UNL     1       7.978  11.856  23.416  0.00  0.00    +0.000 C 
ATOM     22  H   UNL     1       4.919  11.862  24.356  0.00  0.00    +0.000 HD
ENDROOT
BRANCH   1  24
ATOM     23  C   UNL     1      12.306  15.311  17.438  0.00  0.00    +0.000 C 
ATOM     24  O   UNL     1      11.039  14.695  17.615  0.00  0.00    +0.000 OA
ENDBRANCH   1  24
TORSDOF 1
ENDMDL
MODEL 5
REMARK VINA RESULT:      -6.4      9.844     12.044
REMARK  Name = 
REMARK  2 active torsions:
REMARK  status: ('A' for Active; 'I' for Inactive)
REMARK    1  A    between atoms: C_1  and  O_2
REMARK    2  A    between atoms: O_2  and  C_3
REMARK                            x       y       z     vdW  Elec       q    Type
REMARK                         _______ _______ _______ _____ _____    ______ ____
ROOT
ATOM      1  C   UNL     1      10.469  12.878  18.188  0.00  0.00    +0.000 A 
ATOM      2  C   UNL     1      10.295  11.535  17.846  0.00  0.00    +0.000 A 
ATOM      3  C   UNL     1       9.695  10.651  18.735  0.00  0.00    +0.000 A 
ATOM      4  C   UNL     1       9.259  11.074  20.003  0.00  0.00    +0.000 A 
ATOM      5  C   UNL     1       9.396  12.428  20.400  0.00  0.00    +0.000 A 
ATOM      6  C   UNL     1       9.112  13.170  21.626  0.00  0.00    +0.000 A 
ATOM      7  C   UNL     1       8.606  12.929  22.959  0.00  0.00    +0.000 A 
ATOM      8  C   UNL     1       8.659  13.997  23.904  0.00  0.00    +0.000 A 
ATOM      9  C   UNL     1       9.101  15.267  23.531  0.00  0.00    +0.000 A 
ATOM     10  C   UNL     1       9.495  15.525  22.239  0.00  0.00    +0.000 A 
ATOM     11  C   UNL     1       9.517  14.470  21.331  0.00  0.00    +0.000 A 
ATOM     12  N   UNL     1       9.972  14.572  20.030  0.00  0.00    +0.000 N 
ATOM     13  C   UNL     1       9.996  13.310  19.459  0.00  0.00    +0.000 A 
ATOM     14  C   UNL     1      10.330  15.848  19.503  0.00  0.00    +0.000 C 
ATOM     15  O   UNL     1      10.907  15.994  18.438  0.00  0.00    +0.000 OA
ATOM     16  C   UNL     1       9.799  17.008  20.310  0.00  0.00    +0.000 C 
ATOM     17  C   UNL     1      10.019  16.864  21.807  0.00  0.00    +0.000 C 
ATOM     18  C   UNL     1       8.405  13.791  25.376  0.00  0.00    +0.000 C 
ATOM     19  N   UNL     1       7.380  12.826  25.705  0.00  0.00    +0.000 NA
ATOM     20  C   UNL     1       7.381  11.625  24.879  0.00  0.00    +0.000 C 
ATOM     21  C   UNL     1       8.079  11.606  23.487  0.00  0.00    +0.000 C 
ATOM     22  H   UNL     1       6.466  13.272  25.693  0.00  0.00    +0.000 HD
ENDROOT
BRANCH   1  24
ATOM     23  C   UNL     1      12.332  13.323  16.736  0.00  0.00    +0.000 C 
ATOM     24  O   UNL     1      11.159  13.757  17.407  0.00  0.00    +0.000 OA
ENDBRANCH   1  24
TORSDOF 1
ENDMDL
MODEL 6
REMARK VINA RESULT:      -6.3      3.911      6.647
REMARK  Name = 
REMARK  2 active torsions:
REMARK  status: ('A' for Active; 'I' for Inactive)
REMARK    1  A    between atoms: C_1  and  O_2
REMARK    2  A    between atoms: O_2  and  C_3
REMARK                            x       y       z     vdW  Elec       q    Type
REMARK                         _______ _______ _______ _____ _____    ______ ____
ROOT
ATOM      1  C   UNL     1       0.437  14.192  20.518  0.00  0.00    +0.000 A 
ATOM      2  C   UNL     1       0.939  14.865  19.403  0.00  0.00    +0.000 A 
ATOM      3  C   UNL     1       1.526  14.162  18.357  0.00  0.00    +0.000 A 
ATOM      4  C   UNL     1       1.643  12.761  18.394  0.00  0.00    +0.000 A 
ATOM      5  C   UNL     1       1.138  12.023  19.494  0.00  0.00    +0.000 A 
ATOM      6  C   UNL     1       1.144  10.611  19.869  0.00  0.00    +0.000 A 
ATOM      7  C   UNL     1       1.638   9.347  19.369  0.00  0.00    +0.000 A 
ATOM      8  C   UNL     1       1.525   8.199  20.208  0.00  0.00    +0.000 A 
ATOM      9  C   UNL     1       0.873   8.268  21.440  0.00  0.00    +0.000 A 
ATOM     10  C   UNL     1       0.318   9.448  21.878  0.00  0.00    +0.000 A 
ATOM     11  C   UNL     1       0.491  10.589  21.099  0.00  0.00    +0.000 A 
ATOM     12  N   UNL     1       0.062  11.851  21.462  0.00  0.00    +0.000 N 
ATOM     13  C   UNL     1       0.527  12.772  20.537  0.00  0.00    +0.000 A 
ATOM     14  C   UNL     1      -0.725  12.020  22.641  0.00  0.00    +0.000 C 
ATOM     15  O   UNL     1      -0.983  13.111  23.123  0.00  0.00    +0.000 OA
ATOM     16  C   UNL     1      -1.332  10.737  23.154  0.00  0.00    +0.000 C 
ATOM     17  C   UNL     1      -0.351   9.578  23.216  0.00  0.00    +0.000 C 
ATOM     18  C   UNL     1       2.229   6.900  19.905  0.00  0.00    +0.000 C 
ATOM     19  N   UNL     1       2.311   6.544  18.506  0.00  0.00    +0.000 NA
ATOM     20  C   UNL     1       2.596   7.655  17.607  0.00  0.00    +0.000 C 
ATOM     21  C   UNL     1       2.346   9.129  18.043  0.00  0.00    +0.000 C 
ATOM     22  H   UNL     1       1.464   6.057  18.222  0.00  0.00    +0.000 HD
ENDROOT
BRANCH   1  24
ATOM     23  C   UNL     1       0.166  16.238  21.751  0.00  0.00    +0.000 C 
ATOM     24  O   UNL     1      -0.036  14.838  21.622  0.00  0.00    +0.000 OA
ENDBRANCH   1  24
TORSDOF 1
ENDMDL
MODEL 7
REMARK VINA RESULT:      -6.3      8.686     11.875
REMARK  Name = 
REMARK  2 active torsions:
REMARK  status: ('A' for Active; 'I' for Inactive)
REMARK    1  A    between atoms: C_1  and  O_2
REMARK    2  A    between atoms: O_2  and  C_3
REMARK                            x       y       z     vdW  Elec       q    Type
REMARK                         _______ _______ _______ _____ _____    ______ ____
ROOT
ATOM      1  C   UNL     1      -3.295  11.423  17.719  0.00  0.00    +0.000 A 
ATOM      2  C   UNL     1      -1.916  11.441  17.503  0.00  0.00    +0.000 A 
ATOM      3  C   UNL     1      -1.054  11.938  18.474  0.00  0.00    +0.000 A 
ATOM      4  C   UNL     1      -1.541  12.447  19.690  0.00  0.00    +0.000 A 
ATOM      5  C   UNL     1      -2.930  12.443  19.971  0.00  0.00    +0.000 A 
ATOM      6  C   UNL     1      -3.754  12.931  21.075  0.00  0.00    +0.000 A 
ATOM      7  C   UNL     1      -3.598  13.627  22.334  0.00  0.00    +0.000 A 
ATOM      8  C   UNL     1      -4.775  14.040  23.026  0.00  0.00    +0.000 A 
ATOM      9  C   UNL     1      -6.044  13.703  22.554  0.00  0.00    +0.000 A 
ATOM     10  C   UNL     1      -6.195  12.959  21.407  0.00  0.00    +0.000 A 
ATOM     11  C   UNL     1      -5.054  12.618  20.686  0.00  0.00    +0.000 A 
ATOM     12  N   UNL     1      -5.069  11.950  19.476  0.00  0.00    +0.000 N 
ATOM     13  C   UNL     1      -3.782  11.909  18.965  0.00  0.00    +0.000 A 
ATOM     14  C   UNL     1      -6.301  11.448  18.959  0.00  0.00    +0.000 C 
ATOM     15  O   UNL     1      -6.424  11.016  17.825  0.00  0.00    +0.000 OA
ATOM     16  C   UNL     1      -7.401  11.362  19.990  0.00  0.00    +0.000 C 
ATOM     17  C   UNL     1      -7.542  12.614  20.840  0.00  0.00    +0.000 C 
ATOM     18  C   UNL     1      -4.736  14.987  24.199  0.00  0.00    +0.000 C 
ATOM     19  N   UNL     1      -3.607  14.834  25.090  0.00  0.00    +0.000 NA
ATOM     20  C   UNL     1      -2.334  14.578  24.427  0.00  0.00    +0.000 C 
ATOM     21  C   UNL     1      -2.280  14.035  22.969  0.00  0.00    +0.000 C 
ATOM     22  H   UNL     1      -3.806  14.115  25.782  0.00  0.00    +0.000 HD
ENDROOT
BRANCH   1  24
ATOM     23  C   UNL     1      -3.726  10.755  15.450  0.00  0.00    +0.000 C 
ATOM     24  O   UNL     1      -4.190  11.062  16.756  0.00  0.00    +0.000 OA
ENDBRANCH   1  24
TORSDOF 1
ENDMDL
MODEL 8
REMARK VINA RESULT:      -6.3      3.280      6.168
REMARK  Name = 
REMARK  2 active torsions:
REMARK  status: ('A' for Active; 'I' for Inactive)
REMARK    1  A    between atoms: C_1  and  O_2
REMARK    2  A    between atoms: O_2  and  C_3
REMARK                            x       y       z     vdW  Elec       q    Type
REMARK                         _______ _______ _______ _____ _____    ______ ____
ROOT
ATOM      1  C   UNL     1      -0.587  11.738  21.898  0.00  0.00    +0.000 A 
ATOM      2  C   UNL     1      -1.154  11.205  23.058  0.00  0.00    +0.000 A 
ATOM      3  C   UNL     1      -0.944   9.875  23.401  0.00  0.00    +0.000 A 
ATOM      4  C   UNL     1      -0.171   9.025  22.590  0.00  0.00    +0.000 A 
ATOM      5  C   UNL     1       0.441   9.513  21.409  0.00  0.00    +0.000 A 
ATOM      6  C   UNL     1       1.236   8.909  20.341  0.00  0.00    +0.000 A 
ATOM      7  C   UNL     1       1.751   7.613  19.959  0.00  0.00    +0.000 A 
ATOM      8  C   UNL     1       2.375   7.485  18.683  0.00  0.00    +0.000 A 
ATOM      9  C   UNL     1       2.570   8.596  17.861  0.00  0.00    +0.000 A 
ATOM     10  C   UNL     1       2.167   9.849  18.263  0.00  0.00    +0.000 A 
ATOM     11  C   UNL     1       1.489   9.968  19.473  0.00  0.00    +0.000 A 
ATOM     12  N   UNL     1       0.955  11.150  19.952  0.00  0.00    +0.000 N 
ATOM     13  C   UNL     1       0.223  10.884  21.098  0.00  0.00    +0.000 A 
ATOM     14  C   UNL     1       1.201  12.372  19.257  0.00  0.00    +0.000 C 
ATOM     15  O   UNL     1       0.620  13.414  19.509  0.00  0.00    +0.000 OA
ATOM     16  C   UNL     1       2.351  12.294  18.282  0.00  0.00    +0.000 C 
ATOM     17  C   UNL     1       2.316  11.062  17.392  0.00  0.00    +0.000 C 
ATOM     18  C   UNL     1       2.712   6.146  18.074  0.00  0.00    +0.000 C 
ATOM     19  N   UNL     1       3.161   5.133  19.003  0.00  0.00    +0.000 NA
ATOM     20  C   UNL     1       2.441   5.100  20.270  0.00  0.00    +0.000 C 
ATOM     21  C   UNL     1       1.625   6.331  20.764  0.00  0.00    +0.000 C 
ATOM     22  H   UNL     1       4.162   5.222  19.158  0.00  0.00    +0.000 HD
ENDROOT
BRANCH   1  24
ATOM     23  C   UNL     1      -1.783  13.806  22.166  0.00  0.00    +0.000 C 
ATOM     24  O   UNL     1      -0.858  12.998  21.453  0.00  0.00    +0.000 OA
ENDBRANCH   1  24
TORSDOF 1
ENDMDL
MODEL 9
REMARK VINA RESULT:      -6.2      9.130      9.816
REMARK  Name = 
REMARK  2 active torsions:
REMARK  status: ('A' for Active; 'I' for Inactive)
REMARK    1  A    between atoms: C_1  and  O_2
REMARK    2  A    between atoms: O_2  and  C_3
REMARK                            x       y       z     vdW  Elec       q    Type
REMARK                         _______ _______ _______ _____ _____    ______ ____
ROOT
ATOM      1  C   UNL     1       6.127  16.201  20.965  0.00  0.00    +0.000 A 
ATOM      2  C   UNL     1       5.976  17.172  19.973  0.00  0.00    +0.000 A 
ATOM      3  C   UNL     1       6.750  17.132  18.820  0.00  0.00    +0.000 A 
ATOM      4  C   UNL     1       7.713  16.127  18.621  0.00  0.00    +0.000 A 
ATOM      5  C   UNL     1       7.902  15.107  19.586  0.00  0.00    +0.000 A 
ATOM      6  C   UNL     1       8.824  13.981  19.720  0.00  0.00    +0.000 A 
ATOM      7  C   UNL     1       9.935  13.385  19.012  0.00  0.00    +0.000 A 
ATOM      8  C   UNL     1      10.653  12.329  19.648  0.00  0.00    +0.000 A 
ATOM      9  C   UNL     1      10.241  11.818  20.879  0.00  0.00    +0.000 A 
ATOM     10  C   UNL     1       9.127  12.319  21.513  0.00  0.00    +0.000 A 
ATOM     11  C   UNL     1       8.467  13.400  20.935  0.00  0.00    +0.000 A 
ATOM     12  N   UNL     1       7.392  14.052  21.508  0.00  0.00    +0.000 N 
ATOM     13  C   UNL     1       7.079  15.166  20.745  0.00  0.00    +0.000 A 
ATOM     14  C   UNL     1       6.808  13.539  22.705  0.00  0.00    +0.000 C 
ATOM     15  O   UNL     1       5.986  14.153  23.364  0.00  0.00    +0.000 OA
ATOM     16  C   UNL     1       7.189  12.109  23.001  0.00  0.00    +0.000 C 
ATOM     17  C   UNL     1       8.677  11.830  22.860  0.00  0.00    +0.000 C 
ATOM     18  C   UNL     1      11.970  11.813  19.126  0.00  0.00    +0.000 C 
ATOM     19  N   UNL     1      12.098  11.766  17.686  0.00  0.00    +0.000 NA
ATOM     20  C   UNL     1      11.531  12.910  16.983  0.00  0.00    +0.000 C 
ATOM     21  C   UNL     1      10.472  13.828  17.662  0.00  0.00    +0.000 C 
ATOM     22  H   UNL     1      11.710  10.895  17.332  0.00  0.00    +0.000 HD
ENDROOT
BRANCH   1  24
ATOM     23  C   UNL     1       4.977  17.505  22.624  0.00  0.00    +0.000 C 
ATOM     24  O   UNL     1       5.483  16.261  22.165  0.00  0.00    +0.000 OA
ENDBRANCH   1  24
TORSDOF 1
ENDMDL
