MODEL 1
REMARK VINA RESULT:      -8.3      0.000      0.000
REMARK  Name = 
REMARK  8 active torsions:
REMARK  status: ('A' for Active; 'I' for Inactive)
REMARK    1  A    between atoms: C_1  and  C_2
REMARK    2  A    between atoms: C_2  and  S_3
REMARK    3  A    between atoms: S_3  and  C_4
REMARK    4  A    between atoms: C_7  and  O_8
REMARK    5  A    between atoms: O_8  and  C_9
REMARK    6  A    between atoms: C_9  and  C_10
REMARK    7  A    between atoms: C_15  and  C_16
REMARK    8  A    between atoms: C_21  and  N_22
REMARK                            x       y       z     vdW  Elec       q    Type
REMARK                         _______ _______ _______ _____ _____    ______ ____
ROOT
ATOM      1  C   UNL     1       7.209   6.375  17.158  0.00  0.00    +0.000 A 
ATOM      2  N   UNL     1       7.495   6.097  15.888  0.00  0.00    +0.000 NA
ATOM      3  N   UNL     1       6.632   5.091  15.451  0.00  0.00    +0.000 NA
ATOM      4  C   UNL     1       5.874   4.814  16.472  0.00  0.00    +0.000 A 
ATOM      5  S   UNL     1       4.560   3.786  16.818  0.00  0.00    +0.000 S 
ATOM      6  C   UNL     1       4.536   4.547  18.440  0.00  0.00    +0.000 A 
ATOM      7  N   UNL     1       5.436   5.470  18.679  0.00  0.00    +0.000 NA
ATOM      8  N   UNL     1       6.169   5.581  17.545  0.00  0.00    +0.000 N 
ENDROOT
BRANCH   6   9
ATOM      9  C   UNL     1       3.497   4.152  19.423  0.00  0.00    +0.000 A 
ATOM     10  C   UNL     1       2.350   4.942  19.620  0.00  0.00    +0.000 A 
ATOM     11  C   UNL     1       1.382   4.557  20.549  0.00  0.00    +0.000 A 
ATOM     12  C   UNL     1       1.556   3.395  21.294  0.00  0.00    +0.000 A 
ATOM     13  C   UNL     1       2.692   2.606  21.102  0.00  0.00    +0.000 A 
ATOM     14  C   UNL     1       3.647   2.942  20.136  0.00  0.00    +0.000 A 
BRANCH  14  15
ATOM     15  N   UNL     1       4.838   2.184  20.094  0.00  0.00    +0.000 N 
ATOM     16  H   UNL     1       4.941   1.532  20.865  0.00  0.00    +0.000 HD
ATOM     17  H   UNL     1       4.953   1.712  19.191  0.00  0.00    +0.000 HD
ENDBRANCH  14  15
ENDBRANCH   6   9
BRANCH   1  18
ATOM     18  C   UNL     1       7.845   7.402  18.020  0.00  0.00    +0.000 C 
BRANCH  18  19
ATOM     19  O   UNL     1       7.617   8.681  17.420  0.00  0.00    +0.000 OA
BRANCH  19  23
ATOM     20  C   UNL     1       9.735  11.745  19.325  0.00  0.00    +0.000 A 
ATOM     21  C   UNL     1       9.695  10.446  19.833  0.00  0.00    +0.000 A 
ATOM     22  C   UNL     1       8.969   9.450  19.167  0.00  0.00    +0.000 A 
ATOM     23  C   UNL     1       8.256   9.743  18.003  0.00  0.00    +0.000 A 
ATOM     24  C   UNL     1       8.288  11.043  17.497  0.00  0.00    +0.000 A 
ATOM     25  C   UNL     1       9.018  12.038  18.161  0.00  0.00    +0.000 A 
BRANCH  20  26
ATOM     26  S   UNL     1      10.619  13.054  20.153  0.00  0.00    +0.000 S 
BRANCH  26  28
ATOM     27  C   UNL     1      11.237  15.062  18.396  0.00  0.00    +0.000 C 
ATOM     28  C   UNL     1      11.673  13.659  18.791  0.00  0.00    +0.000 C 
ENDBRANCH  26  28
ENDBRANCH  20  26
ENDBRANCH  19  23
ENDBRANCH  18  19
ENDBRANCH   1  18
TORSDOF 7
ENDMDL
MODEL 2
REMARK VINA RESULT:      -8.2      0.840      1.294
REMARK  Name = 
REMARK  8 active torsions:
REMARK  status: ('A' for Active; 'I' for Inactive)
REMARK    1  A    between atoms: C_1  and  C_2
REMARK    2  A    between atoms: C_2  and  S_3
REMARK    3  A    between atoms: S_3  and  C_4
REMARK    4  A    between atoms: C_7  and  O_8
REMARK    5  A    between atoms: O_8  and  C_9
REMARK    6  A    between atoms: C_9  and  C_10
REMARK    7  A    between atoms: C_15  and  C_16
REMARK    8  A    between atoms: C_21  and  N_22
REMARK                            x       y       z     vdW  Elec       q    Type
REMARK                         _______ _______ _______ _____ _____    ______ ____
ROOT
ATOM      1  C   UNL     1       7.297   6.533  17.252  0.00  0.00    +0.000 A 
ATOM      2  N   UNL     1       7.593   6.319  15.972  0.00  0.00    +0.000 NA
ATOM      3  N   UNL     1       6.729   5.342  15.477  0.00  0.00    +0.000 NA
ATOM      4  C   UNL     1       5.960   5.018  16.475  0.00  0.00    +0.000 A 
ATOM      5  S   UNL     1       4.638   3.981  16.756  0.00  0.00    +0.000 S 
ATOM      6  C   UNL     1       4.603   4.658  18.415  0.00  0.00    +0.000 A 
ATOM      7  N   UNL     1       5.506   5.562  18.709  0.00  0.00    +0.000 NA
ATOM      8  N   UNL     1       6.250   5.727  17.589  0.00  0.00    +0.000 N 
ENDROOT
BRANCH   6   9
ATOM      9  C   UNL     1       3.553   4.219  19.367  0.00  0.00    +0.000 A 
ATOM     10  C   UNL     1       2.399   4.995  19.579  0.00  0.00    +0.000 A 
ATOM     11  C   UNL     1       1.420   4.568  20.479  0.00  0.00    +0.000 A 
ATOM     12  C   UNL     1       1.591   3.379  21.181  0.00  0.00    +0.000 A 
ATOM     13  C   UNL     1       2.735   2.604  20.973  0.00  0.00    +0.000 A 
ATOM     14  C   UNL     1       3.701   2.983  20.034  0.00  0.00    +0.000 A 
BRANCH  14  15
ATOM     15  N   UNL     1       4.897   2.233  19.980  0.00  0.00    +0.000 N 
ATOM     16  H   UNL     1       4.786   1.305  19.585  0.00  0.00    +0.000 HD
ATOM     17  H   UNL     1       5.645   2.751  19.506  0.00  0.00    +0.000 HD
ENDBRANCH  14  15
ENDBRANCH   6   9
BRANCH   1  18
ATOM     18  C   UNL     1       7.931   7.511  18.171  0.00  0.00    +0.000 C 
BRANCH  18  19
ATOM     19  O   UNL     1       7.699   8.822  17.645  0.00  0.00    +0.000 OA
BRANCH  19  23
ATOM     20  C   UNL     1       9.796  12.088  19.206  0.00  0.00    +0.000 A 
ATOM     21  C   UNL     1       9.052  12.181  18.029  0.00  0.00    +0.000 A 
ATOM     22  C   UNL     1       8.369  11.061  17.537  0.00  0.00    +0.000 A 
ATOM     23  C   UNL     1       8.440   9.833  18.198  0.00  0.00    +0.000 A 
ATOM     24  C   UNL     1       9.189   9.737  19.371  0.00  0.00    +0.000 A 
ATOM     25  C   UNL     1       9.869  10.858  19.866  0.00  0.00    +0.000 A 
BRANCH  20  26
ATOM     26  S   UNL     1      10.708  13.476  19.856  0.00  0.00    +0.000 S 
BRANCH  26  28
ATOM     27  C   UNL     1       8.473  14.862  20.621  0.00  0.00    +0.000 C 
ATOM     28  C   UNL     1       9.531  14.832  19.529  0.00  0.00    +0.000 C 
ENDBRANCH  26  28
ENDBRANCH  20  26
ENDBRANCH  19  23
ENDBRANCH  18  19
ENDBRANCH   1  18
TORSDOF 7
ENDMDL
MODEL 3
REMARK VINA RESULT:      -8.0      0.974      1.712
REMARK  Name = 
REMARK  8 active torsions:
REMARK  status: ('A' for Active; 'I' for Inactive)
REMARK    1  A    between atoms: C_1  and  C_2
REMARK    2  A    between atoms: C_2  and  S_3
REMARK    3  A    between atoms: S_3  and  C_4
REMARK    4  A    between atoms: C_7  and  O_8
REMARK    5  A    between atoms: O_8  and  C_9
REMARK    6  A    between atoms: C_9  and  C_10
REMARK    7  A    between atoms: C_15  and  C_16
REMARK    8  A    between atoms: C_21  and  N_22
REMARK                            x       y       z     vdW  Elec       q    Type
REMARK                         _______ _______ _______ _____ _____    ______ ____
ROOT
ATOM      1  C   UNL     1       7.291   6.491  17.236  0.00  0.00    +0.000 A 
ATOM      2  N   UNL     1       7.663   6.240  15.983  0.00  0.00    +0.000 NA
ATOM      3  N   UNL     1       6.810   5.270  15.455  0.00  0.00    +0.000 NA
ATOM      4  C   UNL     1       5.972   4.986  16.408  0.00  0.00    +0.000 A 
ATOM      5  S   UNL     1       4.611   3.984  16.627  0.00  0.00    +0.000 S 
ATOM      6  C   UNL     1       4.486   4.701  18.265  0.00  0.00    +0.000 A 
ATOM      7  N   UNL     1       5.389   5.593  18.596  0.00  0.00    +0.000 NA
ATOM      8  N   UNL     1       6.206   5.715  17.523  0.00  0.00    +0.000 N 
ENDROOT
BRANCH   6   9
ATOM      9  C   UNL     1       3.367   4.308  19.157  0.00  0.00    +0.000 A 
ATOM     10  C   UNL     1       2.993   2.959  19.295  0.00  0.00    +0.000 A 
ATOM     11  C   UNL     1       1.938   2.605  20.139  0.00  0.00    +0.000 A 
ATOM     12  C   UNL     1       1.245   3.589  20.836  0.00  0.00    +0.000 A 
ATOM     13  C   UNL     1       1.613   4.930  20.704  0.00  0.00    +0.000 A 
ATOM     14  C   UNL     1       2.703   5.302  19.909  0.00  0.00    +0.000 A 
BRANCH  14  15
ATOM     15  N   UNL     1       2.931   6.681  19.705  0.00  0.00    +0.000 N 
ATOM     16  H   UNL     1       3.644   7.077  20.309  0.00  0.00    +0.000 HD
ATOM     17  H   UNL     1       3.121   6.890  18.720  0.00  0.00    +0.000 HD
ENDBRANCH  14  15
ENDBRANCH   6   9
BRANCH   1  18
ATOM     18  C   UNL     1       7.887   7.477  18.171  0.00  0.00    +0.000 C 
BRANCH  18  19
ATOM     19  O   UNL     1       7.670   8.783  17.629  0.00  0.00    +0.000 OA
BRANCH  19  23
ATOM     20  C   UNL     1       9.707  12.063  19.240  0.00  0.00    +0.000 A 
ATOM     21  C   UNL     1       8.965  12.159  18.061  0.00  0.00    +0.000 A 
ATOM     22  C   UNL     1       8.302  11.034  17.552  0.00  0.00    +0.000 A 
ATOM     23  C   UNL     1       8.392   9.799  18.198  0.00  0.00    +0.000 A 
ATOM     24  C   UNL     1       9.139   9.700  19.372  0.00  0.00    +0.000 A 
ATOM     25  C   UNL     1       9.798  10.826  19.883  0.00  0.00    +0.000 A 
BRANCH  20  26
ATOM     26  S   UNL     1      10.593  13.458  19.909  0.00  0.00    +0.000 S 
BRANCH  26  28
ATOM     27  C   UNL     1      10.881  15.941  18.790  0.00  0.00    +0.000 C 
ATOM     28  C   UNL     1       9.866  14.818  18.933  0.00  0.00    +0.000 C 
ENDBRANCH  26  28
ENDBRANCH  20  26
ENDBRANCH  19  23
ENDBRANCH  18  19
ENDBRANCH   1  18
TORSDOF 7
ENDMDL
MODEL 4
REMARK VINA RESULT:      -7.9      5.324      7.455
REMARK  Name = 
REMARK  8 active torsions:
REMARK  status: ('A' for Active; 'I' for Inactive)
REMARK    1  A    between atoms: C_1  and  C_2
REMARK    2  A    between atoms: C_2  and  S_3
REMARK    3  A    between atoms: S_3  and  C_4
REMARK    4  A    between atoms: C_7  and  O_8
REMARK    5  A    between atoms: O_8  and  C_9
REMARK    6  A    between atoms: C_9  and  C_10
REMARK    7  A    between atoms: C_15  and  C_16
REMARK    8  A    between atoms: C_21  and  N_22
REMARK                            x       y       z     vdW  Elec       q    Type
REMARK                         _______ _______ _______ _____ _____    ______ ____
ROOT
ATOM      1  C   UNL     1       1.762   4.440  20.302  0.00  0.00    +0.000 A 
ATOM      2  N   UNL     1       1.138   3.347  20.736  0.00  0.00    +0.000 NA
ATOM      3  N   UNL     1       1.560   2.263  19.967  0.00  0.00    +0.000 NA
ATOM      4  C   UNL     1       2.412   2.751  19.113  0.00  0.00    +0.000 A 
ATOM      5  S   UNL     1       3.420   2.166  17.870  0.00  0.00    +0.000 S 
ATOM      6  C   UNL     1       4.015   3.849  17.713  0.00  0.00    +0.000 A 
ATOM      7  N   UNL     1       3.492   4.745  18.515  0.00  0.00    +0.000 NA
ATOM      8  N   UNL     1       2.591   4.081  19.279  0.00  0.00    +0.000 N 
ENDROOT
BRANCH   6   9
ATOM      9  C   UNL     1       5.088   4.162  16.736  0.00  0.00    +0.000 A 
ATOM     10  C   UNL     1       4.817   4.209  15.356  0.00  0.00    +0.000 A 
ATOM     11  C   UNL     1       5.837   4.505  14.449  0.00  0.00    +0.000 A 
ATOM     12  C   UNL     1       7.129   4.742  14.909  0.00  0.00    +0.000 A 
ATOM     13  C   UNL     1       7.402   4.698  16.278  0.00  0.00    +0.000 A 
ATOM     14  C   UNL     1       6.385   4.460  17.208  0.00  0.00    +0.000 A 
BRANCH  14  15
ATOM     15  N   UNL     1       6.755   4.286  18.560  0.00  0.00    +0.000 N 
ATOM     16  H   UNL     1       6.505   5.063  19.162  0.00  0.00    +0.000 HD
ATOM     17  H   UNL     1       6.405   3.398  18.935  0.00  0.00    +0.000 HD
ENDBRANCH  14  15
ENDBRANCH   6   9
BRANCH   1  18
ATOM     18  C   UNL     1       1.651   5.816  20.846  0.00  0.00    +0.000 C 
BRANCH  18  19
ATOM     19  O   UNL     1       2.464   6.675  20.039  0.00  0.00    +0.000 OA
BRANCH  19  23
ATOM     20  C   UNL     1       0.702  10.354  19.111  0.00  0.00    +0.000 A 
ATOM     21  C   UNL     1       0.555   9.759  20.365  0.00  0.00    +0.000 A 
ATOM     22  C   UNL     1       1.157   8.522  20.633  0.00  0.00    +0.000 A 
ATOM     23  C   UNL     1       1.890   7.856  19.649  0.00  0.00    +0.000 A 
ATOM     24  C   UNL     1       2.032   8.447  18.393  0.00  0.00    +0.000 A 
ATOM     25  C   UNL     1       1.433   9.685  18.126  0.00  0.00    +0.000 A 
BRANCH  20  26
ATOM     26  S   UNL     1      -0.071  11.911  18.712  0.00  0.00    +0.000 S 
BRANCH  26  28
ATOM     27  C   UNL     1      -2.123  10.444  17.647  0.00  0.00    +0.000 C 
ATOM     28  C   UNL     1      -1.832  11.435  18.763  0.00  0.00    +0.000 C 
ENDBRANCH  26  28
ENDBRANCH  20  26
ENDBRANCH  19  23
ENDBRANCH  18  19
ENDBRANCH   1  18
TORSDOF 7
ENDMDL
MODEL 5
REMARK VINA RESULT:      -7.9      0.875      1.413
REMARK  Name = 
REMARK  8 active torsions:
REMARK  status: ('A' for Active; 'I' for Inactive)
REMARK    1  A    between atoms: C_1  and  C_2
REMARK    2  A    between atoms: C_2  and  S_3
REMARK    3  A    between atoms: S_3  and  C_4
REMARK    4  A    between atoms: C_7  and  O_8
REMARK    5  A    between atoms: O_8  and  C_9
REMARK    6  A    between atoms: C_9  and  C_10
REMARK    7  A    between atoms: C_15  and  C_16
REMARK    8  A    between atoms: C_21  and  N_22
REMARK                            x       y       z     vdW  Elec       q    Type
REMARK                         _______ _______ _______ _____ _____    ______ ____
ROOT
ATOM      1  C   UNL     1       7.239   6.401  17.155  0.00  0.00    +0.000 A 
ATOM      2  N   UNL     1       7.598   6.103  15.907  0.00  0.00    +0.000 NA
ATOM      3  N   UNL     1       6.754   5.098  15.434  0.00  0.00    +0.000 NA
ATOM      4  C   UNL     1       5.934   4.842  16.411  0.00  0.00    +0.000 A 
ATOM      5  S   UNL     1       4.594   3.829  16.692  0.00  0.00    +0.000 S 
ATOM      6  C   UNL     1       4.479   4.612  18.299  0.00  0.00    +0.000 A 
ATOM      7  N   UNL     1       5.371   5.532  18.579  0.00  0.00    +0.000 NA
ATOM      8  N   UNL     1       6.171   5.621  17.490  0.00  0.00    +0.000 N 
ENDROOT
BRANCH   6   9
ATOM      9  C   UNL     1       3.380   4.239  19.224  0.00  0.00    +0.000 A 
ATOM     10  C   UNL     1       3.036   2.891  19.431  0.00  0.00    +0.000 A 
ATOM     11  C   UNL     1       1.999   2.557  20.305  0.00  0.00    +0.000 A 
ATOM     12  C   UNL     1       1.293   3.559  20.962  0.00  0.00    +0.000 A 
ATOM     13  C   UNL     1       1.631   4.899  20.761  0.00  0.00    +0.000 A 
ATOM     14  C   UNL     1       2.704   5.255  19.936  0.00  0.00    +0.000 A 
BRANCH  14  15
ATOM     15  N   UNL     1       2.899   6.627  19.663  0.00  0.00    +0.000 N 
ATOM     16  H   UNL     1       2.754   7.233  20.464  0.00  0.00    +0.000 HD
ATOM     17  H   UNL     1       3.811   6.798  19.227  0.00  0.00    +0.000 HD
ENDBRANCH  14  15
ENDBRANCH   6   9
BRANCH   1  18
ATOM     18  C   UNL     1       7.831   7.436  18.038  0.00  0.00    +0.000 C 
BRANCH  18  19
ATOM     19  O   UNL     1       7.600   8.713  17.436  0.00  0.00    +0.000 OA
BRANCH  19  23
ATOM     20  C   UNL     1       9.746  11.779  19.306  0.00  0.00    +0.000 A 
ATOM     21  C   UNL     1       9.705  10.483  19.823  0.00  0.00    +0.000 A 
ATOM     22  C   UNL     1       8.969   9.487  19.168  0.00  0.00    +0.000 A 
ATOM     23  C   UNL     1       8.248   9.776  18.008  0.00  0.00    +0.000 A 
ATOM     24  C   UNL     1       8.282  11.073  17.494  0.00  0.00    +0.000 A 
ATOM     25  C   UNL     1       9.021  12.069  18.147  0.00  0.00    +0.000 A 
BRANCH  20  26
ATOM     26  S   UNL     1      10.642  13.089  20.119  0.00  0.00    +0.000 S 
BRANCH  26  28
ATOM     27  C   UNL     1       9.637  15.547  19.450  0.00  0.00    +0.000 C 
ATOM     28  C   UNL     1      10.486  14.421  18.881  0.00  0.00    +0.000 C 
ENDBRANCH  26  28
ENDBRANCH  20  26
ENDBRANCH  19  23
ENDBRANCH  18  19
ENDBRANCH   1  18
TORSDOF 7
ENDMDL
MODEL 6
REMARK VINA RESULT:      -7.9      1.270      2.002
REMARK  Name = 
REMARK  8 active torsions:
REMARK  status: ('A' for Active; 'I' for Inactive)
REMARK    1  A    between atoms: C_1  and  C_2
REMARK    2  A    between atoms: C_2  and  S_3
REMARK    3  A    between atoms: S_3  and  C_4
REMARK    4  A    between atoms: C_7  and  O_8
REMARK    5  A    between atoms: O_8  and  C_9
REMARK    6  A    between atoms: C_9  and  C_10
REMARK    7  A    between atoms: C_15  and  C_16
REMARK    8  A    between atoms: C_21  and  N_22
REMARK                            x       y       z     vdW  Elec       q    Type
REMARK                         _______ _______ _______ _____ _____    ______ ____
ROOT
ATOM      1  C   UNL     1       7.428   6.644  17.389  0.00  0.00    +0.000 A 
ATOM      2  N   UNL     1       7.741   6.401  16.118  0.00  0.00    +0.000 NA
ATOM      3  N   UNL     1       6.908   5.387  15.644  0.00  0.00    +0.000 NA
ATOM      4  C   UNL     1       6.139   5.071  16.645  0.00  0.00    +0.000 A 
ATOM      5  S   UNL     1       4.843   4.007  16.945  0.00  0.00    +0.000 S 
ATOM      6  C   UNL     1       4.775   4.730  18.583  0.00  0.00    +0.000 A 
ATOM      7  N   UNL     1       5.650   5.667  18.859  0.00  0.00    +0.000 NA
ATOM      8  N   UNL     1       6.399   5.819  17.740  0.00  0.00    +0.000 N 
ENDROOT
BRANCH   6   9
ATOM      9  C   UNL     1       3.728   4.291  19.540  0.00  0.00    +0.000 A 
ATOM     10  C   UNL     1       3.625   2.943  19.929  0.00  0.00    +0.000 A 
ATOM     11  C   UNL     1       2.635   2.545  20.830  0.00  0.00    +0.000 A 
ATOM     12  C   UNL     1       1.737   3.481  21.334  0.00  0.00    +0.000 A 
ATOM     13  C   UNL     1       1.836   4.821  20.951  0.00  0.00    +0.000 A 
ATOM     14  C   UNL     1       2.855   5.252  20.096  0.00  0.00    +0.000 A 
BRANCH  14  15
ATOM     15  N   UNL     1       2.810   6.587  19.636  0.00  0.00    +0.000 N 
ATOM     16  H   UNL     1       3.454   7.210  20.112  0.00  0.00    +0.000 HD
ATOM     17  H   UNL     1       2.926   6.640  18.619  0.00  0.00    +0.000 HD
ENDBRANCH  14  15
ENDBRANCH   6   9
BRANCH   1  18
ATOM     18  C   UNL     1       8.027   7.665  18.284  0.00  0.00    +0.000 C 
BRANCH  18  19
ATOM     19  O   UNL     1       7.907   8.937  17.640  0.00  0.00    +0.000 OA
BRANCH  19  23
ATOM     20  C   UNL     1       9.683  12.304  19.378  0.00  0.00    +0.000 A 
ATOM     21  C   UNL     1       8.981  12.376  18.174  0.00  0.00    +0.000 A 
ATOM     22  C   UNL     1       8.406  11.223  17.623  0.00  0.00    +0.000 A 
ATOM     23  C   UNL     1       8.545   9.984  18.252  0.00  0.00    +0.000 A 
ATOM     24  C   UNL     1       9.253   9.909  19.452  0.00  0.00    +0.000 A 
ATOM     25  C   UNL     1       9.824  11.062  20.005  0.00  0.00    +0.000 A 
BRANCH  20  26
ATOM     26  S   UNL     1      10.459  13.736  20.103  0.00  0.00    +0.000 S 
BRANCH  26  28
ATOM     27  C   UNL     1       9.075  15.053  22.065  0.00  0.00    +0.000 C 
ATOM     28  C   UNL     1       9.721  13.708  21.772  0.00  0.00    +0.000 C 
ENDBRANCH  26  28
ENDBRANCH  20  26
ENDBRANCH  19  23
ENDBRANCH  18  19
ENDBRANCH   1  18
TORSDOF 7
ENDMDL
MODEL 7
REMARK VINA RESULT:      -7.7      1.262      1.898
REMARK  Name = 
REMARK  8 active torsions:
REMARK  status: ('A' for Active; 'I' for Inactive)
REMARK    1  A    between atoms: C_1  and  C_2
REMARK    2  A    between atoms: C_2  and  S_3
REMARK    3  A    between atoms: S_3  and  C_4
REMARK    4  A    between atoms: C_7  and  O_8
REMARK    5  A    between atoms: O_8  and  C_9
REMARK    6  A    between atoms: C_9  and  C_10
REMARK    7  A    between atoms: C_15  and  C_16
REMARK    8  A    between atoms: C_21  and  N_22
REMARK                            x       y       z     vdW  Elec       q    Type
REMARK                         _______ _______ _______ _____ _____    ______ ____
ROOT
ATOM      1  C   UNL     1       7.308   6.551  17.305  0.00  0.00    +0.000 A 
ATOM      2  N   UNL     1       7.623   6.287  16.039  0.00  0.00    +0.000 NA
ATOM      3  N   UNL     1       6.798   5.258  15.585  0.00  0.00    +0.000 NA
ATOM      4  C   UNL     1       6.032   4.953  16.592  0.00  0.00    +0.000 A 
ATOM      5  S   UNL     1       4.746   3.884  16.913  0.00  0.00    +0.000 S 
ATOM      6  C   UNL     1       4.672   4.637  18.537  0.00  0.00    +0.000 A 
ATOM      7  N   UNL     1       5.540   5.587  18.795  0.00  0.00    +0.000 NA
ATOM      8  N   UNL     1       6.287   5.724  17.673  0.00  0.00    +0.000 N 
ENDROOT
BRANCH   6   9
ATOM      9  C   UNL     1       3.630   4.206  19.502  0.00  0.00    +0.000 A 
ATOM     10  C   UNL     1       3.614   2.895  20.011  0.00  0.00    +0.000 A 
ATOM     11  C   UNL     1       2.626   2.505  20.918  0.00  0.00    +0.000 A 
ATOM     12  C   UNL     1       1.646   3.411  21.311  0.00  0.00    +0.000 A 
ATOM     13  C   UNL     1       1.659   4.714  20.810  0.00  0.00    +0.000 A 
ATOM     14  C   UNL     1       2.671   5.144  19.945  0.00  0.00    +0.000 A 
BRANCH  14  15
ATOM     15  N   UNL     1       2.543   6.425  19.364  0.00  0.00    +0.000 N 
ATOM     16  H   UNL     1       1.843   6.480  18.632  0.00  0.00    +0.000 HD
ATOM     17  H   UNL     1       2.395   7.148  20.075  0.00  0.00    +0.000 HD
ENDBRANCH  14  15
ENDBRANCH   6   9
BRANCH   1  18
ATOM     18  C   UNL     1       7.898   7.594  18.181  0.00  0.00    +0.000 C 
BRANCH  18  19
ATOM     19  O   UNL     1       8.141   8.754  17.379  0.00  0.00    +0.000 OA
BRANCH  19  23
ATOM     20  C   UNL     1       9.461  12.056  19.584  0.00  0.00    +0.000 A 
ATOM     21  C   UNL     1       9.573  10.751  20.067  0.00  0.00    +0.000 A 
ATOM     22  C   UNL     1       9.113   9.673  19.299  0.00  0.00    +0.000 A 
ATOM     23  C   UNL     1       8.516   9.886  18.055  0.00  0.00    +0.000 A 
ATOM     24  C   UNL     1       8.396  11.190  17.574  0.00  0.00    +0.000 A 
ATOM     25  C   UNL     1       8.860  12.268  18.340  0.00  0.00    +0.000 A 
BRANCH  20  26
ATOM     26  S   UNL     1      10.003  13.462  20.537  0.00  0.00    +0.000 S 
BRANCH  26  28
ATOM     27  C   UNL     1       8.589  14.131  22.785  0.00  0.00    +0.000 C 
ATOM     28  C   UNL     1       9.407  12.992  22.197  0.00  0.00    +0.000 C 
ENDBRANCH  26  28
ENDBRANCH  20  26
ENDBRANCH  19  23
ENDBRANCH  18  19
ENDBRANCH   1  18
TORSDOF 7
ENDMDL
MODEL 8
REMARK VINA RESULT:      -7.7      5.334      7.418
REMARK  Name = 
REMARK  8 active torsions:
REMARK  status: ('A' for Active; 'I' for Inactive)
REMARK    1  A    between atoms: C_1  and  C_2
REMARK    2  A    between atoms: C_2  and  S_3
REMARK    3  A    between atoms: S_3  and  C_4
REMARK    4  A    between atoms: C_7  and  O_8
REMARK    5  A    between atoms: O_8  and  C_9
REMARK    6  A    between atoms: C_9  and  C_10
REMARK    7  A    between atoms: C_15  and  C_16
REMARK    8  A    between atoms: C_21  and  N_22
REMARK                            x       y       z     vdW  Elec       q    Type
REMARK                         _______ _______ _______ _____ _____    ______ ____
ROOT
ATOM      1  C   UNL     1       1.734   4.544  20.336  0.00  0.00    +0.000 A 
ATOM      2  N   UNL     1       1.099   3.464  20.786  0.00  0.00    +0.000 NA
ATOM      3  N   UNL     1       1.510   2.364  20.032  0.00  0.00    +0.000 NA
ATOM      4  C   UNL     1       2.367   2.831  19.172  0.00  0.00    +0.000 A 
ATOM      5  S   UNL     1       3.368   2.218  17.938  0.00  0.00    +0.000 S 
ATOM      6  C   UNL     1       3.981   3.892  17.756  0.00  0.00    +0.000 A 
ATOM      7  N   UNL     1       3.466   4.805  18.545  0.00  0.00    +0.000 NA
ATOM      8  N   UNL     1       2.559   4.161  19.319  0.00  0.00    +0.000 N 
ENDROOT
BRANCH   6   9
ATOM      9  C   UNL     1       5.056   4.180  16.774  0.00  0.00    +0.000 A 
ATOM     10  C   UNL     1       4.781   4.231  15.396  0.00  0.00    +0.000 A 
ATOM     11  C   UNL     1       5.804   4.503  14.485  0.00  0.00    +0.000 A 
ATOM     12  C   UNL     1       7.102   4.712  14.939  0.00  0.00    +0.000 A 
ATOM     13  C   UNL     1       7.380   4.664  16.307  0.00  0.00    +0.000 A 
ATOM     14  C   UNL     1       6.361   4.450  17.242  0.00  0.00    +0.000 A 
BRANCH  14  15
ATOM     15  N   UNL     1       6.732   4.270  18.592  0.00  0.00    +0.000 N 
ATOM     16  H   UNL     1       5.949   4.128  19.222  0.00  0.00    +0.000 HD
ATOM     17  H   UNL     1       7.431   3.527  18.695  0.00  0.00    +0.000 HD
ENDBRANCH  14  15
ENDBRANCH   6   9
BRANCH   1  18
ATOM     18  C   UNL     1       1.637   5.929  20.860  0.00  0.00    +0.000 C 
BRANCH  18  19
ATOM     19  O   UNL     1       2.322   6.793  19.948  0.00  0.00    +0.000 OA
BRANCH  19  23
ATOM     20  C   UNL     1       0.639  10.533  19.120  0.00  0.00    +0.000 A 
ATOM     21  C   UNL     1       1.378   9.827  18.169  0.00  0.00    +0.000 A 
ATOM     22  C   UNL     1       1.930   8.580  18.490  0.00  0.00    +0.000 A 
ATOM     23  C   UNL     1       1.772   8.034  19.765  0.00  0.00    +0.000 A 
ATOM     24  C   UNL     1       1.040   8.741  20.719  0.00  0.00    +0.000 A 
ATOM     25  C   UNL     1       0.484   9.987  20.398  0.00  0.00    +0.000 A 
BRANCH  20  26
ATOM     26  S   UNL     1      -0.057  12.137  18.771  0.00  0.00    +0.000 S 
BRANCH  26  28
ATOM     27  C   UNL     1      -2.425  12.442  20.112  0.00  0.00    +0.000 C 
ATOM     28  C   UNL     1      -0.922  12.477  20.342  0.00  0.00    +0.000 C 
ENDBRANCH  26  28
ENDBRANCH  20  26
ENDBRANCH  19  23
ENDBRANCH  18  19
ENDBRANCH   1  18
TORSDOF 7
ENDMDL
MODEL 9
REMARK VINA RESULT:      -7.6      5.054      7.007
REMARK  Name = 
REMARK  8 active torsions:
REMARK  status: ('A' for Active; 'I' for Inactive)
REMARK    1  A    between atoms: C_1  and  C_2
REMARK    2  A    between atoms: C_2  and  S_3
REMARK    3  A    between atoms: S_3  and  C_4
REMARK    4  A    between atoms: C_7  and  O_8
REMARK    5  A    between atoms: O_8  and  C_9
REMARK    6  A    between atoms: C_9  and  C_10
REMARK    7  A    between atoms: C_15  and  C_16
REMARK    8  A    between atoms: C_21  and  N_22
REMARK                            x       y       z     vdW  Elec       q    Type
REMARK                         _______ _______ _______ _____ _____    ______ ____
ROOT
ATOM      1  C   UNL     1       1.746   4.544  20.398  0.00  0.00    +0.000 A 
ATOM      2  N   UNL     1       1.147   3.463  20.895  0.00  0.00    +0.000 NA
ATOM      3  N   UNL     1       1.594   2.347  20.188  0.00  0.00    +0.000 NA
ATOM      4  C   UNL     1       2.434   2.805  19.306  0.00  0.00    +0.000 A 
ATOM      5  S   UNL     1       3.454   2.174  18.096  0.00  0.00    +0.000 S 
ATOM      6  C   UNL     1       4.009   3.858  17.842  0.00  0.00    +0.000 A 
ATOM      7  N   UNL     1       3.466   4.785  18.593  0.00  0.00    +0.000 NA
ATOM      8  N   UNL     1       2.581   4.146  19.395  0.00  0.00    +0.000 N 
ENDROOT
BRANCH   6   9
ATOM      9  C   UNL     1       5.073   4.140  16.846  0.00  0.00    +0.000 A 
ATOM     10  C   UNL     1       4.794   4.128  15.467  0.00  0.00    +0.000 A 
ATOM     11  C   UNL     1       5.806   4.395  14.543  0.00  0.00    +0.000 A 
ATOM     12  C   UNL     1       7.098   4.661  14.984  0.00  0.00    +0.000 A 
ATOM     13  C   UNL     1       7.380   4.675  16.351  0.00  0.00    +0.000 A 
ATOM     14  C   UNL     1       6.371   4.467  17.297  0.00  0.00    +0.000 A 
BRANCH  14  15
ATOM     15  N   UNL     1       6.750   4.351  18.653  0.00  0.00    +0.000 N 
ATOM     16  H   UNL     1       7.389   3.585  18.840  0.00  0.00    +0.000 HD
ATOM     17  H   UNL     1       7.115   5.237  19.019  0.00  0.00    +0.000 HD
ENDBRANCH  14  15
ENDBRANCH   6   9
BRANCH   1  18
ATOM     18  C   UNL     1       1.603   5.945  20.863  0.00  0.00    +0.000 C 
BRANCH  18  19
ATOM     19  O   UNL     1       2.240   6.794  19.903  0.00  0.00    +0.000 OA
BRANCH  19  23
ATOM     20  C   UNL     1       0.677  10.621  19.262  0.00  0.00    +0.000 A 
ATOM     21  C   UNL     1       1.418   9.952  18.287  0.00  0.00    +0.000 A 
ATOM     22  C   UNL     1       1.930   8.673  18.544  0.00  0.00    +0.000 A 
ATOM     23  C   UNL     1       1.728   8.059  19.782  0.00  0.00    +0.000 A 
ATOM     24  C   UNL     1       0.993   8.729  20.760  0.00  0.00    +0.000 A 
ATOM     25  C   UNL     1       0.478  10.007  20.502  0.00  0.00    +0.000 A 
BRANCH  20  26
ATOM     26  S   UNL     1       0.032  12.262  18.993  0.00  0.00    +0.000 S 
BRANCH  26  28
ATOM     27  C   UNL     1       2.303  13.263  20.151  0.00  0.00    +0.000 C 
ATOM     28  C   UNL     1       0.804  13.157  20.384  0.00  0.00    +0.000 C 
ENDBRANCH  26  28
ENDBRANCH  20  26
ENDBRANCH  19  23
ENDBRANCH  18  19
ENDBRANCH   1  18
TORSDOF 7
ENDMDL
