MODEL 1
REMARK VINA RESULT:      -8.1      0.000      0.000
REMARK  Name = 
REMARK  6 active torsions:
REMARK  status: ('A' for Active; 'I' for Inactive)
REMARK    1  A    between atoms: C_2  and  O_3
REMARK    2  A    between atoms: C_2  and  C_4
REMARK    3  A    between atoms: C_7  and  C_8
REMARK    4  A    between atoms: C_8  and  S_9
REMARK    5  A    between atoms: S_9  and  C_10
REMARK    6  A    between atoms: C_13  and  C_14
REMARK                            x       y       z     vdW  Elec       q    Type
REMARK                         _______ _______ _______ _____ _____    ______ ____
ROOT
ATOM      1  C   UNL     1       6.744   7.055  17.372  0.00  0.00    +0.000 A 
ATOM      2  N   UNL     1       7.462   6.448  18.295  0.00  0.00    +0.000 NA
ATOM      3  N   UNL     1       8.386   7.371  18.741  0.00  0.00    +0.000 NA
ATOM      4  C   UNL     1       8.165   8.482  18.068  0.00  0.00    +0.000 A 
ATOM      5  O   UNL     1       7.148   8.348  17.163  0.00  0.00    +0.000 OA
ENDROOT
BRANCH   4   6
ATOM      6  C   UNL     1       8.699   9.821  18.290  0.00  0.00    +0.000 A 
ATOM      7  C   UNL     1       8.288  10.930  17.509  0.00  0.00    +0.000 A 
ATOM      8  C   UNL     1       8.603  12.239  17.886  0.00  0.00    +0.000 A 
ATOM      9  C   UNL     1       9.299  12.407  19.063  0.00  0.00    +0.000 A 
ATOM     10  C   UNL     1       9.766  11.334  19.786  0.00  0.00    +0.000 A 
ATOM     11  C   UNL     1       9.523  10.034  19.407  0.00  0.00    +0.000 A 
ATOM     12  O   UNL     1      10.369  11.721  20.944  0.00  0.00    +0.000 OA
ATOM     13  C   UNL     1       9.923  13.091  20.995  0.00  0.00    +0.000 C 
ATOM     14  O   UNL     1       9.537  13.589  19.696  0.00  0.00    +0.000 OA
ENDBRANCH   4   6
BRANCH   1  15
ATOM     15  S   UNL     1       5.424   6.346  16.499  0.00  0.00    +0.000 S 
BRANCH  15  16
ATOM     16  C   UNL     1       3.999   7.093  17.349  0.00  0.00    +0.000 C 
BRANCH  16  20
ATOM     17  C   UNL     1       1.776   4.158  19.621  0.00  0.00    +0.000 A 
ATOM     18  C   UNL     1       2.196   3.869  18.318  0.00  0.00    +0.000 A 
ATOM     19  C   UNL     1       2.927   4.812  17.591  0.00  0.00    +0.000 A 
ATOM     20  C   UNL     1       3.261   6.050  18.163  0.00  0.00    +0.000 A 
ATOM     21  C   UNL     1       2.853   6.325  19.477  0.00  0.00    +0.000 A 
ATOM     22  C   UNL     1       2.129   5.377  20.211  0.00  0.00    +0.000 A 
BRANCH  17  24
ATOM     23  O   UNL     1       1.192   2.846  21.519  0.00  0.00    +0.000 OA
ATOM     24  C   UNL     1       0.996   3.130  20.351  0.00  0.00    +0.000 C 
BRANCH  24  25
ATOM     25  O   UNL     1       0.077   2.503  19.582  0.00  0.00    +0.000 OA
ATOM     26  H   UNL     1       0.314   1.594  19.319  0.00  0.00    +0.000 HD
ENDBRANCH  24  25
ENDBRANCH  17  24
ENDBRANCH  16  20
ENDBRANCH  15  16
ENDBRANCH   1  15
TORSDOF 6
ENDMDL
MODEL 2
REMARK VINA RESULT:      -8.0      1.897      2.565
REMARK  Name = 
REMARK  6 active torsions:
REMARK  status: ('A' for Active; 'I' for Inactive)
REMARK    1  A    between atoms: C_2  and  O_3
REMARK    2  A    between atoms: C_2  and  C_4
REMARK    3  A    between atoms: C_7  and  C_8
REMARK    4  A    between atoms: C_8  and  S_9
REMARK    5  A    between atoms: S_9  and  C_10
REMARK    6  A    between atoms: C_13  and  C_14
REMARK                            x       y       z     vdW  Elec       q    Type
REMARK                         _______ _______ _______ _____ _____    ______ ____
ROOT
ATOM      1  C   UNL     1       7.896   7.106  18.159  0.00  0.00    +0.000 A 
ATOM      2  N   UNL     1       7.348   7.672  17.104  0.00  0.00    +0.000 NA
ATOM      3  N   UNL     1       7.641   9.018  17.187  0.00  0.00    +0.000 NA
ATOM      4  C   UNL     1       8.354   9.184  18.282  0.00  0.00    +0.000 A 
ATOM      5  O   UNL     1       8.539   8.012  18.963  0.00  0.00    +0.000 OA
ENDROOT
BRANCH   4   6
ATOM      6  C   UNL     1       9.103  10.351  18.732  0.00  0.00    +0.000 A 
ATOM      7  C   UNL     1       9.499  10.511  20.083  0.00  0.00    +0.000 A 
ATOM      8  C   UNL     1      10.425  11.490  20.456  0.00  0.00    +0.000 A 
ATOM      9  C   UNL     1      10.959  12.270  19.453  0.00  0.00    +0.000 A 
ATOM     10  C   UNL     1      10.523  12.171  18.152  0.00  0.00    +0.000 A 
ATOM     11  C   UNL     1       9.570  11.257  17.766  0.00  0.00    +0.000 A 
ATOM     12  O   UNL     1      11.226  12.983  17.314  0.00  0.00    +0.000 OA
ATOM     13  C   UNL     1      12.328  13.319  18.181  0.00  0.00    +0.000 C 
ATOM     14  O   UNL     1      12.000  13.140  19.576  0.00  0.00    +0.000 OA
ENDBRANCH   4   6
BRANCH   1  15
ATOM     15  S   UNL     1       7.845   5.413  18.531  0.00  0.00    +0.000 S 
BRANCH  15  16
ATOM     16  C   UNL     1       6.690   4.809  17.262  0.00  0.00    +0.000 C 
BRANCH  16  20
ATOM     17  C   UNL     1       2.868   3.925  19.086  0.00  0.00    +0.000 A 
ATOM     18  C   UNL     1       3.703   4.902  19.640  0.00  0.00    +0.000 A 
ATOM     19  C   UNL     1       4.931   5.196  19.041  0.00  0.00    +0.000 A 
ATOM     20  C   UNL     1       5.331   4.531  17.871  0.00  0.00    +0.000 A 
ATOM     21  C   UNL     1       4.478   3.568  17.311  0.00  0.00    +0.000 A 
ATOM     22  C   UNL     1       3.243   3.278  17.903  0.00  0.00    +0.000 A 
BRANCH  17  24
ATOM     23  O   UNL     1       0.662   3.043  19.226  0.00  0.00    +0.000 OA
ATOM     24  C   UNL     1       1.578   3.640  19.761  0.00  0.00    +0.000 C 
BRANCH  24  25
ATOM     25  O   UNL     1       1.500   4.149  21.011  0.00  0.00    +0.000 OA
ATOM     26  H   UNL     1       0.605   4.420  21.288  0.00  0.00    +0.000 HD
ENDBRANCH  24  25
ENDBRANCH  17  24
ENDBRANCH  16  20
ENDBRANCH  15  16
ENDBRANCH   1  15
TORSDOF 6
ENDMDL
MODEL 3
REMARK VINA RESULT:      -7.9      1.052      1.587
REMARK  Name = 
REMARK  6 active torsions:
REMARK  status: ('A' for Active; 'I' for Inactive)
REMARK    1  A    between atoms: C_2  and  O_3
REMARK    2  A    between atoms: C_2  and  C_4
REMARK    3  A    between atoms: C_7  and  C_8
REMARK    4  A    between atoms: C_8  and  S_9
REMARK    5  A    between atoms: S_9  and  C_10
REMARK    6  A    between atoms: C_13  and  C_14
REMARK                            x       y       z     vdW  Elec       q    Type
REMARK                         _______ _______ _______ _____ _____    ______ ____
ROOT
ATOM      1  C   UNL     1       6.993   7.260  17.432  0.00  0.00    +0.000 A 
ATOM      2  N   UNL     1       7.682   6.667  18.385  0.00  0.00    +0.000 NA
ATOM      3  N   UNL     1       8.562   7.610  18.874  0.00  0.00    +0.000 NA
ATOM      4  C   UNL     1       8.347   8.717  18.194  0.00  0.00    +0.000 A 
ATOM      5  O   UNL     1       7.375   8.562  17.243  0.00  0.00    +0.000 OA
ENDROOT
BRANCH   4   6
ATOM      6  C   UNL     1       8.838  10.067  18.443  0.00  0.00    +0.000 A 
ATOM      7  C   UNL     1       8.481  11.159  17.613  0.00  0.00    +0.000 A 
ATOM      8  C   UNL     1       8.741  12.478  17.997  0.00  0.00    +0.000 A 
ATOM      9  C   UNL     1       9.329  12.673  19.228  0.00  0.00    +0.000 A 
ATOM     10  C   UNL     1       9.747  11.617  20.005  0.00  0.00    +0.000 A 
ATOM     11  C   UNL     1       9.558  10.308  19.624  0.00  0.00    +0.000 A 
ATOM     12  O   UNL     1      10.240  12.029  21.205  0.00  0.00    +0.000 OA
ATOM     13  C   UNL     1       9.770  13.392  21.198  0.00  0.00    +0.000 C 
ATOM     14  O   UNL     1       9.493  13.867  19.862  0.00  0.00    +0.000 OA
ENDBRANCH   4   6
BRANCH   1  15
ATOM     15  S   UNL     1       5.731   6.523  16.498  0.00  0.00    +0.000 S 
BRANCH  15  16
ATOM     16  C   UNL     1       5.855   4.792  17.044  0.00  0.00    +0.000 C 
BRANCH  16  20
ATOM     17  C   UNL     1       2.162   3.362  18.788  0.00  0.00    +0.000 A 
ATOM     18  C   UNL     1       3.006   4.204  19.520  0.00  0.00    +0.000 A 
ATOM     19  C   UNL     1       4.191   4.677  18.949  0.00  0.00    +0.000 A 
ATOM     20  C   UNL     1       4.539   4.327  17.635  0.00  0.00    +0.000 A 
ATOM     21  C   UNL     1       3.677   3.498  16.901  0.00  0.00    +0.000 A 
ATOM     22  C   UNL     1       2.484   3.031  17.466  0.00  0.00    +0.000 A 
BRANCH  17  24
ATOM     23  O   UNL     1       0.113   2.154  18.880  0.00  0.00    +0.000 OA
ATOM     24  C   UNL     1       0.919   2.878  19.436  0.00  0.00    +0.000 C 
BRANCH  24  25
ATOM     25  O   UNL     1       0.743   3.356  20.689  0.00  0.00    +0.000 OA
ATOM     26  H   UNL     1       0.105   2.857  21.232  0.00  0.00    +0.000 HD
ENDBRANCH  24  25
ENDBRANCH  17  24
ENDBRANCH  16  20
ENDBRANCH  15  16
ENDBRANCH   1  15
TORSDOF 6
ENDMDL
MODEL 4
REMARK VINA RESULT:      -7.8      5.604      7.502
REMARK  Name = 
REMARK  6 active torsions:
REMARK  status: ('A' for Active; 'I' for Inactive)
REMARK    1  A    between atoms: C_2  and  O_3
REMARK    2  A    between atoms: C_2  and  C_4
REMARK    3  A    between atoms: C_7  and  C_8
REMARK    4  A    between atoms: C_8  and  S_9
REMARK    5  A    between atoms: S_9  and  C_10
REMARK    6  A    between atoms: C_13  and  C_14
REMARK                            x       y       z     vdW  Elec       q    Type
REMARK                         _______ _______ _______ _____ _____    ______ ____
ROOT
ATOM      1  C   UNL     1       3.051   4.675  19.901  0.00  0.00    +0.000 A 
ATOM      2  N   UNL     1       2.029   4.511  20.716  0.00  0.00    +0.000 NA
ATOM      3  N   UNL     1       1.438   5.750  20.854  0.00  0.00    +0.000 NA
ATOM      4  C   UNL     1       2.131   6.585  20.109  0.00  0.00    +0.000 A 
ATOM      5  O   UNL     1       3.187   5.975  19.488  0.00  0.00    +0.000 OA
ENDROOT
BRANCH   4   6
ATOM      6  C   UNL     1       1.820   7.956  19.719  0.00  0.00    +0.000 A 
ATOM      7  C   UNL     1       2.067   8.436  18.408  0.00  0.00    +0.000 A 
ATOM      8  C   UNL     1       1.538   9.654  17.970  0.00  0.00    +0.000 A 
ATOM      9  C   UNL     1       0.742  10.351  18.854  0.00  0.00    +0.000 A 
ATOM     10  C   UNL     1       0.560   9.929  20.151  0.00  0.00    +0.000 A 
ATOM     11  C   UNL     1       1.118   8.764  20.627  0.00  0.00    +0.000 A 
ATOM     12  O   UNL     1      -0.311  10.725  20.830  0.00  0.00    +0.000 OA
ATOM     13  C   UNL     1      -0.876  11.455  19.722  0.00  0.00    +0.000 C 
ATOM     14  O   UNL     1      -0.012  11.448  18.565  0.00  0.00    +0.000 OA
ENDBRANCH   4   6
BRANCH   1  15
ATOM     15  S   UNL     1       4.127   3.421  19.373  0.00  0.00    +0.000 S 
BRANCH  15  16
ATOM     16  C   UNL     1       5.663   4.361  19.114  0.00  0.00    +0.000 C 
BRANCH  16  20
ATOM     17  C   UNL     1       6.599   4.503  14.892  0.00  0.00    +0.000 A 
ATOM     18  C   UNL     1       5.300   4.200  15.315  0.00  0.00    +0.000 A 
ATOM     19  C   UNL     1       4.996   4.170  16.679  0.00  0.00    +0.000 A 
ATOM     20  C   UNL     1       5.982   4.457  17.636  0.00  0.00    +0.000 A 
ATOM     21  C   UNL     1       7.277   4.779  17.203  0.00  0.00    +0.000 A 
ATOM     22  C   UNL     1       7.583   4.821  15.837  0.00  0.00    +0.000 A 
BRANCH  17  24
ATOM     23  O   UNL     1       6.375   3.731  12.652  0.00  0.00    +0.000 OA
ATOM     24  C   UNL     1       6.878   4.516  13.436  0.00  0.00    +0.000 C 
BRANCH  24  25
ATOM     25  O   UNL     1       7.781   5.453  13.068  0.00  0.00    +0.000 OA
ATOM     26  H   UNL     1       7.497   6.030  12.336  0.00  0.00    +0.000 HD
ENDBRANCH  24  25
ENDBRANCH  17  24
ENDBRANCH  16  20
ENDBRANCH  15  16
ENDBRANCH   1  15
TORSDOF 6
ENDMDL
MODEL 5
REMARK VINA RESULT:      -7.8      4.517      7.020
REMARK  Name = 
REMARK  6 active torsions:
REMARK  status: ('A' for Active; 'I' for Inactive)
REMARK    1  A    between atoms: C_2  and  O_3
REMARK    2  A    between atoms: C_2  and  C_4
REMARK    3  A    between atoms: C_7  and  C_8
REMARK    4  A    between atoms: C_8  and  S_9
REMARK    5  A    between atoms: S_9  and  C_10
REMARK    6  A    between atoms: C_13  and  C_14
REMARK                            x       y       z     vdW  Elec       q    Type
REMARK                         _______ _______ _______ _____ _____    ______ ____
ROOT
ATOM      1  C   UNL     1       1.792   3.980  19.330  0.00  0.00    +0.000 A 
ATOM      2  N   UNL     1       1.846   4.095  20.641  0.00  0.00    +0.000 NA
ATOM      3  N   UNL     1       1.999   5.440  20.910  0.00  0.00    +0.000 NA
ATOM      4  C   UNL     1       2.021   6.057  19.747  0.00  0.00    +0.000 A 
ATOM      5  O   UNL     1       1.915   5.189  18.695  0.00  0.00    +0.000 OA
ENDROOT
BRANCH   4   6
ATOM      6  C   UNL     1       1.943   7.484  19.454  0.00  0.00    +0.000 A 
ATOM      7  C   UNL     1       2.209   7.999  18.161  0.00  0.00    +0.000 A 
ATOM      8  C   UNL     1       1.888   9.318  17.825  0.00  0.00    +0.000 A 
ATOM      9  C   UNL     1       1.274  10.084  18.792  0.00  0.00    +0.000 A 
ATOM     10  C   UNL     1       1.083   9.616  20.072  0.00  0.00    +0.000 A 
ATOM     11  C   UNL     1       1.444   8.342  20.447  0.00  0.00    +0.000 A 
ATOM     12  O   UNL     1       0.404  10.507  20.846  0.00  0.00    +0.000 OA
ATOM     13  C   UNL     1      -0.073  11.397  19.817  0.00  0.00    +0.000 C 
ATOM     14  O   UNL     1       0.718  11.314  18.612  0.00  0.00    +0.000 OA
ENDBRANCH   4   6
BRANCH   1  15
ATOM     15  S   UNL     1       1.584   2.495  18.459  0.00  0.00    +0.000 S 
BRANCH  15  16
ATOM     16  C   UNL     1       3.304   1.914  18.339  0.00  0.00    +0.000 C 
BRANCH  16  20
ATOM     17  C   UNL     1       5.883   5.328  17.695  0.00  0.00    +0.000 A 
ATOM     18  C   UNL     1       5.778   4.755  18.968  0.00  0.00    +0.000 A 
ATOM     19  C   UNL     1       4.957   3.643  19.170  0.00  0.00    +0.000 A 
ATOM     20  C   UNL     1       4.242   3.080  18.101  0.00  0.00    +0.000 A 
ATOM     21  C   UNL     1       4.368   3.649  16.825  0.00  0.00    +0.000 A 
ATOM     22  C   UNL     1       5.198   4.757  16.616  0.00  0.00    +0.000 A 
BRANCH  17  24
ATOM     23  O   UNL     1       6.561   7.381  16.700  0.00  0.00    +0.000 OA
ATOM     24  C   UNL     1       6.761   6.512  17.529  0.00  0.00    +0.000 C 
BRANCH  24  25
ATOM     25  O   UNL     1       7.832   6.509  18.355  0.00  0.00    +0.000 OA
ATOM     26  H   UNL     1       7.733   7.057  19.155  0.00  0.00    +0.000 HD
ENDBRANCH  24  25
ENDBRANCH  17  24
ENDBRANCH  16  20
ENDBRANCH  15  16
ENDBRANCH   1  15
TORSDOF 6
ENDMDL
MODEL 6
REMARK VINA RESULT:      -7.8      1.332      1.908
REMARK  Name = 
REMARK  6 active torsions:
REMARK  status: ('A' for Active; 'I' for Inactive)
REMARK    1  A    between atoms: C_2  and  O_3
REMARK    2  A    between atoms: C_2  and  C_4
REMARK    3  A    between atoms: C_7  and  C_8
REMARK    4  A    between atoms: C_8  and  S_9
REMARK    5  A    between atoms: S_9  and  C_10
REMARK    6  A    between atoms: C_13  and  C_14
REMARK                            x       y       z     vdW  Elec       q    Type
REMARK                         _______ _______ _______ _____ _____    ______ ____
ROOT
ATOM      1  C   UNL     1       6.725   7.154  17.301  0.00  0.00    +0.000 A 
ATOM      2  N   UNL     1       7.492   6.434  18.094  0.00  0.00    +0.000 NA
ATOM      3  N   UNL     1       8.406   7.306  18.650  0.00  0.00    +0.000 NA
ATOM      4  C   UNL     1       8.132   8.500  18.166  0.00  0.00    +0.000 A 
ATOM      5  O   UNL     1       7.086   8.476  17.283  0.00  0.00    +0.000 OA
ENDROOT
BRANCH   4   6
ATOM      6  C   UNL     1       8.637   9.805  18.578  0.00  0.00    +0.000 A 
ATOM      7  C   UNL     1       9.317   9.990  19.807  0.00  0.00    +0.000 A 
ATOM      8  C   UNL     1      10.016  11.170  20.079  0.00  0.00    +0.000 A 
ATOM      9  C   UNL     1      10.043  12.130  19.090  0.00  0.00    +0.000 A 
ATOM     10  C   UNL     1       9.323  11.989  17.927  0.00  0.00    +0.000 A 
ATOM     11  C   UNL     1       8.578  10.864  17.658  0.00  0.00    +0.000 A 
ATOM     12  O   UNL     1       9.541  13.019  17.063  0.00  0.00    +0.000 OA
ATOM     13  C   UNL     1      10.703  13.605  17.684  0.00  0.00    +0.000 C 
ATOM     14  O   UNL     1      10.812  13.254  19.081  0.00  0.00    +0.000 OA
ENDBRANCH   4   6
BRANCH   1  15
ATOM     15  S   UNL     1       5.394   6.547  16.369  0.00  0.00    +0.000 S 
BRANCH  15  16
ATOM     16  C   UNL     1       5.594   4.753  16.599  0.00  0.00    +0.000 C 
BRANCH  16  20
ATOM     17  C   UNL     1       2.647   3.383  19.456  0.00  0.00    +0.000 A 
ATOM     18  C   UNL     1       2.284   3.613  18.124  0.00  0.00    +0.000 A 
ATOM     19  C   UNL     1       3.240   4.040  17.200  0.00  0.00    +0.000 A 
ATOM     20  C   UNL     1       4.575   4.229  17.590  0.00  0.00    +0.000 A 
ATOM     21  C   UNL     1       4.936   3.977  18.923  0.00  0.00    +0.000 A 
ATOM     22  C   UNL     1       3.982   3.538  19.849  0.00  0.00    +0.000 A 
BRANCH  17  24
ATOM     23  O   UNL     1       1.842   2.478  21.504  0.00  0.00    +0.000 OA
ATOM     24  C   UNL     1       1.598   2.938  20.403  0.00  0.00    +0.000 C 
BRANCH  24  25
ATOM     25  O   UNL     1       0.344   3.046  19.909  0.00  0.00    +0.000 OA
ATOM     26  H   UNL     1      -0.366   2.967  20.572  0.00  0.00    +0.000 HD
ENDBRANCH  24  25
ENDBRANCH  17  24
ENDBRANCH  16  20
ENDBRANCH  15  16
ENDBRANCH   1  15
TORSDOF 6
ENDMDL
MODEL 7
REMARK VINA RESULT:      -7.8      1.571      1.788
REMARK  Name = 
REMARK  6 active torsions:
REMARK  status: ('A' for Active; 'I' for Inactive)
REMARK    1  A    between atoms: C_2  and  O_3
REMARK    2  A    between atoms: C_2  and  C_4
REMARK    3  A    between atoms: C_7  and  C_8
REMARK    4  A    between atoms: C_8  and  S_9
REMARK    5  A    between atoms: S_9  and  C_10
REMARK    6  A    between atoms: C_13  and  C_14
REMARK                            x       y       z     vdW  Elec       q    Type
REMARK                         _______ _______ _______ _____ _____    ______ ____
ROOT
ATOM      1  C   UNL     1       7.657   7.258  17.856  0.00  0.00    +0.000 A 
ATOM      2  N   UNL     1       6.992   8.052  17.042  0.00  0.00    +0.000 NA
ATOM      3  N   UNL     1       7.439   9.333  17.295  0.00  0.00    +0.000 NA
ATOM      4  C   UNL     1       8.352   9.235  18.240  0.00  0.00    +0.000 A 
ATOM      5  O   UNL     1       8.528   7.945  18.661  0.00  0.00    +0.000 OA
ENDROOT
BRANCH   4   6
ATOM      6  C   UNL     1       9.292  10.238  18.727  0.00  0.00    +0.000 A 
ATOM      7  C   UNL     1      10.146  10.952  17.849  0.00  0.00    +0.000 A 
ATOM      8  C   UNL     1      10.852  12.079  18.282  0.00  0.00    +0.000 A 
ATOM      9  C   UNL     1      10.658  12.484  19.585  0.00  0.00    +0.000 A 
ATOM     10  C   UNL     1       9.892  11.753  20.463  0.00  0.00    +0.000 A 
ATOM     11  C   UNL     1       9.233  10.607  20.080  0.00  0.00    +0.000 A 
ATOM     12  O   UNL     1       9.781  12.362  21.675  0.00  0.00    +0.000 OA
ATOM     13  C   UNL     1      10.275  13.671  21.327  0.00  0.00    +0.000 C 
ATOM     14  O   UNL     1      11.098  13.647  20.141  0.00  0.00    +0.000 OA
ENDBRANCH   4   6
BRANCH   1  15
ATOM     15  S   UNL     1       7.491   5.533  17.934  0.00  0.00    +0.000 S 
BRANCH  15  16
ATOM     16  C   UNL     1       6.194   5.249  16.690  0.00  0.00    +0.000 C 
BRANCH  16  20
ATOM     17  C   UNL     1       2.457   3.996  18.478  0.00  0.00    +0.000 A 
ATOM     18  C   UNL     1       3.431   3.048  18.144  0.00  0.00    +0.000 A 
ATOM     19  C   UNL     1       4.643   3.456  17.581  0.00  0.00    +0.000 A 
ATOM     20  C   UNL     1       4.904   4.817  17.359  0.00  0.00    +0.000 A 
ATOM     21  C   UNL     1       3.930   5.763  17.714  0.00  0.00    +0.000 A 
ATOM     22  C   UNL     1       2.719   5.359  18.289  0.00  0.00    +0.000 A 
BRANCH  17  24
ATOM     23  O   UNL     1       0.725   3.947  20.109  0.00  0.00    +0.000 OA
ATOM     24  C   UNL     1       1.183   3.517  19.066  0.00  0.00    +0.000 C 
BRANCH  24  25
ATOM     25  O   UNL     1       0.603   2.521  18.357  0.00  0.00    +0.000 OA
ATOM     26  H   UNL     1       0.625   1.647  18.787  0.00  0.00    +0.000 HD
ENDBRANCH  24  25
ENDBRANCH  17  24
ENDBRANCH  16  20
ENDBRANCH  15  16
ENDBRANCH   1  15
TORSDOF 6
ENDMDL
MODEL 8
REMARK VINA RESULT:      -7.7      1.508      2.231
REMARK  Name = 
REMARK  6 active torsions:
REMARK  status: ('A' for Active; 'I' for Inactive)
REMARK    1  A    between atoms: C_2  and  O_3
REMARK    2  A    between atoms: C_2  and  C_4
REMARK    3  A    between atoms: C_7  and  C_8
REMARK    4  A    between atoms: C_8  and  S_9
REMARK    5  A    between atoms: S_9  and  C_10
REMARK    6  A    between atoms: C_13  and  C_14
REMARK                            x       y       z     vdW  Elec       q    Type
REMARK                         _______ _______ _______ _____ _____    ______ ____
ROOT
ATOM      1  C   UNL     1       7.123   7.185  17.502  0.00  0.00    +0.000 A 
ATOM      2  N   UNL     1       7.768   6.547  18.457  0.00  0.00    +0.000 NA
ATOM      3  N   UNL     1       8.621   7.466  19.033  0.00  0.00    +0.000 NA
ATOM      4  C   UNL     1       8.435   8.605  18.398  0.00  0.00    +0.000 A 
ATOM      5  O   UNL     1       7.511   8.496  17.396  0.00  0.00    +0.000 OA
ENDROOT
BRANCH   4   6
ATOM      6  C   UNL     1       8.911   9.942  18.735  0.00  0.00    +0.000 A 
ATOM      7  C   UNL     1       9.229  10.309  20.067  0.00  0.00    +0.000 A 
ATOM      8  C   UNL     1       9.918  11.492  20.348  0.00  0.00    +0.000 A 
ATOM      9  C   UNL     1      10.304  12.268  19.276  0.00  0.00    +0.000 A 
ATOM     10  C   UNL     1       9.933  11.957  17.988  0.00  0.00    +0.000 A 
ATOM     11  C   UNL     1       9.203  10.830  17.688  0.00  0.00    +0.000 A 
ATOM     12  O   UNL     1      10.472  12.816  17.079  0.00  0.00    +0.000 OA
ATOM     13  C   UNL     1      11.455  13.458  17.916  0.00  0.00    +0.000 C 
ATOM     14  O   UNL     1      11.135  13.346  19.320  0.00  0.00    +0.000 OA
ENDBRANCH   4   6
BRANCH   1  15
ATOM     15  S   UNL     1       5.910   6.494  16.474  0.00  0.00    +0.000 S 
BRANCH  15  16
ATOM     16  C   UNL     1       6.074   4.727  16.875  0.00  0.00    +0.000 C 
BRANCH  16  20
ATOM     17  C   UNL     1       2.493   3.123  18.699  0.00  0.00    +0.000 A 
ATOM     18  C   UNL     1       3.613   3.414  19.485  0.00  0.00    +0.000 A 
ATOM     19  C   UNL     1       4.764   3.946  18.896  0.00  0.00    +0.000 A 
ATOM     20  C   UNL     1       4.803   4.209  17.518  0.00  0.00    +0.000 A 
ATOM     21  C   UNL     1       3.669   3.933  16.740  0.00  0.00    +0.000 A 
ATOM     22  C   UNL     1       2.511   3.410  17.328  0.00  0.00    +0.000 A 
BRANCH  17  24
ATOM     23  O   UNL     1       0.320   2.154  18.757  0.00  0.00    +0.000 OA
ATOM     24  C   UNL     1       1.297   2.552  19.365  0.00  0.00    +0.000 C 
BRANCH  24  25
ATOM     25  O   UNL     1       1.377   2.560  20.715  0.00  0.00    +0.000 OA
ATOM     26  H   UNL     1       1.834   1.792  21.102  0.00  0.00    +0.000 HD
ENDBRANCH  24  25
ENDBRANCH  17  24
ENDBRANCH  16  20
ENDBRANCH  15  16
ENDBRANCH   1  15
TORSDOF 6
ENDMDL
MODEL 9
REMARK VINA RESULT:      -7.7      5.507      7.779
REMARK  Name = 
REMARK  6 active torsions:
REMARK  status: ('A' for Active; 'I' for Inactive)
REMARK    1  A    between atoms: C_2  and  O_3
REMARK    2  A    between atoms: C_2  and  C_4
REMARK    3  A    between atoms: C_7  and  C_8
REMARK    4  A    between atoms: C_8  and  S_9
REMARK    5  A    between atoms: S_9  and  C_10
REMARK    6  A    between atoms: C_13  and  C_14
REMARK                            x       y       z     vdW  Elec       q    Type
REMARK                         _______ _______ _______ _____ _____    ______ ____
ROOT
ATOM      1  C   UNL     1       1.819   6.209  20.534  0.00  0.00    +0.000 A 
ATOM      2  N   UNL     1       2.476   6.947  19.664  0.00  0.00    +0.000 NA
ATOM      3  N   UNL     1       1.919   8.208  19.722  0.00  0.00    +0.000 NA
ATOM      4  C   UNL     1       0.966   8.159  20.630  0.00  0.00    +0.000 A 
ATOM      5  O   UNL     1       0.831   6.912  21.174  0.00  0.00    +0.000 OA
ENDROOT
BRANCH   4   6
ATOM      6  C   UNL     1       0.213   9.248  21.242  0.00  0.00    +0.000 A 
ATOM      7  C   UNL     1      -0.372   9.123  22.527  0.00  0.00    +0.000 A 
ATOM      8  C   UNL     1      -0.867  10.239  23.210  0.00  0.00    +0.000 A 
ATOM      9  C   UNL     1      -0.731  11.465  22.598  0.00  0.00    +0.000 A 
ATOM     10  C   UNL     1      -0.233  11.585  21.320  0.00  0.00    +0.000 A 
ATOM     11  C   UNL     1       0.205  10.497  20.601  0.00  0.00    +0.000 A 
ATOM     12  O   UNL     1      -0.125  12.886  20.933  0.00  0.00    +0.000 OA
ATOM     13  C   UNL     1      -0.291  13.527  22.214  0.00  0.00    +0.000 C 
ATOM     14  O   UNL     1      -0.972  12.680  23.165  0.00  0.00    +0.000 OA
ENDBRANCH   4   6
BRANCH   1  15
ATOM     15  S   UNL     1       2.134   4.538  20.875  0.00  0.00    +0.000 S 
BRANCH  15  16
ATOM     16  C   UNL     1       2.076   3.822  19.203  0.00  0.00    +0.000 C 
BRANCH  16  20
ATOM     17  C   UNL     1       5.866   4.476  17.221  0.00  0.00    +0.000 A 
ATOM     18  C   UNL     1       5.816   4.324  18.611  0.00  0.00    +0.000 A 
ATOM     19  C   UNL     1       4.592   4.098  19.247  0.00  0.00    +0.000 A 
ATOM     20  C   UNL     1       3.407   4.005  18.502  0.00  0.00    +0.000 A 
ATOM     21  C   UNL     1       3.468   4.138  17.107  0.00  0.00    +0.000 A 
ATOM     22  C   UNL     1       4.693   4.354  16.464  0.00  0.00    +0.000 A 
BRANCH  17  24
ATOM     23  O   UNL     1       7.325   5.365  15.564  0.00  0.00    +0.000 OA
ATOM     24  C   UNL     1       7.184   4.723  16.589  0.00  0.00    +0.000 C 
BRANCH  24  25
ATOM     25  O   UNL     1       8.212   4.125  17.234  0.00  0.00    +0.000 OA
ATOM     26  H   UNL     1       8.006   3.819  18.137  0.00  0.00    +0.000 HD
ENDBRANCH  24  25
ENDBRANCH  17  24
ENDBRANCH  16  20
ENDBRANCH  15  16
ENDBRANCH   1  15
TORSDOF 6
ENDMDL
