MODEL 1
REMARK VINA RESULT:      -7.7      0.000      0.000
REMARK  Name = 
REMARK  8 active torsions:
REMARK  status: ('A' for Active; 'I' for Inactive)
REMARK    1  A    between atoms: C_1  and  O_2
REMARK    2  A    between atoms: O_2  and  C_3
REMARK    3  A    between atoms: C_7  and  O_8
REMARK    4  A    between atoms: O_8  and  C_9
REMARK    5  A    between atoms: C_10  and  C_11
REMARK    6  A    between atoms: C_15  and  N_16
REMARK    7  A    between atoms: N_16  and  C_17
REMARK    8  A    between atoms: N_21  and  O_22
REMARK                            x       y       z     vdW  Elec       q    Type
REMARK                         _______ _______ _______ _____ _____    ______ ____
ROOT
ATOM      1  C   UNL     1       0.850   9.805  19.234  0.00  0.00    +0.000 A 
ATOM      2  C   UNL     1       1.573   9.798  18.026  0.00  0.00    +0.000 A 
ATOM      3  C   UNL     1       2.466   8.766  17.706  0.00  0.00    +0.000 A 
ATOM      4  C   UNL     1       2.627   7.684  18.568  0.00  0.00    +0.000 A 
ATOM      5  C   UNL     1       1.888   7.621  19.750  0.00  0.00    +0.000 A 
ATOM      6  C   UNL     1       1.062   8.707  20.091  0.00  0.00    +0.000 A 
ENDROOT
BRANCH   1  12
ATOM      7  C   UNL     1       0.294  11.997  20.427  0.00  0.00    +0.000 A 
ATOM      8  C   UNL     1      -0.595  13.044  20.721  0.00  0.00    +0.000 A 
ATOM      9  C   UNL     1      -1.910  13.002  20.284  0.00  0.00    +0.000 A 
ATOM     10  C   UNL     1      -2.342  11.933  19.514  0.00  0.00    +0.000 A 
ATOM     11  C   UNL     1      -1.457  10.909  19.142  0.00  0.00    +0.000 A 
ATOM     12  C   UNL     1      -0.103  10.908  19.599  0.00  0.00    +0.000 A 
BRANCH   7  14
ATOM     13  C   UNL     1       2.346  13.178  20.603  0.00  0.00    +0.000 C 
ATOM     14  O   UNL     1       1.583  12.013  20.911  0.00  0.00    +0.000 OA
ENDBRANCH   7  14
BRANCH  11  15
ATOM     15  O   UNL     1      -1.860   9.865  18.336  0.00  0.00    +0.000 OA
ATOM     16  C   UNL     1      -2.747  10.157  17.263  0.00  0.00    +0.000 C 
ENDBRANCH  11  15
ENDBRANCH   1  12
BRANCH   5  17
ATOM     17  N   UNL     1       2.088   6.522  20.629  0.00  0.00    +0.000 N 
ATOM     18  H   UNL     1       1.401   6.590  21.376  0.00  0.00    +0.000 HD
BRANCH  17  19
ATOM     19  C   UNL     1       2.221   5.223  20.169  0.00  0.00    +0.000 A 
ATOM     20  C   UNL     1       1.153   4.480  19.822  0.00  0.00    +0.000 A 
ATOM     21  C   UNL     1       1.324   3.102  19.330  0.00  0.00    +0.000 A 
ATOM     22  O   UNL     1       0.358   2.415  19.005  0.00  0.00    +0.000 OA
ATOM     23  N   UNL     1       2.621   2.660  19.269  0.00  0.00    +0.000 N 
ATOM     24  C   UNL     1       3.734   3.395  19.612  0.00  0.00    +0.000 A 
ATOM     25  O   UNL     1       4.899   3.003  19.562  0.00  0.00    +0.000 OA
ATOM     26  N   UNL     1       3.467   4.675  20.039  0.00  0.00    +0.000 N 
ATOM     27  H   UNL     1       4.283   5.202  20.315  0.00  0.00    +0.000 HD
BRANCH  23  28
ATOM     28  O   UNL     1       2.820   1.345  18.798  0.00  0.00    +0.000 OA
ATOM     29  H   UNL     1       3.455   0.992  19.454  0.00  0.00    +0.000 HD
ENDBRANCH  23  28
ENDBRANCH  17  19
ENDBRANCH   5  17
TORSDOF 6
ENDMDL
MODEL 2
REMARK VINA RESULT:      -7.6      0.583      2.538
REMARK  Name = 
REMARK  8 active torsions:
REMARK  status: ('A' for Active; 'I' for Inactive)
REMARK    1  A    between atoms: C_1  and  O_2
REMARK    2  A    between atoms: O_2  and  C_3
REMARK    3  A    between atoms: C_7  and  O_8
REMARK    4  A    between atoms: O_8  and  C_9
REMARK    5  A    between atoms: C_10  and  C_11
REMARK    6  A    between atoms: C_15  and  N_16
REMARK    7  A    between atoms: N_16  and  C_17
REMARK    8  A    between atoms: N_21  and  O_22
REMARK                            x       y       z     vdW  Elec       q    Type
REMARK                         _______ _______ _______ _____ _____    ______ ____
ROOT
ATOM      1  C   UNL     1       0.811   9.899  19.230  0.00  0.00    +0.000 A 
ATOM      2  C   UNL     1       1.462   9.873  17.982  0.00  0.00    +0.000 A 
ATOM      3  C   UNL     1       2.345   8.843  17.632  0.00  0.00    +0.000 A 
ATOM      4  C   UNL     1       2.568   7.781  18.505  0.00  0.00    +0.000 A 
ATOM      5  C   UNL     1       1.900   7.737  19.730  0.00  0.00    +0.000 A 
ATOM      6  C   UNL     1       1.084   8.822  20.096  0.00  0.00    +0.000 A 
ENDROOT
BRANCH   1  12
ATOM      7  C   UNL     1      -1.487  11.018  19.194  0.00  0.00    +0.000 A 
ATOM      8  C   UNL     1      -2.368  12.030  19.612  0.00  0.00    +0.000 A 
ATOM      9  C   UNL     1      -1.917  13.086  20.389  0.00  0.00    +0.000 A 
ATOM     10  C   UNL     1      -0.591  13.124  20.791  0.00  0.00    +0.000 A 
ATOM     11  C   UNL     1       0.295  12.089  20.450  0.00  0.00    +0.000 A 
ATOM     12  C   UNL     1      -0.131  11.001  19.627  0.00  0.00    +0.000 A 
BRANCH   7  14
ATOM     13  C   UNL     1      -2.229  10.374  17.033  0.00  0.00    +0.000 C 
ATOM     14  O   UNL     1      -1.924  10.001  18.375  0.00  0.00    +0.000 OA
ENDBRANCH   7  14
BRANCH  11  15
ATOM     15  O   UNL     1       1.604  12.088  20.883  0.00  0.00    +0.000 OA
ATOM     16  C   UNL     1       2.341  13.301  20.774  0.00  0.00    +0.000 C 
ENDBRANCH  11  15
ENDBRANCH   1  12
BRANCH   5  17
ATOM     17  N   UNL     1       2.164   6.658  20.617  0.00  0.00    +0.000 N 
ATOM     18  H   UNL     1       1.377   6.582  21.259  0.00  0.00    +0.000 HD
BRANCH  17  19
ATOM     19  C   UNL     1       2.584   5.418  20.170  0.00  0.00    +0.000 A 
ATOM     20  C   UNL     1       1.720   4.406  19.968  0.00  0.00    +0.000 A 
ATOM     21  C   UNL     1       2.195   3.097  19.486  0.00  0.00    +0.000 A 
ATOM     22  O   UNL     1       1.415   2.166  19.293  0.00  0.00    +0.000 OA
ATOM     23  N   UNL     1       3.547   3.007  19.276  0.00  0.00    +0.000 N 
ATOM     24  C   UNL     1       4.456   4.023  19.468  0.00  0.00    +0.000 A 
ATOM     25  O   UNL     1       5.670   3.948  19.285  0.00  0.00    +0.000 OA
ATOM     26  N   UNL     1       3.908   5.209  19.901  0.00  0.00    +0.000 N 
ATOM     27  H   UNL     1       4.581   5.944  20.065  0.00  0.00    +0.000 HD
BRANCH  23  28
ATOM     28  O   UNL     1       4.034   1.768  18.809  0.00  0.00    +0.000 OA
ATOM     29  H   UNL     1       4.711   2.051  18.161  0.00  0.00    +0.000 HD
ENDBRANCH  23  28
ENDBRANCH  17  19
ENDBRANCH   5  17
TORSDOF 6
ENDMDL
MODEL 3
REMARK VINA RESULT:      -7.5      0.540      1.591
REMARK  Name = 
REMARK  8 active torsions:
REMARK  status: ('A' for Active; 'I' for Inactive)
REMARK    1  A    between atoms: C_1  and  O_2
REMARK    2  A    between atoms: O_2  and  C_3
REMARK    3  A    between atoms: C_7  and  O_8
REMARK    4  A    between atoms: O_8  and  C_9
REMARK    5  A    between atoms: C_10  and  C_11
REMARK    6  A    between atoms: C_15  and  N_16
REMARK    7  A    between atoms: N_16  and  C_17
REMARK    8  A    between atoms: N_21  and  O_22
REMARK                            x       y       z     vdW  Elec       q    Type
REMARK                         _______ _______ _______ _____ _____    ______ ____
ROOT
ATOM      1  C   UNL     1       0.814   9.817  19.234  0.00  0.00    +0.000 A 
ATOM      2  C   UNL     1       1.540   9.808  18.029  0.00  0.00    +0.000 A 
ATOM      3  C   UNL     1       2.432   8.775  17.713  0.00  0.00    +0.000 A 
ATOM      4  C   UNL     1       2.590   7.693  18.576  0.00  0.00    +0.000 A 
ATOM      5  C   UNL     1       1.848   7.632  19.757  0.00  0.00    +0.000 A 
ATOM      6  C   UNL     1       1.022   8.720  20.094  0.00  0.00    +0.000 A 
ENDROOT
BRANCH   1  12
ATOM      7  C   UNL     1       0.247  11.993  20.450  0.00  0.00    +0.000 A 
ATOM      8  C   UNL     1      -0.641  13.042  20.741  0.00  0.00    +0.000 A 
ATOM      9  C   UNL     1      -1.946  13.018  20.274  0.00  0.00    +0.000 A 
ATOM     10  C   UNL     1      -2.369  11.965  19.476  0.00  0.00    +0.000 A 
ATOM     11  C   UNL     1      -1.483  10.940  19.108  0.00  0.00    +0.000 A 
ATOM     12  C   UNL     1      -0.140  10.921  19.596  0.00  0.00    +0.000 A 
BRANCH   7  14
ATOM     13  C   UNL     1       2.323  13.129  20.642  0.00  0.00    +0.000 C 
ATOM     14  O   UNL     1       1.524  11.992  20.963  0.00  0.00    +0.000 OA
ENDBRANCH   7  14
BRANCH  11  15
ATOM     15  O   UNL     1      -1.875   9.912  18.277  0.00  0.00    +0.000 OA
ATOM     16  C   UNL     1      -2.235  10.239  16.940  0.00  0.00    +0.000 C 
ENDBRANCH  11  15
ENDBRANCH   1  12
BRANCH   5  17
ATOM     17  N   UNL     1       2.045   6.534  20.637  0.00  0.00    +0.000 N 
ATOM     18  H   UNL     1       1.305   6.557  21.335  0.00  0.00    +0.000 HD
BRANCH  17  19
ATOM     19  C   UNL     1       2.276   5.250  20.176  0.00  0.00    +0.000 A 
ATOM     20  C   UNL     1       3.519   4.742  20.083  0.00  0.00    +0.000 A 
ATOM     21  C   UNL     1       3.737   3.369  19.594  0.00  0.00    +0.000 A 
ATOM     22  O   UNL     1       4.867   2.892  19.510  0.00  0.00    +0.000 OA
ATOM     23  N   UNL     1       2.599   2.686  19.248  0.00  0.00    +0.000 N 
ATOM     24  C   UNL     1       1.315   3.174  19.334  0.00  0.00    +0.000 A 
ATOM     25  O   UNL     1       0.291   2.568  19.021  0.00  0.00    +0.000 OA
ATOM     26  N   UNL     1       1.220   4.458  19.821  0.00  0.00    +0.000 N 
ATOM     27  H   UNL     1       0.278   4.821  19.858  0.00  0.00    +0.000 HD
BRANCH  23  28
ATOM     28  O   UNL     1       2.772   1.366  18.779  0.00  0.00    +0.000 OA
ATOM     29  H   UNL     1       2.630   0.844  19.595  0.00  0.00    +0.000 HD
ENDBRANCH  23  28
ENDBRANCH  17  19
ENDBRANCH   5  17
TORSDOF 6
ENDMDL
MODEL 4
REMARK VINA RESULT:      -7.5      3.070      8.107
REMARK  Name = 
REMARK  8 active torsions:
REMARK  status: ('A' for Active; 'I' for Inactive)
REMARK    1  A    between atoms: C_1  and  O_2
REMARK    2  A    between atoms: O_2  and  C_3
REMARK    3  A    between atoms: C_7  and  O_8
REMARK    4  A    between atoms: O_8  and  C_9
REMARK    5  A    between atoms: C_10  and  C_11
REMARK    6  A    between atoms: C_15  and  N_16
REMARK    7  A    between atoms: N_16  and  C_17
REMARK    8  A    between atoms: N_21  and  O_22
REMARK                            x       y       z     vdW  Elec       q    Type
REMARK                         _______ _______ _______ _____ _____    ______ ____
ROOT
ATOM      1  C   UNL     1       2.564   6.850  18.685  0.00  0.00    +0.000 A 
ATOM      2  C   UNL     1       2.293   6.777  20.064  0.00  0.00    +0.000 A 
ATOM      3  C   UNL     1       1.657   7.821  20.748  0.00  0.00    +0.000 A 
ATOM      4  C   UNL     1       1.231   8.955  20.060  0.00  0.00    +0.000 A 
ATOM      5  C   UNL     1       1.429   9.046  18.681  0.00  0.00    +0.000 A 
ATOM      6  C   UNL     1       2.143   8.025  18.030  0.00  0.00    +0.000 A 
ENDROOT
BRANCH   1  12
ATOM      7  C   UNL     1       4.538   5.929  17.346  0.00  0.00    +0.000 A 
ATOM      8  C   UNL     1       5.191   4.872  16.690  0.00  0.00    +0.000 A 
ATOM      9  C   UNL     1       4.567   3.646  16.525  0.00  0.00    +0.000 A 
ATOM     10  C   UNL     1       3.298   3.447  17.049  0.00  0.00    +0.000 A 
ATOM     11  C   UNL     1       2.650   4.460  17.773  0.00  0.00    +0.000 A 
ATOM     12  C   UNL     1       3.255   5.745  17.937  0.00  0.00    +0.000 A 
BRANCH   7  14
ATOM     13  C   UNL     1       6.557   7.177  17.326  0.00  0.00    +0.000 C 
ATOM     14  O   UNL     1       5.137   7.164  17.458  0.00  0.00    +0.000 OA
ENDBRANCH   7  14
BRANCH  11  15
ATOM     15  O   UNL     1       1.410   4.261  18.340  0.00  0.00    +0.000 OA
ATOM     16  C   UNL     1       1.061   2.938  18.729  0.00  0.00    +0.000 C 
ENDBRANCH  11  15
ENDBRANCH   1  12
BRANCH   5  17
ATOM     17  N   UNL     1       1.012  10.224  18.004  0.00  0.00    +0.000 N 
ATOM     18  H   UNL     1       1.300  10.143  17.031  0.00  0.00    +0.000 HD
BRANCH  17  19
ATOM     19  C   UNL     1      -0.272  10.728  18.119  0.00  0.00    +0.000 A 
ATOM     20  C   UNL     1      -0.579  11.692  19.006  0.00  0.00    +0.000 A 
ATOM     21  C   UNL     1      -1.953  12.215  19.104  0.00  0.00    +0.000 A 
ATOM     22  O   UNL     1      -2.246  13.099  19.907  0.00  0.00    +0.000 OA
ATOM     23  N   UNL     1      -2.858  11.644  18.246  0.00  0.00    +0.000 N 
ATOM     24  C   UNL     1      -2.576  10.659  17.325  0.00  0.00    +0.000 A 
ATOM     25  O   UNL     1      -3.383  10.141  16.555  0.00  0.00    +0.000 OA
ATOM     26  N   UNL     1      -1.260  10.256  17.301  0.00  0.00    +0.000 N 
ATOM     27  H   UNL     1      -1.063   9.516  16.642  0.00  0.00    +0.000 HD
BRANCH  23  28
ATOM     28  O   UNL     1      -4.183  12.124  18.311  0.00  0.00    +0.000 OA
ATOM     29  H   UNL     1      -4.629  11.411  18.813  0.00  0.00    +0.000 HD
ENDBRANCH  23  28
ENDBRANCH  17  19
ENDBRANCH   5  17
TORSDOF 6
ENDMDL
MODEL 5
REMARK VINA RESULT:      -7.5      3.099      8.070
REMARK  Name = 
REMARK  8 active torsions:
REMARK  status: ('A' for Active; 'I' for Inactive)
REMARK    1  A    between atoms: C_1  and  O_2
REMARK    2  A    between atoms: O_2  and  C_3
REMARK    3  A    between atoms: C_7  and  O_8
REMARK    4  A    between atoms: O_8  and  C_9
REMARK    5  A    between atoms: C_10  and  C_11
REMARK    6  A    between atoms: C_15  and  N_16
REMARK    7  A    between atoms: N_16  and  C_17
REMARK    8  A    between atoms: N_21  and  O_22
REMARK                            x       y       z     vdW  Elec       q    Type
REMARK                         _______ _______ _______ _____ _____    ______ ____
ROOT
ATOM      1  C   UNL     1       2.559   6.854  18.659  0.00  0.00    +0.000 A 
ATOM      2  C   UNL     1       2.327   6.804  20.046  0.00  0.00    +0.000 A 
ATOM      3  C   UNL     1       1.678   7.844  20.724  0.00  0.00    +0.000 A 
ATOM      4  C   UNL     1       1.199   8.949  20.023  0.00  0.00    +0.000 A 
ATOM      5  C   UNL     1       1.357   9.014  18.638  0.00  0.00    +0.000 A 
ATOM      6  C   UNL     1       2.084   8.000  17.990  0.00  0.00    +0.000 A 
ENDROOT
BRANCH   1  12
ATOM      7  C   UNL     1       4.549   5.945  17.336  0.00  0.00    +0.000 A 
ATOM      8  C   UNL     1       5.213   4.892  16.685  0.00  0.00    +0.000 A 
ATOM      9  C   UNL     1       4.598   3.662  16.515  0.00  0.00    +0.000 A 
ATOM     10  C   UNL     1       3.327   3.455  17.028  0.00  0.00    +0.000 A 
ATOM     11  C   UNL     1       2.667   4.465  17.747  0.00  0.00    +0.000 A 
ATOM     12  C   UNL     1       3.262   5.752  17.916  0.00  0.00    +0.000 A 
BRANCH   7  14
ATOM     13  C   UNL     1       6.562   7.201  17.362  0.00  0.00    +0.000 C 
ATOM     14  O   UNL     1       5.140   7.183  17.453  0.00  0.00    +0.000 OA
ENDBRANCH   7  14
BRANCH  11  15
ATOM     15  O   UNL     1       1.423   4.258  18.305  0.00  0.00    +0.000 OA
ATOM     16  C   UNL     1       1.097   2.941  18.734  0.00  0.00    +0.000 C 
ENDBRANCH  11  15
ENDBRANCH   1  12
BRANCH   5  17
ATOM     17  N   UNL     1       0.886  10.163  17.946  0.00  0.00    +0.000 N 
ATOM     18  H   UNL     1       1.058  10.022  16.953  0.00  0.00    +0.000 HD
BRANCH  17  19
ATOM     19  C   UNL     1      -0.366  10.704  18.179  0.00  0.00    +0.000 A 
ATOM     20  C   UNL     1      -1.487  10.136  17.698  0.00  0.00    +0.000 A 
ATOM     21  C   UNL     1      -2.808  10.731  17.966  0.00  0.00    +0.000 A 
ATOM     22  O   UNL     1      -3.840  10.218  17.537  0.00  0.00    +0.000 OA
ATOM     23  N   UNL     1      -2.790  11.878  18.717  0.00  0.00    +0.000 N 
ATOM     24  C   UNL     1      -1.663  12.483  19.227  0.00  0.00    +0.000 A 
ATOM     25  O   UNL     1      -1.640  13.514  19.899  0.00  0.00    +0.000 OA
ATOM     26  N   UNL     1      -0.484  11.837  18.936  0.00  0.00    +0.000 N 
ATOM     27  H   UNL     1       0.343  12.298  19.290  0.00  0.00    +0.000 HD
BRANCH  23  28
ATOM     28  O   UNL     1      -4.039  12.472  18.996  0.00  0.00    +0.000 OA
ATOM     29  H   UNL     1      -3.847  13.421  18.847  0.00  0.00    +0.000 HD
ENDBRANCH  23  28
ENDBRANCH  17  19
ENDBRANCH   5  17
TORSDOF 6
ENDMDL
MODEL 6
REMARK VINA RESULT:      -7.5      1.104      1.315
REMARK  Name = 
REMARK  8 active torsions:
REMARK  status: ('A' for Active; 'I' for Inactive)
REMARK    1  A    between atoms: C_1  and  O_2
REMARK    2  A    between atoms: O_2  and  C_3
REMARK    3  A    between atoms: C_7  and  O_8
REMARK    4  A    between atoms: O_8  and  C_9
REMARK    5  A    between atoms: C_10  and  C_11
REMARK    6  A    between atoms: C_15  and  N_16
REMARK    7  A    between atoms: N_16  and  C_17
REMARK    8  A    between atoms: N_21  and  O_22
REMARK                            x       y       z     vdW  Elec       q    Type
REMARK                         _______ _______ _______ _____ _____    ______ ____
ROOT
ATOM      1  C   UNL     1       0.793   9.862  19.157  0.00  0.00    +0.000 A 
ATOM      2  C   UNL     1       1.469   9.812  17.924  0.00  0.00    +0.000 A 
ATOM      3  C   UNL     1       2.392   8.800  17.628  0.00  0.00    +0.000 A 
ATOM      4  C   UNL     1       2.632   7.778  18.545  0.00  0.00    +0.000 A 
ATOM      5  C   UNL     1       1.941   7.757  19.758  0.00  0.00    +0.000 A 
ATOM      6  C   UNL     1       1.083   8.827  20.068  0.00  0.00    +0.000 A 
ENDROOT
BRANCH   1  12
ATOM      7  C   UNL     1       0.151  12.026  20.358  0.00  0.00    +0.000 A 
ATOM      8  C   UNL     1      -0.765  13.056  20.628  0.00  0.00    +0.000 A 
ATOM      9  C   UNL     1      -2.058  13.003  20.131  0.00  0.00    +0.000 A 
ATOM     10  C   UNL     1      -2.439  11.941  19.325  0.00  0.00    +0.000 A 
ATOM     11  C   UNL     1      -1.524  10.935  18.978  0.00  0.00    +0.000 A 
ATOM     12  C   UNL     1      -0.192  10.946  19.496  0.00  0.00    +0.000 A 
BRANCH   7  14
ATOM     13  C   UNL     1       2.176  13.232  20.646  0.00  0.00    +0.000 C 
ATOM     14  O   UNL     1       1.417  12.052  20.900  0.00  0.00    +0.000 OA
ENDBRANCH   7  14
BRANCH  11  15
ATOM     15  O   UNL     1      -1.874   9.899  18.138  0.00  0.00    +0.000 OA
ATOM     16  C   UNL     1      -2.220  10.219  16.795  0.00  0.00    +0.000 C 
ENDBRANCH  11  15
ENDBRANCH   1  12
BRANCH   5  17
ATOM     17  N   UNL     1       2.222   6.721  20.690  0.00  0.00    +0.000 N 
ATOM     18  H   UNL     1       1.766   6.959  21.568  0.00  0.00    +0.000 HD
BRANCH  17  19
ATOM     19  C   UNL     1       2.066   5.382  20.376  0.00  0.00    +0.000 A 
ATOM     20  C   UNL     1       2.086   4.424  21.320  0.00  0.00    +0.000 A 
ATOM     21  C   UNL     1       1.912   3.006  20.958  0.00  0.00    +0.000 A 
ATOM     22  O   UNL     1       1.923   2.122  21.812  0.00  0.00    +0.000 OA
ATOM     23  N   UNL     1       1.742   2.762  19.619  0.00  0.00    +0.000 N 
ATOM     24  C   UNL     1       1.713   3.718  18.629  0.00  0.00    +0.000 A 
ATOM     25  O   UNL     1       1.564   3.506  17.426  0.00  0.00    +0.000 OA
ATOM     26  N   UNL     1       1.865   5.011  19.075  0.00  0.00    +0.000 N 
ATOM     27  H   UNL     1       1.869   5.707  18.343  0.00  0.00    +0.000 HD
BRANCH  23  28
ATOM     28  O   UNL     1       1.568   1.415  19.239  0.00  0.00    +0.000 OA
ATOM     29  H   UNL     1       2.164   0.953  19.863  0.00  0.00    +0.000 HD
ENDBRANCH  23  28
ENDBRANCH  17  19
ENDBRANCH   5  17
TORSDOF 6
ENDMDL
MODEL 7
REMARK VINA RESULT:      -7.5      0.542      2.936
REMARK  Name = 
REMARK  8 active torsions:
REMARK  status: ('A' for Active; 'I' for Inactive)
REMARK    1  A    between atoms: C_1  and  O_2
REMARK    2  A    between atoms: O_2  and  C_3
REMARK    3  A    between atoms: C_7  and  O_8
REMARK    4  A    between atoms: O_8  and  C_9
REMARK    5  A    between atoms: C_10  and  C_11
REMARK    6  A    between atoms: C_15  and  N_16
REMARK    7  A    between atoms: N_16  and  C_17
REMARK    8  A    between atoms: N_21  and  O_22
REMARK                            x       y       z     vdW  Elec       q    Type
REMARK                         _______ _______ _______ _____ _____    ______ ____
ROOT
ATOM      1  C   UNL     1       0.806   9.844  19.250  0.00  0.00    +0.000 A 
ATOM      2  C   UNL     1       1.538   9.834  18.048  0.00  0.00    +0.000 A 
ATOM      3  C   UNL     1       2.424   8.796  17.732  0.00  0.00    +0.000 A 
ATOM      4  C   UNL     1       2.570   7.710  18.592  0.00  0.00    +0.000 A 
ATOM      5  C   UNL     1       1.822   7.651  19.769  0.00  0.00    +0.000 A 
ATOM      6  C   UNL     1       1.002   8.743  20.106  0.00  0.00    +0.000 A 
ENDROOT
BRANCH   1  12
ATOM      7  C   UNL     1      -1.481  10.981  19.128  0.00  0.00    +0.000 A 
ATOM      8  C   UNL     1      -2.367  12.001  19.512  0.00  0.00    +0.000 A 
ATOM      9  C   UNL     1      -1.937  13.055  20.302  0.00  0.00    +0.000 A 
ATOM     10  C   UNL     1      -0.626  13.083  20.752  0.00  0.00    +0.000 A 
ATOM     11  C   UNL     1       0.264  12.041  20.445  0.00  0.00    +0.000 A 
ATOM     12  C   UNL     1      -0.141  10.954  19.611  0.00  0.00    +0.000 A 
BRANCH   7  14
ATOM     13  C   UNL     1      -2.278  10.360  16.980  0.00  0.00    +0.000 C 
ATOM     14  O   UNL     1      -1.896   9.965  18.296  0.00  0.00    +0.000 OA
ENDBRANCH   7  14
BRANCH  11  15
ATOM     15  O   UNL     1       1.556  12.031  20.926  0.00  0.00    +0.000 OA
ATOM     16  C   UNL     1       2.378  13.159  20.646  0.00  0.00    +0.000 C 
ENDBRANCH  11  15
ENDBRANCH   1  12
BRANCH   5  17
ATOM     17  N   UNL     1       2.007   6.548  20.646  0.00  0.00    +0.000 N 
ATOM     18  H   UNL     1       1.256   6.565  21.333  0.00  0.00    +0.000 HD
BRANCH  17  19
ATOM     19  C   UNL     1       2.250   5.267  20.182  0.00  0.00    +0.000 A 
ATOM     20  C   UNL     1       3.497   4.768  20.092  0.00  0.00    +0.000 A 
ATOM     21  C   UNL     1       3.725   3.399  19.599  0.00  0.00    +0.000 A 
ATOM     22  O   UNL     1       4.859   2.930  19.517  0.00  0.00    +0.000 OA
ATOM     23  N   UNL     1       2.594   2.708  19.247  0.00  0.00    +0.000 N 
ATOM     24  C   UNL     1       1.306   3.187  19.331  0.00  0.00    +0.000 A 
ATOM     25  O   UNL     1       0.287   2.574  19.013  0.00  0.00    +0.000 OA
ATOM     26  N   UNL     1       1.200   4.468  19.821  0.00  0.00    +0.000 N 
ATOM     27  H   UNL     1       0.256   4.825  19.856  0.00  0.00    +0.000 HD
BRANCH  23  28
ATOM     28  O   UNL     1       2.777   1.391  18.775  0.00  0.00    +0.000 OA
ATOM     29  H   UNL     1       1.853   1.097  18.641  0.00  0.00    +0.000 HD
ENDBRANCH  23  28
ENDBRANCH  17  19
ENDBRANCH   5  17
TORSDOF 6
ENDMDL
MODEL 8
REMARK VINA RESULT:      -7.5      3.041      8.385
REMARK  Name = 
REMARK  8 active torsions:
REMARK  status: ('A' for Active; 'I' for Inactive)
REMARK    1  A    between atoms: C_1  and  O_2
REMARK    2  A    between atoms: O_2  and  C_3
REMARK    3  A    between atoms: C_7  and  O_8
REMARK    4  A    between atoms: O_8  and  C_9
REMARK    5  A    between atoms: C_10  and  C_11
REMARK    6  A    between atoms: C_15  and  N_16
REMARK    7  A    between atoms: N_16  and  C_17
REMARK    8  A    between atoms: N_21  and  O_22
REMARK                            x       y       z     vdW  Elec       q    Type
REMARK                         _______ _______ _______ _____ _____    ______ ____
ROOT
ATOM      1  C   UNL     1       2.554   6.794  18.724  0.00  0.00    +0.000 A 
ATOM      2  C   UNL     1       2.269   6.719  20.100  0.00  0.00    +0.000 A 
ATOM      3  C   UNL     1       1.637   7.767  20.782  0.00  0.00    +0.000 A 
ATOM      4  C   UNL     1       1.228   8.907  20.093  0.00  0.00    +0.000 A 
ATOM      5  C   UNL     1       1.438   9.001  18.717  0.00  0.00    +0.000 A 
ATOM      6  C   UNL     1       2.149   7.975  18.069  0.00  0.00    +0.000 A 
ENDROOT
BRANCH   1  12
ATOM      7  C   UNL     1       2.604   4.432  17.748  0.00  0.00    +0.000 A 
ATOM      8  C   UNL     1       3.242   3.421  17.009  0.00  0.00    +0.000 A 
ATOM      9  C   UNL     1       4.542   3.585  16.558  0.00  0.00    +0.000 A 
ATOM     10  C   UNL     1       5.208   4.777  16.804  0.00  0.00    +0.000 A 
ATOM     11  C   UNL     1       4.571   5.832  17.476  0.00  0.00    +0.000 A 
ATOM     12  C   UNL     1       3.241   5.685  17.978  0.00  0.00    +0.000 A 
BRANCH   7  14
ATOM     13  C   UNL     1       1.149   3.080  19.048  0.00  0.00    +0.000 C 
ATOM     14  O   UNL     1       1.334   4.243  18.245  0.00  0.00    +0.000 OA
ENDBRANCH   7  14
BRANCH  11  15
ATOM     15  O   UNL     1       5.203   7.040  17.686  0.00  0.00    +0.000 OA
ATOM     16  C   UNL     1       6.569   7.150  17.305  0.00  0.00    +0.000 C 
ENDBRANCH  11  15
ENDBRANCH   1  12
BRANCH   5  17
ATOM     17  N   UNL     1       1.038  10.184  18.039  0.00  0.00    +0.000 N 
ATOM     18  H   UNL     1       1.341  10.108  17.071  0.00  0.00    +0.000 HD
BRANCH  17  19
ATOM     19  C   UNL     1      -0.245  10.694  18.137  0.00  0.00    +0.000 A 
ATOM     20  C   UNL     1      -0.554  11.678  19.002  0.00  0.00    +0.000 A 
ATOM     21  C   UNL     1      -1.927  12.206  19.082  0.00  0.00    +0.000 A 
ATOM     22  O   UNL     1      -2.221  13.108  19.864  0.00  0.00    +0.000 OA
ATOM     23  N   UNL     1      -2.828  11.620  18.231  0.00  0.00    +0.000 N 
ATOM     24  C   UNL     1      -2.544  10.615  17.332  0.00  0.00    +0.000 A 
ATOM     25  O   UNL     1      -3.349  10.083  16.569  0.00  0.00    +0.000 OA
ATOM     26  N   UNL     1      -1.230  10.208  17.324  0.00  0.00    +0.000 N 
ATOM     27  H   UNL     1      -1.032   9.454  16.682  0.00  0.00    +0.000 HD
BRANCH  23  28
ATOM     28  O   UNL     1      -4.152  12.105  18.278  0.00  0.00    +0.000 OA
ATOM     29  H   UNL     1      -4.475  11.723  19.120  0.00  0.00    +0.000 HD
ENDBRANCH  23  28
ENDBRANCH  17  19
ENDBRANCH   5  17
TORSDOF 6
ENDMDL
MODEL 9
REMARK VINA RESULT:      -7.5      3.089      8.363
REMARK  Name = 
REMARK  8 active torsions:
REMARK  status: ('A' for Active; 'I' for Inactive)
REMARK    1  A    between atoms: C_1  and  O_2
REMARK    2  A    between atoms: O_2  and  C_3
REMARK    3  A    between atoms: C_7  and  O_8
REMARK    4  A    between atoms: O_8  and  C_9
REMARK    5  A    between atoms: C_10  and  C_11
REMARK    6  A    between atoms: C_15  and  N_16
REMARK    7  A    between atoms: N_16  and  C_17
REMARK    8  A    between atoms: N_21  and  O_22
REMARK                            x       y       z     vdW  Elec       q    Type
REMARK                         _______ _______ _______ _____ _____    ______ ____
ROOT
ATOM      1  C   UNL     1       2.541   6.828  18.670  0.00  0.00    +0.000 A 
ATOM      2  C   UNL     1       2.316   6.786  20.059  0.00  0.00    +0.000 A 
ATOM      3  C   UNL     1       1.678   7.834  20.736  0.00  0.00    +0.000 A 
ATOM      4  C   UNL     1       1.204   8.939  20.032  0.00  0.00    +0.000 A 
ATOM      5  C   UNL     1       1.355   8.997  18.646  0.00  0.00    +0.000 A 
ATOM      6  C   UNL     1       2.071   7.974  17.999  0.00  0.00    +0.000 A 
ENDROOT
BRANCH   1  12
ATOM      7  C   UNL     1       2.633   4.435  17.773  0.00  0.00    +0.000 A 
ATOM      8  C   UNL     1       3.272   3.423  17.038  0.00  0.00    +0.000 A 
ATOM      9  C   UNL     1       4.542   3.618  16.517  0.00  0.00    +0.000 A 
ATOM     10  C   UNL     1       5.173   4.840  16.689  0.00  0.00    +0.000 A 
ATOM     11  C   UNL     1       4.530   5.895  17.356  0.00  0.00    +0.000 A 
ATOM     12  C   UNL     1       3.233   5.718  17.929  0.00  0.00    +0.000 A 
BRANCH   7  14
ATOM     13  C   UNL     1       1.082   2.861  18.639  0.00  0.00    +0.000 C 
ATOM     14  O   UNL     1       1.397   4.219  18.339  0.00  0.00    +0.000 OA
ENDBRANCH   7  14
BRANCH  11  15
ATOM     15  O   UNL     1       5.125   7.132  17.493  0.00  0.00    +0.000 OA
ATOM     16  C   UNL     1       6.536   7.212  17.332  0.00  0.00    +0.000 C 
ENDBRANCH  11  15
ENDBRANCH   1  12
BRANCH   5  17
ATOM     17  N   UNL     1       0.888  10.146  17.951  0.00  0.00    +0.000 N 
ATOM     18  H   UNL     1       1.058  10.001  16.958  0.00  0.00    +0.000 HD
BRANCH  17  19
ATOM     19  C   UNL     1      -0.361  10.694  18.184  0.00  0.00    +0.000 A 
ATOM     20  C   UNL     1      -1.485  10.128  17.708  0.00  0.00    +0.000 A 
ATOM     21  C   UNL     1      -2.803  10.730  17.976  0.00  0.00    +0.000 A 
ATOM     22  O   UNL     1      -3.838  10.220  17.551  0.00  0.00    +0.000 OA
ATOM     23  N   UNL     1      -2.778  11.881  18.721  0.00  0.00    +0.000 N 
ATOM     24  C   UNL     1      -1.647  12.484  19.226  0.00  0.00    +0.000 A 
ATOM     25  O   UNL     1      -1.618  13.518  19.891  0.00  0.00    +0.000 OA
ATOM     26  N   UNL     1      -0.471  11.831  18.935  0.00  0.00    +0.000 N 
ATOM     27  H   UNL     1       0.358  12.290  19.285  0.00  0.00    +0.000 HD
BRANCH  23  28
ATOM     28  O   UNL     1      -4.024  12.482  18.999  0.00  0.00    +0.000 OA
ATOM     29  H   UNL     1      -4.087  13.150  18.286  0.00  0.00    +0.000 HD
ENDBRANCH  23  28
ENDBRANCH  17  19
ENDBRANCH   5  17
TORSDOF 6
ENDMDL
