MODEL 1
REMARK VINA RESULT:      -7.9      0.000      0.000
REMARK  Name = 
REMARK  7 active torsions:
REMARK  status: ('A' for Active; 'I' for Inactive)
REMARK    1  A    between atoms: N_1  and  C_2
REMARK    2  A    between atoms: C_2  and  C_3
REMARK    3  A    between atoms: C_2  and  C_24
REMARK    4  A    between atoms: C_3  and  N_4
REMARK    5  A    between atoms: N_4  and  C_5
REMARK    6  A    between atoms: C_7  and  C_8
REMARK    7  A    between atoms: C_24  and  C_25
REMARK                            x       y       z     vdW  Elec       q    Type
REMARK                         _______ _______ _______ _____ _____    ______ ____
ROOT
ATOM      1  C   UNL     1       2.924   6.188  19.882  0.00  0.00    +0.000 A 
ATOM      2  N   UNL     1       3.846   5.683  19.033  0.00  0.00    +0.000 NA
ATOM      3  C   UNL     1       4.192   6.353  17.921  0.00  0.00    +0.000 A 
ATOM      4  N   UNL     1       3.658   7.507  17.512  0.00  0.00    +0.000 NA
ATOM      5  C   UNL     1       2.731   7.986  18.354  0.00  0.00    +0.000 A 
ATOM      6  S   UNL     1       1.911   9.432  17.982  0.00  0.00    +0.000 S 
ATOM      7  C   UNL     1       1.011   9.361  19.418  0.00  0.00    +0.000 A 
ATOM      8  C   UNL     1       1.330   8.261  20.196  0.00  0.00    +0.000 A 
ATOM      9  C   UNL     1       2.323   7.422  19.557  0.00  0.00    +0.000 A 
ATOM     10  C   UNL     1       0.691   8.049  21.539  0.00  0.00    +0.000 C 
ATOM     11  C   UNL     1      -0.593   8.877  21.707  0.00  0.00    +0.000 C 
ATOM     12  C   UNL     1      -0.406  10.323  21.230  0.00  0.00    +0.000 C 
ATOM     13  C   UNL     1      -0.034  10.384  19.743  0.00  0.00    +0.000 C 
ENDROOT
BRANCH   3  14
ATOM     14  C   UNL     1       5.272   5.765  17.103  0.00  0.00    +0.000 A 
ATOM     15  C   UNL     1       5.264   5.858  15.703  0.00  0.00    +0.000 A 
ATOM     16  C   UNL     1       6.291   5.281  14.972  0.00  0.00    +0.000 A 
ATOM     17  N   UNL     1       7.324   4.618  15.529  0.00  0.00    +0.000 NA
ATOM     18  C   UNL     1       7.326   4.528  16.874  0.00  0.00    +0.000 A 
ATOM     19  C   UNL     1       6.343   5.072  17.688  0.00  0.00    +0.000 A 
ENDBRANCH   3  14
BRANCH   1  20
ATOM     20  N   UNL     1       2.585   5.462  21.034  0.00  0.00    +0.000 N 
ATOM     21  H   UNL     1       3.386   4.907  21.325  0.00  0.00    +0.000 HD
BRANCH  20  22
ATOM     22  C   UNL     1       1.383   4.627  20.886  0.00  0.00    +0.000 C 
BRANCH  22  23
ATOM     23  C   UNL     1       1.703   3.136  21.154  0.00  0.00    +0.000 C 
BRANCH  23  24
ATOM     24  N   UNL     1       1.048   2.684  22.407  0.00  0.00    +0.000 NA
ATOM     25  H   UNL     1       1.706   2.089  22.913  0.00  0.00    +0.000 HD
ATOM     26  H   UNL     1       0.262   2.083  22.172  0.00  0.00    +0.000 HD
ENDBRANCH  23  24
BRANCH  23  27
ATOM     27  C   UNL     1       1.296   2.223  19.978  0.00  0.00    +0.000 C 
BRANCH  27  28
ATOM     28  C   UNL     1       2.158   2.405  18.756  0.00  0.00    +0.000 A 
ATOM     29  C   UNL     1       3.414   1.809  18.677  0.00  0.00    +0.000 A 
ATOM     30  C   UNL     1       4.190   2.026  17.542  0.00  0.00    +0.000 A 
ATOM     31  C   UNL     1       3.695   2.823  16.519  0.00  0.00    +0.000 A 
ATOM     32  C   UNL     1       2.433   3.371  16.673  0.00  0.00    +0.000 A 
ATOM     33  N   UNL     1       1.657   3.184  17.764  0.00  0.00    +0.000 NA
ENDBRANCH  27  28
ENDBRANCH  23  27
ENDBRANCH  22  23
ENDBRANCH  20  22
ENDBRANCH   1  20
TORSDOF 7
ENDMDL
MODEL 2
REMARK VINA RESULT:      -7.8      0.528      1.228
REMARK  Name = 
REMARK  7 active torsions:
REMARK  status: ('A' for Active; 'I' for Inactive)
REMARK    1  A    between atoms: N_1  and  C_2
REMARK    2  A    between atoms: C_2  and  C_3
REMARK    3  A    between atoms: C_2  and  C_24
REMARK    4  A    between atoms: C_3  and  N_4
REMARK    5  A    between atoms: N_4  and  C_5
REMARK    6  A    between atoms: C_7  and  C_8
REMARK    7  A    between atoms: C_24  and  C_25
REMARK                            x       y       z     vdW  Elec       q    Type
REMARK                         _______ _______ _______ _____ _____    ______ ____
ROOT
ATOM      1  C   UNL     1       2.933   6.150  19.926  0.00  0.00    +0.000 A 
ATOM      2  N   UNL     1       3.865   5.645  19.088  0.00  0.00    +0.000 NA
ATOM      3  C   UNL     1       4.217   6.310  17.975  0.00  0.00    +0.000 A 
ATOM      4  N   UNL     1       3.682   7.460  17.555  0.00  0.00    +0.000 NA
ATOM      5  C   UNL     1       2.745   7.938  18.386  0.00  0.00    +0.000 A 
ATOM      6  S   UNL     1       1.923   9.379  18.000  0.00  0.00    +0.000 S 
ATOM      7  C   UNL     1       1.009   9.312  19.428  0.00  0.00    +0.000 A 
ATOM      8  C   UNL     1       1.327   8.217  20.215  0.00  0.00    +0.000 A 
ATOM      9  C   UNL     1       2.329   7.380  19.589  0.00  0.00    +0.000 A 
ATOM     10  C   UNL     1       0.677   8.010  21.554  0.00  0.00    +0.000 C 
ATOM     11  C   UNL     1      -0.612   8.833  21.705  0.00  0.00    +0.000 C 
ATOM     12  C   UNL     1      -0.428  10.277  21.222  0.00  0.00    +0.000 C 
ATOM     13  C   UNL     1      -0.042  10.332  19.738  0.00  0.00    +0.000 C 
ENDROOT
BRANCH   3  14
ATOM     14  C   UNL     1       5.307   5.723  17.171  0.00  0.00    +0.000 A 
ATOM     15  C   UNL     1       6.377   5.042  17.772  0.00  0.00    +0.000 A 
ATOM     16  C   UNL     1       7.387   4.517  16.981  0.00  0.00    +0.000 A 
ATOM     17  N   UNL     1       7.413   4.619  15.637  0.00  0.00    +0.000 NA
ATOM     18  C   UNL     1       6.385   5.276  15.064  0.00  0.00    +0.000 A 
ATOM     19  C   UNL     1       5.332   5.835  15.772  0.00  0.00    +0.000 A 
ENDBRANCH   3  14
BRANCH   1  20
ATOM     20  N   UNL     1       2.587   5.428  21.079  0.00  0.00    +0.000 N 
ATOM     21  H   UNL     1       3.396   4.900  21.396  0.00  0.00    +0.000 HD
BRANCH  20  22
ATOM     22  C   UNL     1       1.413   4.558  20.913  0.00  0.00    +0.000 C 
BRANCH  22  23
ATOM     23  C   UNL     1       1.749   3.092  21.279  0.00  0.00    +0.000 C 
BRANCH  23  24
ATOM     24  N   UNL     1       1.037   2.692  22.519  0.00  0.00    +0.000 NA
ATOM     25  H   UNL     1       1.735   2.408  23.209  0.00  0.00    +0.000 HD
ATOM     26  H   UNL     1       0.485   1.859  22.331  0.00  0.00    +0.000 HD
ENDBRANCH  23  24
BRANCH  23  27
ATOM     27  C   UNL     1       1.423   2.108  20.135  0.00  0.00    +0.000 C 
BRANCH  27  28
ATOM     28  C   UNL     1       2.245   2.343  18.895  0.00  0.00    +0.000 A 
ATOM     29  C   UNL     1       1.768   3.158  17.871  0.00  0.00    +0.000 A 
ATOM     30  C   UNL     1       2.545   3.326  16.729  0.00  0.00    +0.000 A 
ATOM     31  C   UNL     1       3.773   2.684  16.639  0.00  0.00    +0.000 A 
ATOM     32  C   UNL     1       4.177   1.898  17.705  0.00  0.00    +0.000 A 
ATOM     33  N   UNL     1       3.444   1.711  18.825  0.00  0.00    +0.000 NA
ENDBRANCH  27  28
ENDBRANCH  23  27
ENDBRANCH  22  23
ENDBRANCH  20  22
ENDBRANCH   1  20
TORSDOF 7
ENDMDL
MODEL 3
REMARK VINA RESULT:      -7.8      2.239      7.032
REMARK  Name = 
REMARK  7 active torsions:
REMARK  status: ('A' for Active; 'I' for Inactive)
REMARK    1  A    between atoms: N_1  and  C_2
REMARK    2  A    between atoms: C_2  and  C_3
REMARK    3  A    between atoms: C_2  and  C_24
REMARK    4  A    between atoms: C_3  and  N_4
REMARK    5  A    between atoms: N_4  and  C_5
REMARK    6  A    between atoms: C_7  and  C_8
REMARK    7  A    between atoms: C_24  and  C_25
REMARK                            x       y       z     vdW  Elec       q    Type
REMARK                         _______ _______ _______ _____ _____    ______ ____
ROOT
ATOM      1  C   UNL     1       3.009   6.682  18.660  0.00  0.00    +0.000 A 
ATOM      2  N   UNL     1       2.455   7.773  19.234  0.00  0.00    +0.000 NA
ATOM      3  C   UNL     1       1.570   7.643  20.238  0.00  0.00    +0.000 A 
ATOM      4  N   UNL     1       1.115   6.487  20.727  0.00  0.00    +0.000 NA
ATOM      5  C   UNL     1       1.659   5.414  20.134  0.00  0.00    +0.000 A 
ATOM      6  S   UNL     1       1.173   3.849  20.600  0.00  0.00    +0.000 S 
ATOM      7  C   UNL     1       2.240   3.125  19.496  0.00  0.00    +0.000 A 
ATOM      8  C   UNL     1       2.980   4.052  18.782  0.00  0.00    +0.000 A 
ATOM      9  C   UNL     1       2.618   5.410  19.129  0.00  0.00    +0.000 A 
ATOM     10  C   UNL     1       4.030   3.614  17.800  0.00  0.00    +0.000 C 
ATOM     11  C   UNL     1       3.854   2.146  17.380  0.00  0.00    +0.000 C 
ATOM     12  C   UNL     1       3.587   1.236  18.585  0.00  0.00    +0.000 C 
ATOM     13  C   UNL     1       2.304   1.638  19.325  0.00  0.00    +0.000 C 
ENDROOT
BRANCH   3  14
ATOM     14  C   UNL     1       1.089   8.892  20.860  0.00  0.00    +0.000 A 
ATOM     15  C   UNL     1       0.597   8.914  22.175  0.00  0.00    +0.000 A 
ATOM     16  C   UNL     1       0.142  10.106  22.717  0.00  0.00    +0.000 A 
ATOM     17  N   UNL     1       0.139  11.277  22.051  0.00  0.00    +0.000 NA
ATOM     18  C   UNL     1       0.609  11.252  20.788  0.00  0.00    +0.000 A 
ATOM     19  C   UNL     1       1.084  10.109  20.161  0.00  0.00    +0.000 A 
ENDBRANCH   3  14
BRANCH   1  20
ATOM     20  N   UNL     1       3.927   6.853  17.613  0.00  0.00    +0.000 N 
ATOM     21  H   UNL     1       3.642   6.280  16.823  0.00  0.00    +0.000 HD
BRANCH  20  22
ATOM     22  C   UNL     1       5.324   6.587  17.990  0.00  0.00    +0.000 C 
BRANCH  22  23
ATOM     23  C   UNL     1       6.257   6.661  16.757  0.00  0.00    +0.000 C 
BRANCH  23  24
ATOM     24  N   UNL     1       7.266   7.737  16.935  0.00  0.00    +0.000 NA
ATOM     25  H   UNL     1       7.630   7.987  16.014  0.00  0.00    +0.000 HD
ATOM     26  H   UNL     1       8.059   7.365  17.451  0.00  0.00    +0.000 HD
ENDBRANCH  23  24
BRANCH  23  27
ATOM     27  C   UNL     1       6.957   5.317  16.463  0.00  0.00    +0.000 C 
BRANCH  27  28
ATOM     28  C   UNL     1       6.906   4.923  15.010  0.00  0.00    +0.000 A 
ATOM     29  C   UNL     1       5.939   4.033  14.549  0.00  0.00    +0.000 A 
ATOM     30  C   UNL     1       5.944   3.673  13.205  0.00  0.00    +0.000 A 
ATOM     31  C   UNL     1       6.904   4.211  12.358  0.00  0.00    +0.000 A 
ATOM     32  C   UNL     1       7.824   5.095  12.895  0.00  0.00    +0.000 A 
ATOM     33  N   UNL     1       7.850   5.461  14.196  0.00  0.00    +0.000 NA
ENDBRANCH  27  28
ENDBRANCH  23  27
ENDBRANCH  22  23
ENDBRANCH  20  22
ENDBRANCH   1  20
TORSDOF 7
ENDMDL
MODEL 4
REMARK VINA RESULT:      -7.6      2.362      6.609
REMARK  Name = 
REMARK  7 active torsions:
REMARK  status: ('A' for Active; 'I' for Inactive)
REMARK    1  A    between atoms: N_1  and  C_2
REMARK    2  A    between atoms: C_2  and  C_3
REMARK    3  A    between atoms: C_2  and  C_24
REMARK    4  A    between atoms: C_3  and  N_4
REMARK    5  A    between atoms: N_4  and  C_5
REMARK    6  A    between atoms: C_7  and  C_8
REMARK    7  A    between atoms: C_24  and  C_25
REMARK                            x       y       z     vdW  Elec       q    Type
REMARK                         _______ _______ _______ _____ _____    ______ ____
ROOT
ATOM      1  C   UNL     1       3.526   6.947  17.853  0.00  0.00    +0.000 A 
ATOM      2  N   UNL     1       2.976   8.179  17.790  0.00  0.00    +0.000 NA
ATOM      3  C   UNL     1       2.073   8.573  18.703  0.00  0.00    +0.000 A 
ATOM      4  N   UNL     1       1.594   7.820  19.697  0.00  0.00    +0.000 NA
ATOM      5  C   UNL     1       2.133   6.593  19.734  0.00  0.00    +0.000 A 
ATOM      6  S   UNL     1       1.619   5.474  20.912  0.00  0.00    +0.000 S 
ATOM      7  C   UNL     1       2.695   4.291  20.343  0.00  0.00    +0.000 A 
ATOM      8  C   UNL     1       3.460   4.733  19.277  0.00  0.00    +0.000 A 
ATOM      9  C   UNL     1       3.110   6.082  18.887  0.00  0.00    +0.000 A 
ATOM     10  C   UNL     1       4.520   3.858  18.670  0.00  0.00    +0.000 C 
ATOM     11  C   UNL     1       4.332   2.378  19.039  0.00  0.00    +0.000 C 
ATOM     12  C   UNL     1       4.032   2.196  20.532  0.00  0.00    +0.000 C 
ATOM     13  C   UNL     1       2.742   2.919  20.942  0.00  0.00    +0.000 C 
ENDROOT
BRANCH   3  14
ATOM     14  C   UNL     1       1.597   9.968  18.605  0.00  0.00    +0.000 A 
ATOM     15  C   UNL     1       2.442  11.001  18.170  0.00  0.00    +0.000 A 
ATOM     16  C   UNL     1       1.960  12.299  18.104  0.00  0.00    +0.000 A 
ATOM     17  N   UNL     1       0.701  12.646  18.439  0.00  0.00    +0.000 NA
ATOM     18  C   UNL     1      -0.106  11.651  18.859  0.00  0.00    +0.000 A 
ATOM     19  C   UNL     1       0.287  10.325  18.958  0.00  0.00    +0.000 A 
ENDBRANCH   3  14
BRANCH   1  20
ATOM     20  N   UNL     1       4.464   6.567  16.881  0.00  0.00    +0.000 N 
ATOM     21  H   UNL     1       4.397   5.564  16.728  0.00  0.00    +0.000 HD
BRANCH  20  22
ATOM     22  C   UNL     1       5.845   6.968  17.191  0.00  0.00    +0.000 C 
BRANCH  22  23
ATOM     23  C   UNL     1       6.861   5.931  16.654  0.00  0.00    +0.000 C 
BRANCH  23  24
ATOM     24  N   UNL     1       7.721   5.430  17.756  0.00  0.00    +0.000 NA
ATOM     25  H   UNL     1       8.694   5.627  17.513  0.00  0.00    +0.000 HD
ATOM     26  H   UNL     1       7.650   4.417  17.798  0.00  0.00    +0.000 HD
ENDBRANCH  23  24
BRANCH  23  27
ATOM     27  C   UNL     1       6.176   4.750  15.933  0.00  0.00    +0.000 C 
BRANCH  27  28
ATOM     28  C   UNL     1       6.568   4.627  14.484  0.00  0.00    +0.000 A 
ATOM     29  C   UNL     1       5.916   3.727  13.645  0.00  0.00    +0.000 A 
ATOM     30  C   UNL     1       6.328   3.623  12.320  0.00  0.00    +0.000 A 
ATOM     31  C   UNL     1       7.372   4.419  11.866  0.00  0.00    +0.000 A 
ATOM     32  C   UNL     1       7.961   5.294  12.763  0.00  0.00    +0.000 A 
ATOM     33  N   UNL     1       7.587   5.415  14.056  0.00  0.00    +0.000 NA
ENDBRANCH  27  28
ENDBRANCH  23  27
ENDBRANCH  22  23
ENDBRANCH  20  22
ENDBRANCH   1  20
TORSDOF 7
ENDMDL
MODEL 5
REMARK VINA RESULT:      -7.6      2.472      6.014
REMARK  Name = 
REMARK  7 active torsions:
REMARK  status: ('A' for Active; 'I' for Inactive)
REMARK    1  A    between atoms: N_1  and  C_2
REMARK    2  A    between atoms: C_2  and  C_3
REMARK    3  A    between atoms: C_2  and  C_24
REMARK    4  A    between atoms: C_3  and  N_4
REMARK    5  A    between atoms: N_4  and  C_5
REMARK    6  A    between atoms: C_7  and  C_8
REMARK    7  A    between atoms: C_24  and  C_25
REMARK                            x       y       z     vdW  Elec       q    Type
REMARK                         _______ _______ _______ _____ _____    ______ ____
ROOT
ATOM      1  C   UNL     1       4.364   5.789  17.312  0.00  0.00    +0.000 A 
ATOM      2  N   UNL     1       5.104   5.669  16.189  0.00  0.00    +0.000 NA
ATOM      3  C   UNL     1       5.324   4.463  15.639  0.00  0.00    +0.000 A 
ATOM      4  N   UNL     1       4.908   3.295  16.137  0.00  0.00    +0.000 NA
ATOM      5  C   UNL     1       4.192   3.428  17.263  0.00  0.00    +0.000 A 
ATOM      6  S   UNL     1       3.606   2.045  18.066  0.00  0.00    +0.000 S 
ATOM      7  C   UNL     1       2.862   2.984  19.268  0.00  0.00    +0.000 A 
ATOM      8  C   UNL     1       3.033   4.343  19.066  0.00  0.00    +0.000 A 
ATOM      9  C   UNL     1       3.849   4.614  17.901  0.00  0.00    +0.000 A 
ATOM     10  C   UNL     1       2.396   5.349  19.983  0.00  0.00    +0.000 C 
ATOM     11  C   UNL     1       1.971   4.725  21.322  0.00  0.00    +0.000 C 
ATOM     12  C   UNL     1       1.247   3.387  21.124  0.00  0.00    +0.000 C 
ATOM     13  C   UNL     1       2.143   2.357  20.423  0.00  0.00    +0.000 C 
ENDROOT
BRANCH   3  14
ATOM     14  C   UNL     1       6.068   4.442  14.364  0.00  0.00    +0.000 A 
ATOM     15  C   UNL     1       5.673   3.617  13.299  0.00  0.00    +0.000 A 
ATOM     16  C   UNL     1       6.407   3.618  12.123  0.00  0.00    +0.000 A 
ATOM     17  N   UNL     1       7.504   4.377  11.927  0.00  0.00    +0.000 NA
ATOM     18  C   UNL     1       7.881   5.165  12.954  0.00  0.00    +0.000 A 
ATOM     19  C   UNL     1       7.211   5.231  14.166  0.00  0.00    +0.000 A 
ENDBRANCH   3  14
BRANCH   1  20
ATOM     20  N   UNL     1       4.155   7.064  17.861  0.00  0.00    +0.000 N 
ATOM     21  H   UNL     1       3.983   6.973  18.859  0.00  0.00    +0.000 HD
BRANCH  20  22
ATOM     22  C   UNL     1       3.088   7.833  17.203  0.00  0.00    +0.000 C 
BRANCH  22  23
ATOM     23  C   UNL     1       2.461   8.861  18.176  0.00  0.00    +0.000 C 
BRANCH  23  24
ATOM     24  N   UNL     1       2.163  10.131  17.467  0.00  0.00    +0.000 NA
ATOM     25  H   UNL     1       2.152   9.939  16.464  0.00  0.00    +0.000 HD
ATOM     26  H   UNL     1       2.933  10.780  17.612  0.00  0.00    +0.000 HD
ENDBRANCH  23  24
BRANCH  23  27
ATOM     27  C   UNL     1       1.188   8.323  18.864  0.00  0.00    +0.000 C 
BRANCH  27  28
ATOM     28  C   UNL     1       0.819   9.082  20.113  0.00  0.00    +0.000 A 
ATOM     29  C   UNL     1       1.046   8.530  21.372  0.00  0.00    +0.000 A 
ATOM     30  C   UNL     1       0.664   9.251  22.499  0.00  0.00    +0.000 A 
ATOM     31  C   UNL     1       0.075  10.499  22.344  0.00  0.00    +0.000 A 
ATOM     32  C   UNL     1      -0.107  10.978  21.058  0.00  0.00    +0.000 A 
ATOM     33  N   UNL     1       0.247  10.300  19.943  0.00  0.00    +0.000 NA
ENDBRANCH  27  28
ENDBRANCH  23  27
ENDBRANCH  22  23
ENDBRANCH  20  22
ENDBRANCH   1  20
TORSDOF 7
ENDMDL
MODEL 6
REMARK VINA RESULT:      -7.5      4.488      7.959
REMARK  Name = 
REMARK  7 active torsions:
REMARK  status: ('A' for Active; 'I' for Inactive)
REMARK    1  A    between atoms: N_1  and  C_2
REMARK    2  A    between atoms: C_2  and  C_3
REMARK    3  A    between atoms: C_2  and  C_24
REMARK    4  A    between atoms: C_3  and  N_4
REMARK    5  A    between atoms: N_4  and  C_5
REMARK    6  A    between atoms: C_7  and  C_8
REMARK    7  A    between atoms: C_24  and  C_25
REMARK                            x       y       z     vdW  Elec       q    Type
REMARK                         _______ _______ _______ _____ _____    ______ ____
ROOT
ATOM      1  C   UNL     1      -0.026  10.234  18.810  0.00  0.00    +0.000 A 
ATOM      2  N   UNL     1       0.910   9.317  18.480  0.00  0.00    +0.000 NA
ATOM      3  C   UNL     1       1.505   8.575  19.429  0.00  0.00    +0.000 A 
ATOM      4  N   UNL     1       1.296   8.682  20.744  0.00  0.00    +0.000 NA
ATOM      5  C   UNL     1       0.379   9.610  21.057  0.00  0.00    +0.000 A 
ATOM      6  S   UNL     1       0.005   9.917  22.690  0.00  0.00    +0.000 S 
ATOM      7  C   UNL     1      -1.143  11.093  22.268  0.00  0.00    +0.000 A 
ATOM      8  C   UNL     1      -1.266  11.252  20.898  0.00  0.00    +0.000 A 
ATOM      9  C   UNL     1      -0.344  10.403  20.174  0.00  0.00    +0.000 A 
ATOM     10  C   UNL     1      -2.277  12.199  20.316  0.00  0.00    +0.000 C 
ATOM     11  C   UNL     1      -2.773  13.224  21.348  0.00  0.00    +0.000 C 
ATOM     12  C   UNL     1      -3.112  12.563  22.691  0.00  0.00    +0.000 C 
ATOM     13  C   UNL     1      -1.886  11.875  23.307  0.00  0.00    +0.000 C 
ENDROOT
BRANCH   3  14
ATOM     14  C   UNL     1       2.447   7.538  18.964  0.00  0.00    +0.000 A 
ATOM     15  C   UNL     1       2.657   6.357  19.693  0.00  0.00    +0.000 A 
ATOM     16  C   UNL     1       3.561   5.415  19.228  0.00  0.00    +0.000 A 
ATOM     17  N   UNL     1       4.273   5.559  18.092  0.00  0.00    +0.000 NA
ATOM     18  C   UNL     1       4.071   6.696  17.397  0.00  0.00    +0.000 A 
ATOM     19  C   UNL     1       3.189   7.695  17.783  0.00  0.00    +0.000 A 
ENDBRANCH   3  14
BRANCH   1  20
ATOM     20  N   UNL     1      -0.626  10.994  17.794  0.00  0.00    +0.000 N 
ATOM     21  H   UNL     1      -1.021  11.839  18.199  0.00  0.00    +0.000 HD
BRANCH  20  22
ATOM     22  C   UNL     1      -1.629  10.260  17.007  0.00  0.00    +0.000 C 
BRANCH  22  23
ATOM     23  C   UNL     1      -2.938  11.075  16.874  0.00  0.00    +0.000 C 
BRANCH  23  24
ATOM     24  N   UNL     1      -3.184  11.432  15.454  0.00  0.00    +0.000 NA
ATOM     25  H   UNL     1      -4.030  10.950  15.147  0.00  0.00    +0.000 HD
ATOM     26  H   UNL     1      -2.432  11.056  14.882  0.00  0.00    +0.000 HD
ENDBRANCH  23  24
BRANCH  23  27
ATOM     27  C   UNL     1      -4.159  10.331  17.456  0.00  0.00    +0.000 C 
BRANCH  27  28
ATOM     28  C   UNL     1      -5.317  11.242  17.774  0.00  0.00    +0.000 A 
ATOM     29  C   UNL     1      -6.152  10.978  18.857  0.00  0.00    +0.000 A 
ATOM     30  C   UNL     1      -7.227  11.828  19.099  0.00  0.00    +0.000 A 
ATOM     31  C   UNL     1      -7.438  12.916  18.263  0.00  0.00    +0.000 A 
ATOM     32  C   UNL     1      -6.556  13.112  17.214  0.00  0.00    +0.000 A 
ATOM     33  N   UNL     1      -5.506  12.302  16.949  0.00  0.00    +0.000 NA
ENDBRANCH  27  28
ENDBRANCH  23  27
ENDBRANCH  22  23
ENDBRANCH  20  22
ENDBRANCH   1  20
TORSDOF 7
ENDMDL
MODEL 7
REMARK VINA RESULT:      -7.4      2.558      6.324
REMARK  Name = 
REMARK  7 active torsions:
REMARK  status: ('A' for Active; 'I' for Inactive)
REMARK    1  A    between atoms: N_1  and  C_2
REMARK    2  A    between atoms: C_2  and  C_3
REMARK    3  A    between atoms: C_2  and  C_24
REMARK    4  A    between atoms: C_3  and  N_4
REMARK    5  A    between atoms: N_4  and  C_5
REMARK    6  A    between atoms: C_7  and  C_8
REMARK    7  A    between atoms: C_24  and  C_25
REMARK                            x       y       z     vdW  Elec       q    Type
REMARK                         _______ _______ _______ _____ _____    ______ ____
ROOT
ATOM      1  C   UNL     1       4.297   5.820  17.299  0.00  0.00    +0.000 A 
ATOM      2  N   UNL     1       5.058   5.702  16.189  0.00  0.00    +0.000 NA
ATOM      3  C   UNL     1       5.301   4.496  15.650  0.00  0.00    +0.000 A 
ATOM      4  N   UNL     1       4.889   3.326  16.147  0.00  0.00    +0.000 NA
ATOM      5  C   UNL     1       4.152   3.457  17.260  0.00  0.00    +0.000 A 
ATOM      6  S   UNL     1       3.568   2.071  18.060  0.00  0.00    +0.000 S 
ATOM      7  C   UNL     1       2.793   3.009  19.244  0.00  0.00    +0.000 A 
ATOM      8  C   UNL     1       2.953   4.369  19.038  0.00  0.00    +0.000 A 
ATOM      9  C   UNL     1       3.785   4.643  17.885  0.00  0.00    +0.000 A 
ATOM     10  C   UNL     1       2.289   5.371  19.938  0.00  0.00    +0.000 C 
ATOM     11  C   UNL     1       1.848   4.750  21.273  0.00  0.00    +0.000 C 
ATOM     12  C   UNL     1       1.143   3.403  21.070  0.00  0.00    +0.000 C 
ATOM     13  C   UNL     1       2.062   2.380  20.390  0.00  0.00    +0.000 C 
ENDROOT
BRANCH   3  14
ATOM     14  C   UNL     1       6.066   4.477  14.388  0.00  0.00    +0.000 A 
ATOM     15  C   UNL     1       7.203   5.282  14.208  0.00  0.00    +0.000 A 
ATOM     16  C   UNL     1       7.885   5.244  13.002  0.00  0.00    +0.000 A 
ATOM     17  N   UNL     1       7.523   4.467  11.962  0.00  0.00    +0.000 NA
ATOM     18  C   UNL     1       6.430   3.698  12.138  0.00  0.00    +0.000 A 
ATOM     19  C   UNL     1       5.683   3.669  13.307  0.00  0.00    +0.000 A 
ENDBRANCH   3  14
BRANCH   1  20
ATOM     20  N   UNL     1       4.065   7.095  17.837  0.00  0.00    +0.000 N 
ATOM     21  H   UNL     1       4.124   7.045  18.851  0.00  0.00    +0.000 HD
BRANCH  20  22
ATOM     22  C   UNL     1       2.798   7.707  17.407  0.00  0.00    +0.000 C 
BRANCH  22  23
ATOM     23  C   UNL     1       2.496   8.991  18.216  0.00  0.00    +0.000 C 
BRANCH  23  24
ATOM     24  N   UNL     1       2.139  10.107  17.304  0.00  0.00    +0.000 NA
ATOM     25  H   UNL     1       1.388   9.786  16.690  0.00  0.00    +0.000 HD
ATOM     26  H   UNL     1       2.927  10.301  16.692  0.00  0.00    +0.000 HD
ENDBRANCH  23  24
BRANCH  23  27
ATOM     27  C   UNL     1       1.383   8.781  19.265  0.00  0.00    +0.000 C 
BRANCH  27  28
ATOM     28  C   UNL     1       0.533  10.006  19.486  0.00  0.00    +0.000 A 
ATOM     29  C   UNL     1      -0.772  10.062  19.002  0.00  0.00    +0.000 A 
ATOM     30  C   UNL     1      -1.513  11.222  19.202  0.00  0.00    +0.000 A 
ATOM     31  C   UNL     1      -0.939  12.290  19.880  0.00  0.00    +0.000 A 
ATOM     32  C   UNL     1       0.360  12.149  20.335  0.00  0.00    +0.000 A 
ATOM     33  N   UNL     1       1.109  11.038  20.153  0.00  0.00    +0.000 NA
ENDBRANCH  27  28
ENDBRANCH  23  27
ENDBRANCH  22  23
ENDBRANCH  20  22
ENDBRANCH   1  20
TORSDOF 7
ENDMDL
MODEL 8
REMARK VINA RESULT:      -7.2      4.189      7.579
REMARK  Name = 
REMARK  7 active torsions:
REMARK  status: ('A' for Active; 'I' for Inactive)
REMARK    1  A    between atoms: N_1  and  C_2
REMARK    2  A    between atoms: C_2  and  C_3
REMARK    3  A    between atoms: C_2  and  C_24
REMARK    4  A    between atoms: C_3  and  N_4
REMARK    5  A    between atoms: N_4  and  C_5
REMARK    6  A    between atoms: C_7  and  C_8
REMARK    7  A    between atoms: C_24  and  C_25
REMARK                            x       y       z     vdW  Elec       q    Type
REMARK                         _______ _______ _______ _____ _____    ______ ____
ROOT
ATOM      1  C   UNL     1       0.297   9.782  18.514  0.00  0.00    +0.000 A 
ATOM      2  N   UNL     1       1.165   8.878  18.011  0.00  0.00    +0.000 NA
ATOM      3  C   UNL     1       1.869   8.076  18.828  0.00  0.00    +0.000 A 
ATOM      4  N   UNL     1       1.839   8.109  20.163  0.00  0.00    +0.000 NA
ATOM      5  C   UNL     1       0.987   9.025  20.648  0.00  0.00    +0.000 A 
ATOM      6  S   UNL     1       0.839   9.240  22.331  0.00  0.00    +0.000 S 
ATOM      7  C   UNL     1      -0.336  10.449  22.133  0.00  0.00    +0.000 A 
ATOM      8  C   UNL     1      -0.638  10.688  20.803  0.00  0.00    +0.000 A 
ATOM      9  C   UNL     1       0.166   9.874  19.916  0.00  0.00    +0.000 A 
ATOM     10  C   UNL     1      -1.702  11.676  20.416  0.00  0.00    +0.000 C 
ATOM     11  C   UNL     1      -2.040  12.643  21.561  0.00  0.00    +0.000 C 
ATOM     12  C   UNL     1      -2.207  11.908  22.898  0.00  0.00    +0.000 C 
ATOM     13  C   UNL     1      -0.922  11.175  23.305  0.00  0.00    +0.000 C 
ENDROOT
BRANCH   3  14
ATOM     14  C   UNL     1       2.725   7.060  18.183  0.00  0.00    +0.000 A 
ATOM     15  C   UNL     1       2.423   5.692  18.262  0.00  0.00    +0.000 A 
ATOM     16  C   UNL     1       3.260   4.769  17.653  0.00  0.00    +0.000 A 
ATOM     17  N   UNL     1       4.374   5.106  16.973  0.00  0.00    +0.000 NA
ATOM     18  C   UNL     1       4.662   6.421  16.903  0.00  0.00    +0.000 A 
ATOM     19  C   UNL     1       3.885   7.415  17.480  0.00  0.00    +0.000 A 
ENDBRANCH   3  14
BRANCH   1  20
ATOM     20  N   UNL     1      -0.421  10.604  17.632  0.00  0.00    +0.000 N 
ATOM     21  H   UNL     1      -0.654  11.474  18.103  0.00  0.00    +0.000 HD
BRANCH  20  22
ATOM     22  C   UNL     1      -1.617   9.970  17.057  0.00  0.00    +0.000 C 
BRANCH  22  23
ATOM     23  C   UNL     1      -2.833  10.927  17.107  0.00  0.00    +0.000 C 
BRANCH  23  24
ATOM     24  N   UNL     1      -3.049  11.558  15.780  0.00  0.00    +0.000 NA
ATOM     25  H   UNL     1      -2.225  11.377  15.204  0.00  0.00    +0.000 HD
ATOM     26  H   UNL     1      -3.085  12.568  15.896  0.00  0.00    +0.000 HD
ENDBRANCH  23  24
BRANCH  23  27
ATOM     27  C   UNL     1      -4.122  10.220  17.578  0.00  0.00    +0.000 C 
BRANCH  27  28
ATOM     28  C   UNL     1      -5.082  11.141  18.285  0.00  0.00    +0.000 A 
ATOM     29  C   UNL     1      -4.619  12.272  18.954  0.00  0.00    +0.000 A 
ATOM     30  C   UNL     1      -5.534  13.081  19.619  0.00  0.00    +0.000 A 
ATOM     31  C   UNL     1      -6.882  12.747  19.598  0.00  0.00    +0.000 A 
ATOM     32  C   UNL     1      -7.260  11.611  18.903  0.00  0.00    +0.000 A 
ATOM     33  N   UNL     1      -6.395  10.802  18.251  0.00  0.00    +0.000 NA
ENDBRANCH  27  28
ENDBRANCH  23  27
ENDBRANCH  22  23
ENDBRANCH  20  22
ENDBRANCH   1  20
TORSDOF 7
ENDMDL
MODEL 9
REMARK VINA RESULT:      -7.2      2.345      6.063
REMARK  Name = 
REMARK  7 active torsions:
REMARK  status: ('A' for Active; 'I' for Inactive)
REMARK    1  A    between atoms: N_1  and  C_2
REMARK    2  A    between atoms: C_2  and  C_3
REMARK    3  A    between atoms: C_2  and  C_24
REMARK    4  A    between atoms: C_3  and  N_4
REMARK    5  A    between atoms: N_4  and  C_5
REMARK    6  A    between atoms: C_7  and  C_8
REMARK    7  A    between atoms: C_24  and  C_25
REMARK                            x       y       z     vdW  Elec       q    Type
REMARK                         _______ _______ _______ _____ _____    ______ ____
ROOT
ATOM      1  C   UNL     1       4.347   5.715  17.368  0.00  0.00    +0.000 A 
ATOM      2  N   UNL     1       5.091   5.610  16.245  0.00  0.00    +0.000 NA
ATOM      3  C   UNL     1       5.306   4.412  15.676  0.00  0.00    +0.000 A 
ATOM      4  N   UNL     1       4.882   3.238  16.154  0.00  0.00    +0.000 NA
ATOM      5  C   UNL     1       4.163   3.357  17.279  0.00  0.00    +0.000 A 
ATOM      6  S   UNL     1       3.567   1.964  18.058  0.00  0.00    +0.000 S 
ATOM      7  C   UNL     1       2.825   2.887  19.272  0.00  0.00    +0.000 A 
ATOM      8  C   UNL     1       3.003   4.249  19.093  0.00  0.00    +0.000 A 
ATOM      9  C   UNL     1       3.824   4.534  17.935  0.00  0.00    +0.000 A 
ATOM     10  C   UNL     1       2.369   5.242  20.025  0.00  0.00    +0.000 C 
ATOM     11  C   UNL     1       1.936   4.599  21.352  0.00  0.00    +0.000 C 
ATOM     12  C   UNL     1       1.206   3.268  21.129  0.00  0.00    +0.000 C 
ATOM     13  C   UNL     1       2.099   2.245  20.415  0.00  0.00    +0.000 C 
ENDROOT
BRANCH   3  14
ATOM     14  C   UNL     1       6.054   4.408  14.403  0.00  0.00    +0.000 A 
ATOM     15  C   UNL     1       7.191   5.211  14.219  0.00  0.00    +0.000 A 
ATOM     16  C   UNL     1       7.856   5.187  13.003  0.00  0.00    +0.000 A 
ATOM     17  N   UNL     1       7.476   4.427  11.957  0.00  0.00    +0.000 NA
ATOM     18  C   UNL     1       6.382   3.660  12.137  0.00  0.00    +0.000 A 
ATOM     19  C   UNL     1       5.652   3.617  13.316  0.00  0.00    +0.000 A 
ENDBRANCH   3  14
BRANCH   1  20
ATOM     20  N   UNL     1       4.144   6.982  17.936  0.00  0.00    +0.000 N 
ATOM     21  H   UNL     1       3.845   6.870  18.901  0.00  0.00    +0.000 HD
BRANCH  20  22
ATOM     22  C   UNL     1       3.210   7.835  17.184  0.00  0.00    +0.000 C 
BRANCH  22  23
ATOM     23  C   UNL     1       2.506   8.849  18.118  0.00  0.00    +0.000 C 
BRANCH  23  24
ATOM     24  N   UNL     1       2.223  10.112  17.391  0.00  0.00    +0.000 NA
ATOM     25  H   UNL     1       3.008  10.301  16.765  0.00  0.00    +0.000 HD
ATOM     26  H   UNL     1       2.212  10.882  18.056  0.00  0.00    +0.000 HD
ENDBRANCH  23  24
BRANCH  23  27
ATOM     27  C   UNL     1       1.207   8.283  18.732  0.00  0.00    +0.000 C 
BRANCH  27  28
ATOM     28  C   UNL     1       0.808   8.965  20.015  0.00  0.00    +0.000 A 
ATOM     29  C   UNL     1      -0.106  10.017  20.006  0.00  0.00    +0.000 A 
ATOM     30  C   UNL     1      -0.426  10.638  21.209  0.00  0.00    +0.000 A 
ATOM     31  C   UNL     1       0.167  10.196  22.385  0.00  0.00    +0.000 A 
ATOM     32  C   UNL     1       1.058   9.140  22.307  0.00  0.00    +0.000 A 
ATOM     33  N   UNL     1       1.394   8.518  21.154  0.00  0.00    +0.000 NA
ENDBRANCH  27  28
ENDBRANCH  23  27
ENDBRANCH  22  23
ENDBRANCH  20  22
ENDBRANCH   1  20
TORSDOF 7
ENDMDL
