MODEL 1
REMARK VINA RESULT:      -9.1      0.000      0.000
REMARK  Name = 
REMARK  6 active torsions:
REMARK  status: ('A' for Active; 'I' for Inactive)
REMARK    1  A    between atoms: C_1  and  C_2
REMARK    2  A    between atoms: C_2  and  O_3
REMARK    3  A    between atoms: C_2  and  C_4
REMARK    4  A    between atoms: C_4  and  N_5
REMARK    5  A    between atoms: C_8  and  N_9
REMARK    6  A    between atoms: C_10  and  C_11
REMARK                            x       y       z     vdW  Elec       q    Type
REMARK                         _______ _______ _______ _____ _____    ______ ____
ROOT
ATOM      1  N   UNL     1       6.231   4.994  15.995  0.00  0.00    +0.000 N 
ATOM      2  C   UNL     1       4.983   4.354  16.057  0.00  0.00    +0.000 A 
ATOM      3  N   UNL     1       4.668   3.824  14.901  0.00  0.00    +0.000 NA
ATOM      4  C   UNL     1       5.677   4.136  14.039  0.00  0.00    +0.000 A 
ATOM      5  C   UNL     1       5.799   3.843  12.669  0.00  0.00    +0.000 A 
ATOM      6  C   UNL     1       6.955   4.231  11.981  0.00  0.00    +0.000 A 
ATOM      7  C   UNL     1       7.997   4.858  12.666  0.00  0.00    +0.000 A 
ATOM      8  C   UNL     1       7.884   5.163  14.040  0.00  0.00    +0.000 A 
ATOM      9  C   UNL     1       6.693   4.832  14.689  0.00  0.00    +0.000 A 
ENDROOT
BRANCH   2  10
ATOM     10  C   UNL     1       4.083   4.353  17.219  0.00  0.00    +0.000 A 
ATOM     11  C   UNL     1       3.368   5.511  17.538  0.00  0.00    +0.000 A 
ATOM     12  C   UNL     1       2.484   5.518  18.620  0.00  0.00    +0.000 A 
ATOM     13  C   UNL     1       2.406   4.413  19.476  0.00  0.00    +0.000 A 
ATOM     14  C   UNL     1       1.603   4.438  20.618  0.00  0.00    +0.000 A 
ATOM     15  C   UNL     1       1.884   3.577  21.674  0.00  0.00    +0.000 A 
ATOM     16  C   UNL     1       2.776   2.525  21.491  0.00  0.00    +0.000 A 
ATOM     17  C   UNL     1       3.354   2.314  20.239  0.00  0.00    +0.000 A 
ATOM     18  C   UNL     1       3.237   3.295  19.246  0.00  0.00    +0.000 A 
ATOM     19  C   UNL     1       3.998   3.241  18.072  0.00  0.00    +0.000 A 
ENDBRANCH   2  10
BRANCH   1  23
ATOM     20  N   UNL     1       7.863   9.156  17.786  0.00  0.00    +0.000 N 
ATOM     21  C   UNL     1       7.693   7.766  17.955  0.00  0.00    +0.000 A 
ATOM     22  C   UNL     1       6.965   7.084  16.989  0.00  0.00    +0.000 A 
ATOM     23  C   UNL     1       6.905   5.696  17.036  0.00  0.00    +0.000 A 
ATOM     24  C   UNL     1       7.506   5.022  18.096  0.00  0.00    +0.000 A 
ATOM     25  C   UNL     1       8.125   5.783  19.066  0.00  0.00    +0.000 A 
ATOM     26  N   UNL     1       8.232   7.130  19.014  0.00  0.00    +0.000 NA
ATOM     27  H   UNL     1       7.983   9.332  16.788  0.00  0.00    +0.000 HD
BRANCH  20  28
ATOM     28  C   UNL     1       9.059   9.659  18.478  0.00  0.00    +0.000 C 
BRANCH  28  30
ATOM     29  C   UNL     1      10.575  11.538  17.700  0.00  0.00    +0.000 C 
ATOM     30  C   UNL     1       9.211  11.185  18.270  0.00  0.00    +0.000 C 
BRANCH  30  31
ATOM     31  O   UNL     1       9.023  11.864  19.524  0.00  0.00    +0.000 OA
ATOM     32  H   UNL     1       8.074  11.826  19.739  0.00  0.00    +0.000 HD
ENDBRANCH  30  31
ENDBRANCH  28  30
ENDBRANCH  20  28
ENDBRANCH   1  23
TORSDOF 5
ENDMDL
MODEL 2
REMARK VINA RESULT:      -8.7      0.633      1.378
REMARK  Name = 
REMARK  6 active torsions:
REMARK  status: ('A' for Active; 'I' for Inactive)
REMARK    1  A    between atoms: C_1  and  C_2
REMARK    2  A    between atoms: C_2  and  O_3
REMARK    3  A    between atoms: C_2  and  C_4
REMARK    4  A    between atoms: C_4  and  N_5
REMARK    5  A    between atoms: C_8  and  N_9
REMARK    6  A    between atoms: C_10  and  C_11
REMARK                            x       y       z     vdW  Elec       q    Type
REMARK                         _______ _______ _______ _____ _____    ______ ____
ROOT
ATOM      1  N   UNL     1       6.440   4.756  15.924  0.00  0.00    +0.000 N 
ATOM      2  C   UNL     1       5.331   3.897  15.970  0.00  0.00    +0.000 A 
ATOM      3  N   UNL     1       5.056   3.419  14.782  0.00  0.00    +0.000 NA
ATOM      4  C   UNL     1       5.948   3.981  13.917  0.00  0.00    +0.000 A 
ATOM      5  C   UNL     1       6.050   3.832  12.522  0.00  0.00    +0.000 A 
ATOM      6  C   UNL     1       7.082   4.480  11.834  0.00  0.00    +0.000 A 
ATOM      7  C   UNL     1       8.031   5.225  12.537  0.00  0.00    +0.000 A 
ATOM      8  C   UNL     1       7.935   5.387  13.936  0.00  0.00    +0.000 A 
ATOM      9  C   UNL     1       6.857   4.792  14.593  0.00  0.00    +0.000 A 
ENDROOT
BRANCH   2  10
ATOM     10  C   UNL     1       4.505   3.635  17.157  0.00  0.00    +0.000 A 
ATOM     11  C   UNL     1       4.139   2.321  17.466  0.00  0.00    +0.000 A 
ATOM     12  C   UNL     1       3.382   2.050  18.608  0.00  0.00    +0.000 A 
ATOM     13  C   UNL     1       2.868   3.099  19.379  0.00  0.00    +0.000 A 
ATOM     14  C   UNL     1       2.027   2.852  20.468  0.00  0.00    +0.000 A 
ATOM     15  C   UNL     1       1.169   3.852  20.912  0.00  0.00    +0.000 A 
ATOM     16  C   UNL     1       1.333   5.157  20.461  0.00  0.00    +0.000 A 
ATOM     17  C   UNL     1       2.383   5.466  19.596  0.00  0.00    +0.000 A 
ATOM     18  C   UNL     1       3.109   4.434  18.989  0.00  0.00    +0.000 A 
ATOM     19  C   UNL     1       3.998   4.686  17.937  0.00  0.00    +0.000 A 
ENDBRANCH   2  10
BRANCH   1  23
ATOM     20  N   UNL     1       7.882   8.959  17.781  0.00  0.00    +0.000 N 
ATOM     21  C   UNL     1       7.723   7.568  17.951  0.00  0.00    +0.000 A 
ATOM     22  C   UNL     1       7.073   6.866  16.945  0.00  0.00    +0.000 A 
ATOM     23  C   UNL     1       7.032   5.478  17.001  0.00  0.00    +0.000 A 
ATOM     24  C   UNL     1       7.569   4.823  18.106  0.00  0.00    +0.000 A 
ATOM     25  C   UNL     1       8.110   5.601  19.108  0.00  0.00    +0.000 A 
ATOM     26  N   UNL     1       8.199   6.950  19.050  0.00  0.00    +0.000 NA
ATOM     27  H   UNL     1       8.067   9.128  16.791  0.00  0.00    +0.000 HD
BRANCH  20  28
ATOM     28  C   UNL     1       9.021   9.487  18.547  0.00  0.00    +0.000 C 
BRANCH  28  30
ATOM     29  C   UNL     1      10.337  11.490  17.716  0.00  0.00    +0.000 C 
ATOM     30  C   UNL     1       9.084  11.030  18.442  0.00  0.00    +0.000 C 
BRANCH  30  31
ATOM     31  O   UNL     1       9.051  11.606  19.760  0.00  0.00    +0.000 OA
ATOM     32  H   UNL     1       8.528  12.425  19.709  0.00  0.00    +0.000 HD
ENDBRANCH  30  31
ENDBRANCH  28  30
ENDBRANCH  20  28
ENDBRANCH   1  23
TORSDOF 5
ENDMDL
MODEL 3
REMARK VINA RESULT:      -7.5      0.886      1.625
REMARK  Name = 
REMARK  6 active torsions:
REMARK  status: ('A' for Active; 'I' for Inactive)
REMARK    1  A    between atoms: C_1  and  C_2
REMARK    2  A    between atoms: C_2  and  O_3
REMARK    3  A    between atoms: C_2  and  C_4
REMARK    4  A    between atoms: C_4  and  N_5
REMARK    5  A    between atoms: C_8  and  N_9
REMARK    6  A    between atoms: C_10  and  C_11
REMARK                            x       y       z     vdW  Elec       q    Type
REMARK                         _______ _______ _______ _____ _____    ______ ____
ROOT
ATOM      1  N   UNL     1       6.288   5.098  16.013  0.00  0.00    +0.000 N 
ATOM      2  C   UNL     1       5.031   4.479  16.091  0.00  0.00    +0.000 A 
ATOM      3  N   UNL     1       4.707   3.926  14.948  0.00  0.00    +0.000 NA
ATOM      4  C   UNL     1       5.720   4.201  14.078  0.00  0.00    +0.000 A 
ATOM      5  C   UNL     1       5.837   3.872  12.716  0.00  0.00    +0.000 A 
ATOM      6  C   UNL     1       6.998   4.225  12.019  0.00  0.00    +0.000 A 
ATOM      7  C   UNL     1       8.050   4.853  12.687  0.00  0.00    +0.000 A 
ATOM      8  C   UNL     1       7.943   5.194  14.053  0.00  0.00    +0.000 A 
ATOM      9  C   UNL     1       6.748   4.897  14.711  0.00  0.00    +0.000 A 
ENDROOT
BRANCH   2  10
ATOM     10  C   UNL     1       4.132   4.520  17.252  0.00  0.00    +0.000 A 
ATOM     11  C   UNL     1       3.326   3.414  17.541  0.00  0.00    +0.000 A 
ATOM     12  C   UNL     1       2.489   3.424  18.659  0.00  0.00    +0.000 A 
ATOM     13  C   UNL     1       2.346   4.589  19.424  0.00  0.00    +0.000 A 
ATOM     14  C   UNL     1       1.441   4.649  20.486  0.00  0.00    +0.000 A 
ATOM     15  C   UNL     1       0.967   5.885  20.914  0.00  0.00    +0.000 A 
ATOM     16  C   UNL     1       1.585   7.053  20.477  0.00  0.00    +0.000 A 
ATOM     17  C   UNL     1       2.701   6.978  19.644  0.00  0.00    +0.000 A 
ATOM     18  C   UNL     1       3.044   5.757  19.050  0.00  0.00    +0.000 A 
ATOM     19  C   UNL     1       3.995   5.684  18.025  0.00  0.00    +0.000 A 
ENDBRANCH   2  10
BRANCH   1  23
ATOM     20  N   UNL     1       7.922   9.290  17.734  0.00  0.00    +0.000 N 
ATOM     21  C   UNL     1       7.762   7.900  17.920  0.00  0.00    +0.000 A 
ATOM     22  C   UNL     1       7.025   7.203  16.973  0.00  0.00    +0.000 A 
ATOM     23  C   UNL     1       6.974   5.816  17.035  0.00  0.00    +0.000 A 
ATOM     24  C   UNL     1       7.595   5.157  18.094  0.00  0.00    +0.000 A 
ATOM     25  C   UNL     1       8.224   5.932  19.045  0.00  0.00    +0.000 A 
ATOM     26  N   UNL     1       8.321   7.279  18.977  0.00  0.00    +0.000 NA
ATOM     27  H   UNL     1       8.025   9.455  16.732  0.00  0.00    +0.000 HD
BRANCH  20  28
ATOM     28  C   UNL     1       9.125   9.807  18.402  0.00  0.00    +0.000 C 
BRANCH  28  30
ATOM     29  C   UNL     1       8.655  12.183  17.648  0.00  0.00    +0.000 C 
ATOM     30  C   UNL     1       8.919  11.277  18.839  0.00  0.00    +0.000 C 
BRANCH  30  31
ATOM     31  O   UNL     1      10.085  11.738  19.546  0.00  0.00    +0.000 OA
ATOM     32  H   UNL     1      10.045  11.373  20.447  0.00  0.00    +0.000 HD
ENDBRANCH  30  31
ENDBRANCH  28  30
ENDBRANCH  20  28
ENDBRANCH   1  23
TORSDOF 5
ENDMDL
MODEL 4
REMARK VINA RESULT:      -7.4      3.876      7.056
REMARK  Name = 
REMARK  6 active torsions:
REMARK  status: ('A' for Active; 'I' for Inactive)
REMARK    1  A    between atoms: C_1  and  C_2
REMARK    2  A    between atoms: C_2  and  O_3
REMARK    3  A    between atoms: C_2  and  C_4
REMARK    4  A    between atoms: C_4  and  N_5
REMARK    5  A    between atoms: C_8  and  N_9
REMARK    6  A    between atoms: C_10  and  C_11
REMARK                            x       y       z     vdW  Elec       q    Type
REMARK                         _______ _______ _______ _____ _____    ______ ____
ROOT
ATOM      1  N   UNL     1       3.622   5.227  19.141  0.00  0.00    +0.000 N 
ATOM      2  C   UNL     1       2.629   6.009  19.752  0.00  0.00    +0.000 A 
ATOM      3  N   UNL     1       2.050   5.355  20.728  0.00  0.00    +0.000 NA
ATOM      4  C   UNL     1       2.615   4.115  20.760  0.00  0.00    +0.000 A 
ATOM      5  C   UNL     1       2.315   3.021  21.591  0.00  0.00    +0.000 A 
ATOM      6  C   UNL     1       3.059   1.842  21.474  0.00  0.00    +0.000 A 
ATOM      7  C   UNL     1       4.124   1.774  20.574  0.00  0.00    +0.000 A 
ATOM      8  C   UNL     1       4.431   2.863  19.729  0.00  0.00    +0.000 A 
ATOM      9  C   UNL     1       3.629   4.004  19.812  0.00  0.00    +0.000 A 
ENDROOT
BRANCH   2  10
ATOM     10  C   UNL     1       2.203   7.344  19.308  0.00  0.00    +0.000 A 
ATOM     11  C   UNL     1       2.526   7.778  18.019  0.00  0.00    +0.000 A 
ATOM     12  C   UNL     1       2.103   9.030  17.570  0.00  0.00    +0.000 A 
ATOM     13  C   UNL     1       1.470   9.919  18.448  0.00  0.00    +0.000 A 
ATOM     14  C   UNL     1       1.127  11.212  18.047  0.00  0.00    +0.000 A 
ATOM     15  C   UNL     1       0.954  12.205  19.005  0.00  0.00    +0.000 A 
ATOM     16  C   UNL     1       0.855  11.860  20.350  0.00  0.00    +0.000 A 
ATOM     17  C   UNL     1       0.890  10.518  20.726  0.00  0.00    +0.000 A 
ATOM     18  C   UNL     1       1.274   9.545  19.795  0.00  0.00    +0.000 A 
ATOM     19  C   UNL     1       1.560   8.231  20.186  0.00  0.00    +0.000 A 
ENDBRANCH   2  10
BRANCH   1  23
ATOM     20  N   UNL     1       5.162   4.314  14.670  0.00  0.00    +0.000 N 
ATOM     21  C   UNL     1       5.206   5.154  15.803  0.00  0.00    +0.000 A 
ATOM     22  C   UNL     1       4.338   4.872  16.849  0.00  0.00    +0.000 A 
ATOM     23  C   UNL     1       4.456   5.578  18.040  0.00  0.00    +0.000 A 
ATOM     24  C   UNL     1       5.387   6.609  18.133  0.00  0.00    +0.000 A 
ATOM     25  C   UNL     1       6.142   6.889  17.014  0.00  0.00    +0.000 A 
ATOM     26  N   UNL     1       6.073   6.184  15.862  0.00  0.00    +0.000 NA
ATOM     27  H   UNL     1       4.997   3.363  15.000  0.00  0.00    +0.000 HD
BRANCH  20  28
ATOM     28  C   UNL     1       6.429   4.318  13.924  0.00  0.00    +0.000 C 
BRANCH  28  30
ATOM     29  C   UNL     1       4.749   3.513  12.201  0.00  0.00    +0.000 C 
ATOM     30  C   UNL     1       6.212   3.821  12.474  0.00  0.00    +0.000 C 
BRANCH  30  31
ATOM     31  O   UNL     1       7.004   2.642  12.244  0.00  0.00    +0.000 OA
ATOM     32  H   UNL     1       7.662   2.860  11.560  0.00  0.00    +0.000 HD
ENDBRANCH  30  31
ENDBRANCH  28  30
ENDBRANCH  20  28
ENDBRANCH   1  23
TORSDOF 5
ENDMDL
MODEL 5
REMARK VINA RESULT:      -7.3      7.694     10.687
REMARK  Name = 
REMARK  6 active torsions:
REMARK  status: ('A' for Active; 'I' for Inactive)
REMARK    1  A    between atoms: C_1  and  C_2
REMARK    2  A    between atoms: C_2  and  O_3
REMARK    3  A    between atoms: C_2  and  C_4
REMARK    4  A    between atoms: C_4  and  N_5
REMARK    5  A    between atoms: C_8  and  N_9
REMARK    6  A    between atoms: C_10  and  C_11
REMARK                            x       y       z     vdW  Elec       q    Type
REMARK                         _______ _______ _______ _____ _____    ______ ____
ROOT
ATOM      1  N   UNL     1      -0.129  12.634  19.123  0.00  0.00    +0.000 N 
ATOM      2  C   UNL     1       0.968  12.002  19.731  0.00  0.00    +0.000 A 
ATOM      3  N   UNL     1       1.905  12.868  20.028  0.00  0.00    +0.000 NA
ATOM      4  C   UNL     1       1.470  14.083  19.587  0.00  0.00    +0.000 A 
ATOM      5  C   UNL     1       2.123  15.328  19.623  0.00  0.00    +0.000 A 
ATOM      6  C   UNL     1       1.464  16.466  19.144  0.00  0.00    +0.000 A 
ATOM      7  C   UNL     1       0.150  16.370  18.684  0.00  0.00    +0.000 A 
ATOM      8  C   UNL     1      -0.514  15.124  18.636  0.00  0.00    +0.000 A 
ATOM      9  C   UNL     1       0.188  13.991  19.051  0.00  0.00    +0.000 A 
ENDROOT
BRANCH   2  10
ATOM     10  C   UNL     1       1.115  10.553  19.924  0.00  0.00    +0.000 A 
ATOM     11  C   UNL     1       0.899  10.000  21.191  0.00  0.00    +0.000 A 
ATOM     12  C   UNL     1       1.004   8.622  21.386  0.00  0.00    +0.000 A 
ATOM     13  C   UNL     1       1.458   7.795  20.351  0.00  0.00    +0.000 A 
ATOM     14  C   UNL     1       1.664   6.428  20.555  0.00  0.00    +0.000 A 
ATOM     15  C   UNL     1       2.532   5.733  19.719  0.00  0.00    +0.000 A 
ATOM     16  C   UNL     1       2.977   6.320  18.539  0.00  0.00    +0.000 A 
ATOM     17  C   UNL     1       2.520   7.588  18.179  0.00  0.00    +0.000 A 
ATOM     18  C   UNL     1       1.822   8.365  19.112  0.00  0.00    +0.000 A 
ATOM     19  C   UNL     1       1.561   9.722  18.884  0.00  0.00    +0.000 A 
ENDBRANCH   2  10
BRANCH   1  23
ATOM     20  N   UNL     1      -2.428  10.169  15.683  0.00  0.00    +0.000 N 
ATOM     21  C   UNL     1      -2.476  10.777  16.955  0.00  0.00    +0.000 A 
ATOM     22  C   UNL     1      -1.295  11.293  17.469  0.00  0.00    +0.000 A 
ATOM     23  C   UNL     1      -1.329  12.033  18.645  0.00  0.00    +0.000 A 
ATOM     24  C   UNL     1      -2.534  12.173  19.328  0.00  0.00    +0.000 A 
ATOM     25  C   UNL     1      -3.643  11.546  18.800  0.00  0.00    +0.000 A 
ATOM     26  N   UNL     1      -3.638  10.860  17.635  0.00  0.00    +0.000 NA
ATOM     27  H   UNL     1      -1.773  10.704  15.112  0.00  0.00    +0.000 HD
BRANCH  20  28
ATOM     28  C   UNL     1      -3.733  10.187  15.007  0.00  0.00    +0.000 C 
BRANCH  28  30
ATOM     29  C   UNL     1      -4.711   9.599  12.741  0.00  0.00    +0.000 C 
ATOM     30  C   UNL     1      -3.554  10.259  13.471  0.00  0.00    +0.000 C 
BRANCH  30  31
ATOM     31  O   UNL     1      -2.320   9.619  13.099  0.00  0.00    +0.000 OA
ATOM     32  H   UNL     1      -2.362   8.698  13.412  0.00  0.00    +0.000 HD
ENDBRANCH  30  31
ENDBRANCH  28  30
ENDBRANCH  20  28
ENDBRANCH   1  23
TORSDOF 5
ENDMDL
MODEL 6
REMARK VINA RESULT:      -7.3      7.979     10.935
REMARK  Name = 
REMARK  6 active torsions:
REMARK  status: ('A' for Active; 'I' for Inactive)
REMARK    1  A    between atoms: C_1  and  C_2
REMARK    2  A    between atoms: C_2  and  O_3
REMARK    3  A    between atoms: C_2  and  C_4
REMARK    4  A    between atoms: C_4  and  N_5
REMARK    5  A    between atoms: C_8  and  N_9
REMARK    6  A    between atoms: C_10  and  C_11
REMARK                            x       y       z     vdW  Elec       q    Type
REMARK                         _______ _______ _______ _____ _____    ______ ____
ROOT
ATOM      1  N   UNL     1      -0.162  12.072  19.045  0.00  0.00    +0.000 N 
ATOM      2  C   UNL     1       0.921  11.472  19.706  0.00  0.00    +0.000 A 
ATOM      3  N   UNL     1       1.808  12.366  20.065  0.00  0.00    +0.000 NA
ATOM      4  C   UNL     1       1.355  13.571  19.615  0.00  0.00    +0.000 A 
ATOM      5  C   UNL     1       1.958  14.838  19.702  0.00  0.00    +0.000 A 
ATOM      6  C   UNL     1       1.286  15.958  19.200  0.00  0.00    +0.000 A 
ATOM      7  C   UNL     1       0.004  15.821  18.664  0.00  0.00    +0.000 A 
ATOM      8  C   UNL     1      -0.610  14.553  18.565  0.00  0.00    +0.000 A 
ATOM      9  C   UNL     1       0.109  13.440  19.006  0.00  0.00    +0.000 A 
ENDROOT
BRANCH   2  10
ATOM     10  C   UNL     1       1.110  10.026  19.891  0.00  0.00    +0.000 A 
ATOM     11  C   UNL     1       0.774   9.437  21.114  0.00  0.00    +0.000 A 
ATOM     12  C   UNL     1       0.918   8.060  21.297  0.00  0.00    +0.000 A 
ATOM     13  C   UNL     1       1.526   7.277  20.308  0.00  0.00    +0.000 A 
ATOM     14  C   UNL     1       1.768   5.916  20.512  0.00  0.00    +0.000 A 
ATOM     15  C   UNL     1       2.757   5.277  19.772  0.00  0.00    +0.000 A 
ATOM     16  C   UNL     1       3.309   5.909  18.662  0.00  0.00    +0.000 A 
ATOM     17  C   UNL     1       2.840   7.163  18.273  0.00  0.00    +0.000 A 
ATOM     18  C   UNL     1       2.005   7.889  19.131  0.00  0.00    +0.000 A 
ATOM     19  C   UNL     1       1.711   9.238  18.897  0.00  0.00    +0.000 A 
ENDBRANCH   2  10
BRANCH   1  23
ATOM     20  N   UNL     1      -4.957  11.715  18.771  0.00  0.00    +0.000 N 
ATOM     21  C   UNL     1      -3.696  11.270  18.321  0.00  0.00    +0.000 A 
ATOM     22  C   UNL     1      -2.572  11.937  18.788  0.00  0.00    +0.000 A 
ATOM     23  C   UNL     1      -1.310  11.435  18.492  0.00  0.00    +0.000 A 
ATOM     24  C   UNL     1      -1.196  10.321  17.665  0.00  0.00    +0.000 A 
ATOM     25  C   UNL     1      -2.360   9.777  17.164  0.00  0.00    +0.000 A 
ATOM     26  N   UNL     1      -3.597  10.224  17.477  0.00  0.00    +0.000 NA
ATOM     27  H   UNL     1      -4.854  11.991  19.748  0.00  0.00    +0.000 HD
BRANCH  20  28
ATOM     28  C   UNL     1      -5.976  10.657  18.709  0.00  0.00    +0.000 C 
BRANCH  28  30
ATOM     29  C   UNL     1      -6.604  11.923  20.816  0.00  0.00    +0.000 C 
ATOM     30  C   UNL     1      -7.013  10.827  19.846  0.00  0.00    +0.000 C 
BRANCH  30  31
ATOM     31  O   UNL     1      -7.160   9.584  20.555  0.00  0.00    +0.000 OA
ATOM     32  H   UNL     1      -6.789   9.711  21.447  0.00  0.00    +0.000 HD
ENDBRANCH  30  31
ENDBRANCH  28  30
ENDBRANCH  20  28
ENDBRANCH   1  23
TORSDOF 5
ENDMDL
MODEL 7
REMARK VINA RESULT:      -7.1      7.926     10.778
REMARK  Name = 
REMARK  6 active torsions:
REMARK  status: ('A' for Active; 'I' for Inactive)
REMARK    1  A    between atoms: C_1  and  C_2
REMARK    2  A    between atoms: C_2  and  O_3
REMARK    3  A    between atoms: C_2  and  C_4
REMARK    4  A    between atoms: C_4  and  N_5
REMARK    5  A    between atoms: C_8  and  N_9
REMARK    6  A    between atoms: C_10  and  C_11
REMARK                            x       y       z     vdW  Elec       q    Type
REMARK                         _______ _______ _______ _____ _____    ______ ____
ROOT
ATOM      1  N   UNL     1       0.324  12.411  19.938  0.00  0.00    +0.000 N 
ATOM      2  C   UNL     1      -0.686  12.883  19.086  0.00  0.00    +0.000 A 
ATOM      3  N   UNL     1      -0.354  14.033  18.554  0.00  0.00    +0.000 NA
ATOM      4  C   UNL     1       0.862  14.368  19.071  0.00  0.00    +0.000 A 
ATOM      5  C   UNL     1       1.632  15.525  18.857  0.00  0.00    +0.000 A 
ATOM      6  C   UNL     1       2.885  15.642  19.469  0.00  0.00    +0.000 A 
ATOM      7  C   UNL     1       3.385  14.593  20.243  0.00  0.00    +0.000 A 
ATOM      8  C   UNL     1       2.619  13.429  20.471  0.00  0.00    +0.000 A 
ATOM      9  C   UNL     1       1.342  13.365  19.910  0.00  0.00    +0.000 A 
ENDROOT
BRANCH   2  10
ATOM     10  C   UNL     1      -1.995  12.246  18.882  0.00  0.00    +0.000 A 
ATOM     11  C   UNL     1      -2.172  11.360  17.814  0.00  0.00    +0.000 A 
ATOM     12  C   UNL     1      -3.399  10.721  17.624  0.00  0.00    +0.000 A 
ATOM     13  C   UNL     1      -4.503  11.063  18.416  0.00  0.00    +0.000 A 
ATOM     14  C   UNL     1      -5.763  10.508  18.177  0.00  0.00    +0.000 A 
ATOM     15  C   UNL     1      -6.901  11.174  18.620  0.00  0.00    +0.000 A 
ATOM     16  C   UNL     1      -6.780  12.230  19.518  0.00  0.00    +0.000 A 
ATOM     17  C   UNL     1      -5.522  12.591  20.000  0.00  0.00    +0.000 A 
ATOM     18  C   UNL     1      -4.371  12.066  19.399  0.00  0.00    +0.000 A 
ATOM     19  C   UNL     1      -3.100  12.581  19.681  0.00  0.00    +0.000 A 
ENDBRANCH   2  10
BRANCH   1  23
ATOM     20  N   UNL     1       1.758   7.842  20.458  0.00  0.00    +0.000 N 
ATOM     21  C   UNL     1       1.064   8.948  20.995  0.00  0.00    +0.000 A 
ATOM     22  C   UNL     1       1.121  10.146  20.296  0.00  0.00    +0.000 A 
ATOM     23  C   UNL     1       0.329  11.211  20.707  0.00  0.00    +0.000 A 
ATOM     24  C   UNL     1      -0.443  11.084  21.859  0.00  0.00    +0.000 A 
ATOM     25  C   UNL     1      -0.367   9.892  22.549  0.00  0.00    +0.000 A 
ATOM     26  N   UNL     1       0.363   8.830  22.140  0.00  0.00    +0.000 NA
ATOM     27  H   UNL     1       1.667   7.886  19.443  0.00  0.00    +0.000 HD
BRANCH  20  28
ATOM     28  C   UNL     1       1.194   6.560  20.905  0.00  0.00    +0.000 C 
BRANCH  28  30
ATOM     29  C   UNL     1       1.471   4.041  20.789  0.00  0.00    +0.000 C 
ATOM     30  C   UNL     1       1.906   5.376  20.208  0.00  0.00    +0.000 C 
BRANCH  30  31
ATOM     31  O   UNL     1       3.331   5.520  20.345  0.00  0.00    +0.000 OA
ATOM     32  H   UNL     1       3.493   6.176  21.046  0.00  0.00    +0.000 HD
ENDBRANCH  30  31
ENDBRANCH  28  30
ENDBRANCH  20  28
ENDBRANCH   1  23
TORSDOF 5
ENDMDL
MODEL 8
REMARK VINA RESULT:      -7.1      9.258     13.087
REMARK  Name = 
REMARK  6 active torsions:
REMARK  status: ('A' for Active; 'I' for Inactive)
REMARK    1  A    between atoms: C_1  and  C_2
REMARK    2  A    between atoms: C_2  and  O_3
REMARK    3  A    between atoms: C_2  and  C_4
REMARK    4  A    between atoms: C_4  and  N_5
REMARK    5  A    between atoms: C_8  and  N_9
REMARK    6  A    between atoms: C_10  and  C_11
REMARK                            x       y       z     vdW  Elec       q    Type
REMARK                         _______ _______ _______ _____ _____    ______ ____
ROOT
ATOM      1  N   UNL     1      -1.308  13.276  21.501  0.00  0.00    +0.000 N 
ATOM      2  C   UNL     1      -0.704  14.542  21.556  0.00  0.00    +0.000 A 
ATOM      3  N   UNL     1      -1.161  15.238  22.567  0.00  0.00    +0.000 NA
ATOM      4  C   UNL     1      -2.105  14.468  23.179  0.00  0.00    +0.000 A 
ATOM      5  C   UNL     1      -2.922  14.771  24.283  0.00  0.00    +0.000 A 
ATOM      6  C   UNL     1      -3.805  13.803  24.774  0.00  0.00    +0.000 A 
ATOM      7  C   UNL     1      -3.833  12.529  24.202  0.00  0.00    +0.000 A 
ATOM      8  C   UNL     1      -3.022  12.215  23.089  0.00  0.00    +0.000 A 
ATOM      9  C   UNL     1      -2.202  13.219  22.571  0.00  0.00    +0.000 A 
ENDROOT
BRANCH   2  10
ATOM     10  C   UNL     1       0.238  15.079  20.564  0.00  0.00    +0.000 A 
ATOM     11  C   UNL     1      -0.224  15.952  19.575  0.00  0.00    +0.000 A 
ATOM     12  C   UNL     1       0.663  16.497  18.644  0.00  0.00    +0.000 A 
ATOM     13  C   UNL     1       1.996  16.071  18.607  0.00  0.00    +0.000 A 
ATOM     14  C   UNL     1       2.875  16.530  17.622  0.00  0.00    +0.000 A 
ATOM     15  C   UNL     1       4.001  15.779  17.303  0.00  0.00    +0.000 A 
ATOM     16  C   UNL     1       4.393  14.732  18.131  0.00  0.00    +0.000 A 
ATOM     17  C   UNL     1       3.678  14.466  19.299  0.00  0.00    +0.000 A 
ATOM     18  C   UNL     1       2.436  15.078  19.508  0.00  0.00    +0.000 A 
ATOM     19  C   UNL     1       1.578  14.660  20.532  0.00  0.00    +0.000 A 
ENDBRANCH   2  10
BRANCH   1  23
ATOM     20  N   UNL     1      -1.973  11.562  17.049  0.00  0.00    +0.000 N 
ATOM     21  C   UNL     1      -1.384  11.395  18.321  0.00  0.00    +0.000 A 
ATOM     22  C   UNL     1      -1.519  12.430  19.235  0.00  0.00    +0.000 A 
ATOM     23  C   UNL     1      -1.089  12.244  20.543  0.00  0.00    +0.000 A 
ATOM     24  C   UNL     1      -0.456  11.053  20.891  0.00  0.00    +0.000 A 
ATOM     25  C   UNL     1      -0.274  10.115  19.897  0.00  0.00    +0.000 A 
ATOM     26  N   UNL     1      -0.725  10.260  18.630  0.00  0.00    +0.000 NA
ATOM     27  H   UNL     1      -2.854  12.060  17.182  0.00  0.00    +0.000 HD
BRANCH  20  28
ATOM     28  C   UNL     1      -2.276  10.277  16.403  0.00  0.00    +0.000 C 
BRANCH  28  30
ATOM     29  C   UNL     1      -3.016   9.929  14.002  0.00  0.00    +0.000 C 
ATOM     30  C   UNL     1      -3.422  10.438  15.375  0.00  0.00    +0.000 C 
BRANCH  30  31
ATOM     31  O   UNL     1      -3.798  11.823  15.284  0.00  0.00    +0.000 OA
ATOM     32  H   UNL     1      -4.293  12.046  16.092  0.00  0.00    +0.000 HD
ENDBRANCH  30  31
ENDBRANCH  28  30
ENDBRANCH  20  28
ENDBRANCH   1  23
TORSDOF 5
ENDMDL
MODEL 9
REMARK VINA RESULT:      -7.0      7.707     10.453
REMARK  Name = 
REMARK  6 active torsions:
REMARK  status: ('A' for Active; 'I' for Inactive)
REMARK    1  A    between atoms: C_1  and  C_2
REMARK    2  A    between atoms: C_2  and  O_3
REMARK    3  A    between atoms: C_2  and  C_4
REMARK    4  A    between atoms: C_4  and  N_5
REMARK    5  A    between atoms: C_8  and  N_9
REMARK    6  A    between atoms: C_10  and  C_11
REMARK                            x       y       z     vdW  Elec       q    Type
REMARK                         _______ _______ _______ _____ _____    ______ ____
ROOT
ATOM      1  N   UNL     1       1.231   9.543  19.782  0.00  0.00    +0.000 N 
ATOM      2  C   UNL     1       1.479  10.442  18.734  0.00  0.00    +0.000 A 
ATOM      3  N   UNL     1       2.156   9.868  17.771  0.00  0.00    +0.000 NA
ATOM      4  C   UNL     1       2.407   8.590  18.176  0.00  0.00    +0.000 A 
ATOM      5  C   UNL     1       3.135   7.577  17.527  0.00  0.00    +0.000 A 
ATOM      6  C   UNL     1       3.232   6.312  18.116  0.00  0.00    +0.000 A 
ATOM      7  C   UNL     1       2.565   6.046  19.313  0.00  0.00    +0.000 A 
ATOM      8  C   UNL     1       1.836   7.056  19.978  0.00  0.00    +0.000 A 
ATOM      9  C   UNL     1       1.813   8.331  19.409  0.00  0.00    +0.000 A 
ENDROOT
BRANCH   2  10
ATOM     10  C   UNL     1       1.131  11.870  18.736  0.00  0.00    +0.000 A 
ATOM     11  C   UNL     1      -0.166  12.264  18.392  0.00  0.00    +0.000 A 
ATOM     12  C   UNL     1      -0.524  13.614  18.420  0.00  0.00    +0.000 A 
ATOM     13  C   UNL     1       0.445  14.596  18.659  0.00  0.00    +0.000 A 
ATOM     14  C   UNL     1       0.128  15.955  18.594  0.00  0.00    +0.000 A 
ATOM     15  C   UNL     1       1.137  16.884  18.360  0.00  0.00    +0.000 A 
ATOM     16  C   UNL     1       2.470  16.499  18.460  0.00  0.00    +0.000 A 
ATOM     17  C   UNL     1       2.790  15.194  18.832  0.00  0.00    +0.000 A 
ATOM     18  C   UNL     1       1.789  14.214  18.860  0.00  0.00    +0.000 A 
ATOM     19  C   UNL     1       2.100  12.855  18.985  0.00  0.00    +0.000 A 
ENDBRANCH   2  10
BRANCH   1  23
ATOM     20  N   UNL     1      -2.261  11.857  22.158  0.00  0.00    +0.000 N 
ATOM     21  C   UNL     1      -1.213  10.914  22.192  0.00  0.00    +0.000 A 
ATOM     22  C   UNL     1      -0.590  10.598  20.993  0.00  0.00    +0.000 A 
ATOM     23  C   UNL     1       0.543   9.794  21.005  0.00  0.00    +0.000 A 
ATOM     24  C   UNL     1       0.983   9.253  22.210  0.00  0.00    +0.000 A 
ATOM     25  C   UNL     1       0.249   9.537  23.342  0.00  0.00    +0.000 A 
ATOM     26  N   UNL     1      -0.829  10.354  23.356  0.00  0.00    +0.000 NA
ATOM     27  H   UNL     1      -2.012  12.568  21.470  0.00  0.00    +0.000 HD
BRANCH  20  28
ATOM     28  C   UNL     1      -2.448  12.530  23.452  0.00  0.00    +0.000 C 
BRANCH  28  30
ATOM     29  C   UNL     1      -4.509  12.344  24.920  0.00  0.00    +0.000 C 
ATOM     30  C   UNL     1      -3.928  12.939  23.648  0.00  0.00    +0.000 C 
BRANCH  30  31
ATOM     31  O   UNL     1      -4.703  12.507  22.516  0.00  0.00    +0.000 OA
ATOM     32  H   UNL     1      -5.210  13.274  22.197  0.00  0.00    +0.000 HD
ENDBRANCH  30  31
ENDBRANCH  28  30
ENDBRANCH  20  28
ENDBRANCH   1  23
TORSDOF 5
ENDMDL
