MODEL 1
REMARK VINA RESULT:      -6.6      0.000      0.000
REMARK  Name = 
REMARK  7 active torsions:
REMARK  status: ('A' for Active; 'I' for Inactive)
REMARK    1  A    between atoms: C_1  and  C_2
REMARK    2  A    between atoms: C_2  and  C_3
REMARK    3  A    between atoms: C_3  and  N_4
REMARK    4  A    between atoms: N_4  and  C_5
REMARK    5  A    between atoms: N_4  and  C_8
REMARK    6  A    between atoms: C_5  and  C_6
REMARK    7  A    between atoms: C_6  and  C_7
REMARK                            x       y       z     vdW  Elec       q    Type
REMARK                         _______ _______ _______ _____ _____    ______ ____
ROOT
ATOM      1  C   UNL     1       2.953   5.589  17.501  0.00  0.00    +0.000 C 
ATOM      2  C   UNL     1       2.739   6.977  18.158  0.00  0.00    +0.000 C 
ATOM      3  C   UNL     1       2.691   7.066  19.687  0.00  0.00    +0.000 C 
ATOM      4  C   UNL     1       1.684   6.191  20.428  0.00  0.00    +0.000 C 
ATOM      5  C   UNL     1       1.853   4.689  20.342  0.00  0.00    +0.000 A 
ATOM      6  C   UNL     1       2.025   3.947  21.528  0.00  0.00    +0.000 A 
ATOM      7  C   UNL     1       2.066   2.552  21.505  0.00  0.00    +0.000 A 
ATOM      8  C   UNL     1       1.886   1.881  20.305  0.00  0.00    +0.000 A 
ATOM      9  C   UNL     1       1.714   2.587  19.123  0.00  0.00    +0.000 A 
ATOM     10  C   UNL     1       1.735   4.002  19.129  0.00  0.00    +0.000 A 
ATOM     11  C   UNL     1       1.686   4.730  17.796  0.00  0.00    +0.000 C 
ENDROOT
BRANCH   1  12
ATOM     12  N   UNL     1       4.241   4.896  17.789  0.00  0.00    +0.000 NA
BRANCH  12  13
ATOM     13  C   UNL     1       4.542   3.819  16.824  0.00  0.00    +0.000 C 
BRANCH  13  15
ATOM     14  C   UNL     1       5.529   4.443  14.574  0.00  0.00    +0.000 C 
ATOM     15  C   UNL     1       5.829   4.032  16.010  0.00  0.00    +0.000 C 
ENDBRANCH  13  15
ENDBRANCH  12  13
BRANCH  12  16
ATOM     16  C   UNL     1       5.392   5.756  18.091  0.00  0.00    +0.000 C 
BRANCH  16  17
ATOM     17  C   UNL     1       6.263   5.418  19.310  0.00  0.00    +0.000 C 
ATOM     18  C   UNL     1       7.722   5.767  19.018  0.00  0.00    +0.000 C 
ENDBRANCH  16  17
ENDBRANCH  12  16
ENDBRANCH   1  12
TORSDOF 5
ENDMDL
MODEL 2
REMARK VINA RESULT:      -6.2      1.356      3.365
REMARK  Name = 
REMARK  7 active torsions:
REMARK  status: ('A' for Active; 'I' for Inactive)
REMARK    1  A    between atoms: C_1  and  C_2
REMARK    2  A    between atoms: C_2  and  C_3
REMARK    3  A    between atoms: C_3  and  N_4
REMARK    4  A    between atoms: N_4  and  C_5
REMARK    5  A    between atoms: N_4  and  C_8
REMARK    6  A    between atoms: C_5  and  C_6
REMARK    7  A    between atoms: C_6  and  C_7
REMARK                            x       y       z     vdW  Elec       q    Type
REMARK                         _______ _______ _______ _____ _____    ______ ____
ROOT
ATOM      1  C   UNL     1       5.230   3.752  18.237  0.00  0.00    +0.000 C 
ATOM      2  C   UNL     1       4.642   3.652  16.805  0.00  0.00    +0.000 C 
ATOM      3  C   UNL     1       3.130   3.819  16.619  0.00  0.00    +0.000 C 
ATOM      4  C   UNL     1       2.202   2.912  17.420  0.00  0.00    +0.000 C 
ATOM      5  C   UNL     1       2.211   3.044  18.928  0.00  0.00    +0.000 A 
ATOM      6  C   UNL     1       1.013   3.369  19.597  0.00  0.00    +0.000 A 
ATOM      7  C   UNL     1       0.950   3.385  20.992  0.00  0.00    +0.000 A 
ATOM      8  C   UNL     1       2.066   3.029  21.733  0.00  0.00    +0.000 A 
ATOM      9  C   UNL     1       3.257   2.705  21.099  0.00  0.00    +0.000 A 
ATOM     10  C   UNL     1       3.348   2.748  19.687  0.00  0.00    +0.000 A 
ATOM     11  C   UNL     1       4.706   2.524  19.045  0.00  0.00    +0.000 C 
ENDROOT
BRANCH   1  12
ATOM     12  N   UNL     1       5.077   5.056  18.941  0.00  0.00    +0.000 NA
BRANCH  12  13
ATOM     13  C   UNL     1       6.357   5.584  19.456  0.00  0.00    +0.000 C 
BRANCH  13  15
ATOM     14  C   UNL     1       7.706   7.046  17.884  0.00  0.00    +0.000 C 
ATOM     15  C   UNL     1       7.491   5.635  18.418  0.00  0.00    +0.000 C 
ENDBRANCH  13  15
ENDBRANCH  12  13
BRANCH  12  16
ATOM     16  C   UNL     1       4.249   6.067  18.272  0.00  0.00    +0.000 C 
BRANCH  16  17
ATOM     17  C   UNL     1       2.994   6.583  18.992  0.00  0.00    +0.000 C 
ATOM     18  C   UNL     1       2.317   7.661  18.145  0.00  0.00    +0.000 C 
ENDBRANCH  16  17
ENDBRANCH  12  16
ENDBRANCH   1  12
TORSDOF 5
ENDMDL
MODEL 3
REMARK VINA RESULT:      -6.1      1.693      5.228
REMARK  Name = 
REMARK  7 active torsions:
REMARK  status: ('A' for Active; 'I' for Inactive)
REMARK    1  A    between atoms: C_1  and  C_2
REMARK    2  A    between atoms: C_2  and  C_3
REMARK    3  A    between atoms: C_3  and  N_4
REMARK    4  A    between atoms: N_4  and  C_5
REMARK    5  A    between atoms: N_4  and  C_8
REMARK    6  A    between atoms: C_5  and  C_6
REMARK    7  A    between atoms: C_6  and  C_7
REMARK                            x       y       z     vdW  Elec       q    Type
REMARK                         _______ _______ _______ _____ _____    ______ ____
ROOT
ATOM      1  C   UNL     1       3.983   4.756  19.421  0.00  0.00    +0.000 C 
ATOM      2  C   UNL     1       3.088   6.022  19.424  0.00  0.00    +0.000 C 
ATOM      3  C   UNL     1       2.867   6.769  18.104  0.00  0.00    +0.000 C 
ATOM      4  C   UNL     1       4.095   7.235  17.327  0.00  0.00    +0.000 C 
ATOM      5  C   UNL     1       5.029   6.178  16.780  0.00  0.00    +0.000 A 
ATOM      6  C   UNL     1       5.273   6.127  15.392  0.00  0.00    +0.000 A 
ATOM      7  C   UNL     1       6.216   5.247  14.858  0.00  0.00    +0.000 A 
ATOM      8  C   UNL     1       6.961   4.444  15.707  0.00  0.00    +0.000 A 
ATOM      9  C   UNL     1       6.741   4.474  17.077  0.00  0.00    +0.000 A 
ATOM     10  C   UNL     1       5.743   5.317  17.620  0.00  0.00    +0.000 A 
ATOM     11  C   UNL     1       5.440   5.213  19.105  0.00  0.00    +0.000 C 
ENDROOT
BRANCH   1  12
ATOM     12  N   UNL     1       3.516   3.600  18.604  0.00  0.00    +0.000 NA
BRANCH  12  13
ATOM     13  C   UNL     1       4.018   2.303  19.103  0.00  0.00    +0.000 C 
BRANCH  13  15
ATOM     14  C   UNL     1       5.260   1.118  20.969  0.00  0.00    +0.000 C 
ATOM     15  C   UNL     1       4.340   2.278  20.607  0.00  0.00    +0.000 C 
ENDBRANCH  13  15
ENDBRANCH  12  13
BRANCH  12  16
ATOM     16  C   UNL     1       2.091   3.583  18.250  0.00  0.00    +0.000 C 
BRANCH  16  17
ATOM     17  C   UNL     1       1.153   2.642  19.021  0.00  0.00    +0.000 C 
ATOM     18  C   UNL     1       0.709   3.305  20.324  0.00  0.00    +0.000 C 
ENDBRANCH  16  17
ENDBRANCH  12  16
ENDBRANCH   1  12
TORSDOF 5
ENDMDL
MODEL 4
REMARK VINA RESULT:      -6.1      1.431      4.779
REMARK  Name = 
REMARK  7 active torsions:
REMARK  status: ('A' for Active; 'I' for Inactive)
REMARK    1  A    between atoms: C_1  and  C_2
REMARK    2  A    between atoms: C_2  and  C_3
REMARK    3  A    between atoms: C_3  and  N_4
REMARK    4  A    between atoms: N_4  and  C_5
REMARK    5  A    between atoms: N_4  and  C_8
REMARK    6  A    between atoms: C_5  and  C_6
REMARK    7  A    between atoms: C_6  and  C_7
REMARK                            x       y       z     vdW  Elec       q    Type
REMARK                         _______ _______ _______ _____ _____    ______ ____
ROOT
ATOM      1  C   UNL     1       3.649   5.282  19.697  0.00  0.00    +0.000 C 
ATOM      2  C   UNL     1       2.889   6.623  19.531  0.00  0.00    +0.000 C 
ATOM      3  C   UNL     1       2.737   7.212  18.124  0.00  0.00    +0.000 C 
ATOM      4  C   UNL     1       4.000   7.444  17.301  0.00  0.00    +0.000 C 
ATOM      5  C   UNL     1       4.816   6.235  16.900  0.00  0.00    +0.000 A 
ATOM      6  C   UNL     1       5.043   5.980  15.532  0.00  0.00    +0.000 A 
ATOM      7  C   UNL     1       5.887   4.945  15.123  0.00  0.00    +0.000 A 
ATOM      8  C   UNL     1       6.551   4.186  16.073  0.00  0.00    +0.000 A 
ATOM      9  C   UNL     1       6.346   4.416  17.426  0.00  0.00    +0.000 A 
ATOM     10  C   UNL     1       5.444   5.421  17.850  0.00  0.00    +0.000 A 
ATOM     11  C   UNL     1       5.143   5.541  19.333  0.00  0.00    +0.000 C 
ENDROOT
BRANCH   1  12
ATOM     12  N   UNL     1       3.059   4.085  19.033  0.00  0.00    +0.000 NA
BRANCH  12  13
ATOM     13  C   UNL     1       3.834   2.851  19.279  0.00  0.00    +0.000 C 
BRANCH  13  15
ATOM     14  C   UNL     1       3.229   2.392  16.860  0.00  0.00    +0.000 C 
ATOM     15  C   UNL     1       3.711   1.789  18.174  0.00  0.00    +0.000 C 
ENDBRANCH  13  15
ENDBRANCH  12  13
BRANCH  12  16
ATOM     16  C   UNL     1       1.608   3.907  19.177  0.00  0.00    +0.000 C 
BRANCH  16  17
ATOM     17  C   UNL     1       0.988   4.024  20.578  0.00  0.00    +0.000 C 
ATOM     18  C   UNL     1       1.303   2.768  21.390  0.00  0.00    +0.000 C 
ENDBRANCH  16  17
ENDBRANCH  12  16
ENDBRANCH   1  12
TORSDOF 5
ENDMDL
MODEL 5
REMARK VINA RESULT:      -6.0      1.481      1.797
REMARK  Name = 
REMARK  7 active torsions:
REMARK  status: ('A' for Active; 'I' for Inactive)
REMARK    1  A    between atoms: C_1  and  C_2
REMARK    2  A    between atoms: C_2  and  C_3
REMARK    3  A    between atoms: C_3  and  N_4
REMARK    4  A    between atoms: N_4  and  C_5
REMARK    5  A    between atoms: N_4  and  C_8
REMARK    6  A    between atoms: C_5  and  C_6
REMARK    7  A    between atoms: C_6  and  C_7
REMARK                            x       y       z     vdW  Elec       q    Type
REMARK                         _______ _______ _______ _____ _____    ______ ____
ROOT
ATOM      1  C   UNL     1       4.748   5.399  16.681  0.00  0.00    +0.000 C 
ATOM      2  C   UNL     1       4.155   6.801  16.979  0.00  0.00    +0.000 C 
ATOM      3  C   UNL     1       3.573   7.071  18.371  0.00  0.00    +0.000 C 
ATOM      4  C   UNL     1       2.486   6.136  18.891  0.00  0.00    +0.000 C 
ATOM      5  C   UNL     1       2.854   4.687  19.131  0.00  0.00    +0.000 A 
ATOM      6  C   UNL     1       2.697   4.142  20.421  0.00  0.00    +0.000 A 
ATOM      7  C   UNL     1       2.911   2.782  20.659  0.00  0.00    +0.000 A 
ATOM      8  C   UNL     1       3.237   1.945  19.604  0.00  0.00    +0.000 A 
ATOM      9  C   UNL     1       3.398   2.457  18.324  0.00  0.00    +0.000 A 
ATOM     10  C   UNL     1       3.245   3.843  18.086  0.00  0.00    +0.000 A 
ATOM     11  C   UNL     1       3.570   4.377  16.702  0.00  0.00    +0.000 C 
ENDROOT
BRANCH   1  12
ATOM     12  N   UNL     1       5.931   4.982  17.485  0.00  0.00    +0.000 NA
BRANCH  12  13
ATOM     13  C   UNL     1       7.027   4.440  16.656  0.00  0.00    +0.000 C 
BRANCH  13  15
ATOM     14  C   UNL     1       6.367   3.862  14.277  0.00  0.00    +0.000 C 
ATOM     15  C   UNL     1       7.007   4.902  15.189  0.00  0.00    +0.000 C 
ENDBRANCH  13  15
ENDBRANCH  12  13
BRANCH  12  16
ATOM     16  C   UNL     1       6.384   5.922  18.518  0.00  0.00    +0.000 C 
BRANCH  16  17
ATOM     17  C   UNL     1       7.782   6.544  18.384  0.00  0.00    +0.000 C 
ATOM     18  C   UNL     1       7.691   7.866  17.623  0.00  0.00    +0.000 C 
ENDBRANCH  16  17
ENDBRANCH  12  16
ENDBRANCH   1  12
TORSDOF 5
ENDMDL
MODEL 6
REMARK VINA RESULT:      -5.9      1.350      5.105
REMARK  Name = 
REMARK  7 active torsions:
REMARK  status: ('A' for Active; 'I' for Inactive)
REMARK    1  A    between atoms: C_1  and  C_2
REMARK    2  A    between atoms: C_2  and  C_3
REMARK    3  A    between atoms: C_3  and  N_4
REMARK    4  A    between atoms: N_4  and  C_5
REMARK    5  A    between atoms: N_4  and  C_8
REMARK    6  A    between atoms: C_5  and  C_6
REMARK    7  A    between atoms: C_6  and  C_7
REMARK                            x       y       z     vdW  Elec       q    Type
REMARK                         _______ _______ _______ _____ _____    ______ ____
ROOT
ATOM      1  C   UNL     1       3.789   5.284  19.794  0.00  0.00    +0.000 C 
ATOM      2  C   UNL     1       2.857   6.494  19.526  0.00  0.00    +0.000 C 
ATOM      3  C   UNL     1       2.671   6.972  18.082  0.00  0.00    +0.000 C 
ATOM      4  C   UNL     1       3.916   7.329  17.276  0.00  0.00    +0.000 C 
ATOM      5  C   UNL     1       4.904   6.224  16.972  0.00  0.00    +0.000 A 
ATOM      6  C   UNL     1       5.208   5.923  15.629  0.00  0.00    +0.000 A 
ATOM      7  C   UNL     1       6.199   4.994  15.306  0.00  0.00    +0.000 A 
ATOM      8  C   UNL     1       6.931   4.392  16.318  0.00  0.00    +0.000 A 
ATOM      9  C   UNL     1       6.652   4.671  17.648  0.00  0.00    +0.000 A 
ATOM     10  C   UNL     1       5.607   5.563  17.986  0.00  0.00    +0.000 A 
ATOM     11  C   UNL     1       5.244   5.728  19.452  0.00  0.00    +0.000 C 
ENDROOT
BRANCH   1  12
ATOM     12  N   UNL     1       3.392   3.979  19.194  0.00  0.00    +0.000 NA
BRANCH  12  13
ATOM     13  C   UNL     1       3.368   2.878  20.178  0.00  0.00    +0.000 C 
BRANCH  13  15
ATOM     14  C   UNL     1       1.364   2.837  21.731  0.00  0.00    +0.000 C 
ATOM     15  C   UNL     1       1.973   2.289  20.446  0.00  0.00    +0.000 C 
ENDBRANCH  13  15
ENDBRANCH  12  13
BRANCH  12  16
ATOM     16  C   UNL     1       2.225   3.998  18.303  0.00  0.00    +0.000 C 
BRANCH  16  17
ATOM     17  C   UNL     1       2.366   3.399  16.895  0.00  0.00    +0.000 C 
ATOM     18  C   UNL     1       3.686   2.635  16.786  0.00  0.00    +0.000 C 
ENDBRANCH  16  17
ENDBRANCH  12  16
ENDBRANCH   1  12
TORSDOF 5
ENDMDL
MODEL 7
REMARK VINA RESULT:      -5.7      1.292      1.599
REMARK  Name = 
REMARK  7 active torsions:
REMARK  status: ('A' for Active; 'I' for Inactive)
REMARK    1  A    between atoms: C_1  and  C_2
REMARK    2  A    between atoms: C_2  and  C_3
REMARK    3  A    between atoms: C_3  and  N_4
REMARK    4  A    between atoms: N_4  and  C_5
REMARK    5  A    between atoms: N_4  and  C_8
REMARK    6  A    between atoms: C_5  and  C_6
REMARK    7  A    between atoms: C_6  and  C_7
REMARK                            x       y       z     vdW  Elec       q    Type
REMARK                         _______ _______ _______ _____ _____    ______ ____
ROOT
ATOM      1  C   UNL     1       2.748   6.150  17.807  0.00  0.00    +0.000 C 
ATOM      2  C   UNL     1       2.283   6.863  19.103  0.00  0.00    +0.000 C 
ATOM      3  C   UNL     1       2.581   6.201  20.453  0.00  0.00    +0.000 C 
ATOM      4  C   UNL     1       2.102   4.769  20.673  0.00  0.00    +0.000 C 
ATOM      5  C   UNL     1       2.698   3.681  19.806  0.00  0.00    +0.000 A 
ATOM      6  C   UNL     1       3.371   2.605  20.418  0.00  0.00    +0.000 A 
ATOM      7  C   UNL     1       3.831   1.522  19.666  0.00  0.00    +0.000 A 
ATOM      8  C   UNL     1       3.582   1.480  18.303  0.00  0.00    +0.000 A 
ATOM      9  C   UNL     1       2.921   2.526  17.676  0.00  0.00    +0.000 A 
ATOM     10  C   UNL     1       2.507   3.656  18.420  0.00  0.00    +0.000 A 
ATOM     11  C   UNL     1       1.917   4.837  17.670  0.00  0.00    +0.000 C 
ENDROOT
BRANCH   1  12
ATOM     12  N   UNL     1       4.216   5.964  17.627  0.00  0.00    +0.000 NA
BRANCH  12  13
ATOM     13  C   UNL     1       4.731   6.610  16.402  0.00  0.00    +0.000 C 
BRANCH  13  15
ATOM     14  C   UNL     1       5.248   4.246  15.646  0.00  0.00    +0.000 C 
ATOM     15  C   UNL     1       5.637   5.716  15.540  0.00  0.00    +0.000 C 
ENDBRANCH  13  15
ENDBRANCH  12  13
BRANCH  12  16
ATOM     16  C   UNL     1       5.053   6.193  18.811  0.00  0.00    +0.000 C 
BRANCH  16  17
ATOM     17  C   UNL     1       6.101   5.134  19.186  0.00  0.00    +0.000 C 
ATOM     18  C   UNL     1       7.506   5.684  18.941  0.00  0.00    +0.000 C 
ENDBRANCH  16  17
ENDBRANCH  12  16
ENDBRANCH   1  12
TORSDOF 5
ENDMDL
MODEL 8
REMARK VINA RESULT:      -5.7      1.388      2.385
REMARK  Name = 
REMARK  7 active torsions:
REMARK  status: ('A' for Active; 'I' for Inactive)
REMARK    1  A    between atoms: C_1  and  C_2
REMARK    2  A    between atoms: C_2  and  C_3
REMARK    3  A    between atoms: C_3  and  N_4
REMARK    4  A    between atoms: N_4  and  C_5
REMARK    5  A    between atoms: N_4  and  C_8
REMARK    6  A    between atoms: C_5  and  C_6
REMARK    7  A    between atoms: C_6  and  C_7
REMARK                            x       y       z     vdW  Elec       q    Type
REMARK                         _______ _______ _______ _____ _____    ______ ____
ROOT
ATOM      1  C   UNL     1       3.081   4.695  17.188  0.00  0.00    +0.000 C 
ATOM      2  C   UNL     1       3.444   6.175  17.476  0.00  0.00    +0.000 C 
ATOM      3  C   UNL     1       3.610   6.620  18.933  0.00  0.00    +0.000 C 
ATOM      4  C   UNL     1       2.455   6.369  19.898  0.00  0.00    +0.000 C 
ATOM      5  C   UNL     1       2.077   4.934  20.192  0.00  0.00    +0.000 A 
ATOM      6  C   UNL     1       2.118   4.471  21.523  0.00  0.00    +0.000 A 
ATOM      7  C   UNL     1       1.665   3.192  21.855  0.00  0.00    +0.000 A 
ATOM      8  C   UNL     1       1.122   2.381  20.871  0.00  0.00    +0.000 A 
ATOM      9  C   UNL     1       1.070   2.813  19.553  0.00  0.00    +0.000 A 
ATOM     10  C   UNL     1       1.584   4.082  19.198  0.00  0.00    +0.000 A 
ATOM     11  C   UNL     1       1.637   4.453  17.726  0.00  0.00    +0.000 C 
ENDROOT
BRANCH   1  12
ATOM     12  N   UNL     1       4.069   3.662  17.608  0.00  0.00    +0.000 NA
BRANCH  12  13
ATOM     13  C   UNL     1       3.581   2.283  17.403  0.00  0.00    +0.000 C 
BRANCH  13  15
ATOM     14  C   UNL     1       4.512   1.965  19.740  0.00  0.00    +0.000 C 
ATOM     15  C   UNL     1       4.057   1.273  18.461  0.00  0.00    +0.000 C 
ENDBRANCH  13  15
ENDBRANCH  12  13
BRANCH  12  16
ATOM     16  C   UNL     1       5.455   3.868  17.170  0.00  0.00    +0.000 C 
BRANCH  16  17
ATOM     17  C   UNL     1       5.774   3.771  15.670  0.00  0.00    +0.000 C 
ATOM     18  C   UNL     1       6.181   5.144  15.137  0.00  0.00    +0.000 C 
ENDBRANCH  16  17
ENDBRANCH  12  16
ENDBRANCH   1  12
TORSDOF 5
ENDMDL
MODEL 9
REMARK VINA RESULT:      -5.7      1.545      4.722
REMARK  Name = 
REMARK  7 active torsions:
REMARK  status: ('A' for Active; 'I' for Inactive)
REMARK    1  A    between atoms: C_1  and  C_2
REMARK    2  A    between atoms: C_2  and  C_3
REMARK    3  A    between atoms: C_3  and  N_4
REMARK    4  A    between atoms: N_4  and  C_5
REMARK    5  A    between atoms: N_4  and  C_8
REMARK    6  A    between atoms: C_5  and  C_6
REMARK    7  A    between atoms: C_6  and  C_7
REMARK                            x       y       z     vdW  Elec       q    Type
REMARK                         _______ _______ _______ _____ _____    ______ ____
ROOT
ATOM      1  C   UNL     1       3.514   5.472  19.923  0.00  0.00    +0.000 C 
ATOM      2  C   UNL     1       2.708   6.763  19.632  0.00  0.00    +0.000 C 
ATOM      3  C   UNL     1       2.546   7.216  18.177  0.00  0.00    +0.000 C 
ATOM      4  C   UNL     1       3.806   7.418  17.341  0.00  0.00    +0.000 C 
ATOM      5  C   UNL     1       4.669   6.208  17.057  0.00  0.00    +0.000 A 
ATOM      6  C   UNL     1       4.916   5.839  15.719  0.00  0.00    +0.000 A 
ATOM      7  C   UNL     1       5.800   4.803  15.410  0.00  0.00    +0.000 A 
ATOM      8  C   UNL     1       6.484   4.159  16.429  0.00  0.00    +0.000 A 
ATOM      9  C   UNL     1       6.260   4.503  17.754  0.00  0.00    +0.000 A 
ATOM     10  C   UNL     1       5.318   5.508  18.080  0.00  0.00    +0.000 A 
ATOM     11  C   UNL     1       5.001   5.752  19.545  0.00  0.00    +0.000 C 
ENDROOT
BRANCH   1  12
ATOM     12  N   UNL     1       2.974   4.198  19.369  0.00  0.00    +0.000 NA
BRANCH  12  13
ATOM     13  C   UNL     1       3.272   3.029  20.222  0.00  0.00    +0.000 C 
BRANCH  13  15
ATOM     14  C   UNL     1       3.889   1.124  18.666  0.00  0.00    +0.000 C 
ATOM     15  C   UNL     1       4.400   2.125  19.696  0.00  0.00    +0.000 C 
ENDBRANCH  13  15
ENDBRANCH  12  13
BRANCH  12  16
ATOM     16  C   UNL     1       1.590   4.233  18.881  0.00  0.00    +0.000 C 
BRANCH  16  17
ATOM     17  C   UNL     1       1.337   4.059  17.376  0.00  0.00    +0.000 C 
ATOM     18  C   UNL     1       2.534   3.365  16.725  0.00  0.00    +0.000 C 
ENDBRANCH  16  17
ENDBRANCH  12  16
ENDBRANCH   1  12
TORSDOF 5
ENDMDL
