MODEL 1
REMARK VINA RESULT:      -6.8      0.000      0.000
REMARK  Name = 
REMARK  5 active torsions:
REMARK  status: ('A' for Active; 'I' for Inactive)
REMARK    1  A    between atoms: C_1  and  C_2
REMARK    2  A    between atoms: C_2  and  O_3
REMARK    3  A    between atoms: O_3  and  C_4
REMARK    4  A    between atoms: C_4  and  C_6
REMARK    5  A    between atoms: C_8  and  C_9
REMARK                            x       y       z     vdW  Elec       q    Type
REMARK                         _______ _______ _______ _____ _____    ______ ____
ROOT
ATOM      1  C   UNL     1       5.969   4.456  17.443  0.00  0.00    +0.000 A 
ATOM      2  N   UNL     1       5.373   4.270  18.608  0.00  0.00    +0.000 NA
ATOM      3  C   UNL     1       4.083   3.799  18.412  0.00  0.00    +0.000 A 
ATOM      4  C   UNL     1       3.710   3.673  17.087  0.00  0.00    +0.000 A 
ATOM      5  S   UNL     1       5.001   4.141  16.060  0.00  0.00    +0.000 S 
ENDROOT
BRANCH   3   6
ATOM      6  C   UNL     1       3.212   3.500  19.536  0.00  0.00    +0.000 A 
ATOM      7  C   UNL     1       1.882   3.929  19.536  0.00  0.00    +0.000 A 
ATOM      8  C   UNL     1       1.044   3.594  20.598  0.00  0.00    +0.000 A 
ATOM      9  C   UNL     1       1.568   2.850  21.641  0.00  0.00    +0.000 A 
ATOM     10  N   UNL     1       2.852   2.438  21.696  0.00  0.00    +0.000 NA
ATOM     11  C   UNL     1       3.642   2.778  20.647  0.00  0.00    +0.000 A 
ENDBRANCH   3   6
BRANCH   1  12
ATOM     12  C   UNL     1       7.371   4.809  17.276  0.00  0.00    +0.000 C 
ATOM     13  O   UNL     1       8.334   4.203  17.739  0.00  0.00    +0.000 OA
BRANCH  12  14
ATOM     14  O   UNL     1       7.472   5.993  16.596  0.00  0.00    +0.000 OA
BRANCH  14  16
ATOM     15  C   UNL     1       8.013   7.895  17.937  0.00  0.00    +0.000 C 
ATOM     16  C   UNL     1       6.895   7.128  17.252  0.00  0.00    +0.000 C 
ENDBRANCH  14  16
ENDBRANCH  12  14
ENDBRANCH   1  12
TORSDOF 4
ENDMDL
MODEL 2
REMARK VINA RESULT:      -6.6      2.640      3.378
REMARK  Name = 
REMARK  5 active torsions:
REMARK  status: ('A' for Active; 'I' for Inactive)
REMARK    1  A    between atoms: C_1  and  C_2
REMARK    2  A    between atoms: C_2  and  O_3
REMARK    3  A    between atoms: O_3  and  C_4
REMARK    4  A    between atoms: C_4  and  C_6
REMARK    5  A    between atoms: C_8  and  C_9
REMARK                            x       y       z     vdW  Elec       q    Type
REMARK                         _______ _______ _______ _____ _____    ______ ____
ROOT
ATOM      1  C   UNL     1       6.006   4.427  16.271  0.00  0.00    +0.000 A 
ATOM      2  N   UNL     1       4.776   4.026  16.539  0.00  0.00    +0.000 NA
ATOM      3  C   UNL     1       4.550   4.067  17.907  0.00  0.00    +0.000 A 
ATOM      4  C   UNL     1       5.638   4.465  18.659  0.00  0.00    +0.000 A 
ATOM      5  S   UNL     1       6.972   4.808  17.638  0.00  0.00    +0.000 S 
ENDROOT
BRANCH   3   6
ATOM      6  C   UNL     1       3.265   3.685  18.469  0.00  0.00    +0.000 A 
ATOM      7  C   UNL     1       2.840   4.217  19.689  0.00  0.00    +0.000 A 
ATOM      8  C   UNL     1       1.585   3.880  20.194  0.00  0.00    +0.000 A 
ATOM      9  C   UNL     1       0.795   3.006  19.466  0.00  0.00    +0.000 A 
ATOM     10  N   UNL     1       1.176   2.449  18.298  0.00  0.00    +0.000 NA
ATOM     11  C   UNL     1       2.402   2.797  17.832  0.00  0.00    +0.000 A 
ENDBRANCH   3   6
BRANCH   1  12
ATOM     12  C   UNL     1       6.534   4.642  14.932  0.00  0.00    +0.000 C 
ATOM     13  O   UNL     1       7.566   5.244  14.644  0.00  0.00    +0.000 OA
BRANCH  12  14
ATOM     14  O   UNL     1       5.655   4.152  14.004  0.00  0.00    +0.000 OA
BRANCH  14  16
ATOM     15  C   UNL     1       5.134   3.182  11.884  0.00  0.00    +0.000 C 
ATOM     16  C   UNL     1       6.251   3.616  12.817  0.00  0.00    +0.000 C 
ENDBRANCH  14  16
ENDBRANCH  12  14
ENDBRANCH   1  12
TORSDOF 4
ENDMDL
MODEL 3
REMARK VINA RESULT:      -6.4      2.553      3.290
REMARK  Name = 
REMARK  5 active torsions:
REMARK  status: ('A' for Active; 'I' for Inactive)
REMARK    1  A    between atoms: C_1  and  C_2
REMARK    2  A    between atoms: C_2  and  O_3
REMARK    3  A    between atoms: O_3  and  C_4
REMARK    4  A    between atoms: C_4  and  C_6
REMARK    5  A    between atoms: C_8  and  C_9
REMARK                            x       y       z     vdW  Elec       q    Type
REMARK                         _______ _______ _______ _____ _____    ______ ____
ROOT
ATOM      1  C   UNL     1       6.209   4.683  16.118  0.00  0.00    +0.000 A 
ATOM      2  N   UNL     1       5.150   3.994  16.506  0.00  0.00    +0.000 NA
ATOM      3  C   UNL     1       4.761   4.395  17.775  0.00  0.00    +0.000 A 
ATOM      4  C   UNL     1       5.566   5.362  18.346  0.00  0.00    +0.000 A 
ATOM      5  S   UNL     1       6.831   5.792  17.271  0.00  0.00    +0.000 S 
ENDROOT
BRANCH   3   6
ATOM      6  C   UNL     1       3.610   3.800  18.433  0.00  0.00    +0.000 A 
ATOM      7  C   UNL     1       2.373   3.748  17.785  0.00  0.00    +0.000 A 
ATOM      8  C   UNL     1       1.288   3.132  18.408  0.00  0.00    +0.000 A 
ATOM      9  C   UNL     1       1.471   2.596  19.671  0.00  0.00    +0.000 A 
ATOM     10  N   UNL     1       2.640   2.647  20.344  0.00  0.00    +0.000 NA
ATOM     11  C   UNL     1       3.677   3.252  19.711  0.00  0.00    +0.000 A 
ENDBRANCH   3   6
BRANCH   1  12
ATOM     12  C   UNL     1       6.796   4.621  14.788  0.00  0.00    +0.000 C 
ATOM     13  O   UNL     1       7.664   5.365  14.339  0.00  0.00    +0.000 OA
BRANCH  12  14
ATOM     14  O   UNL     1       6.167   3.653  14.050  0.00  0.00    +0.000 OA
BRANCH  14  16
ATOM     15  C   UNL     1       5.174   3.170  11.931  0.00  0.00    +0.000 C 
ATOM     16  C   UNL     1       6.406   3.707  12.638  0.00  0.00    +0.000 C 
ENDBRANCH  14  16
ENDBRANCH  12  14
ENDBRANCH   1  12
TORSDOF 4
ENDMDL
MODEL 4
REMARK VINA RESULT:      -6.4      1.126      1.173
REMARK  Name = 
REMARK  5 active torsions:
REMARK  status: ('A' for Active; 'I' for Inactive)
REMARK    1  A    between atoms: C_1  and  C_2
REMARK    2  A    between atoms: C_2  and  O_3
REMARK    3  A    between atoms: O_3  and  C_4
REMARK    4  A    between atoms: C_4  and  C_6
REMARK    5  A    between atoms: C_8  and  C_9
REMARK                            x       y       z     vdW  Elec       q    Type
REMARK                         _______ _______ _______ _____ _____    ______ ____
ROOT
ATOM      1  C   UNL     1       5.848   5.522  17.476  0.00  0.00    +0.000 A 
ATOM      2  N   UNL     1       5.335   4.768  18.433  0.00  0.00    +0.000 NA
ATOM      3  C   UNL     1       3.969   4.985  18.528  0.00  0.00    +0.000 A 
ATOM      4  C   UNL     1       3.474   5.938  17.658  0.00  0.00    +0.000 A 
ATOM      5  S   UNL     1       4.740   6.571  16.690  0.00  0.00    +0.000 S 
ENDROOT
BRANCH   3   6
ATOM      6  C   UNL     1       3.159   4.268  19.498  0.00  0.00    +0.000 A 
ATOM      7  C   UNL     1       1.821   4.617  19.701  0.00  0.00    +0.000 A 
ATOM      8  C   UNL     1       1.041   3.891  20.599  0.00  0.00    +0.000 A 
ATOM      9  C   UNL     1       1.630   2.840  21.282  0.00  0.00    +0.000 A 
ATOM     10  N   UNL     1       2.924   2.485  21.137  0.00  0.00    +0.000 NA
ATOM     11  C   UNL     1       3.656   3.210  20.255  0.00  0.00    +0.000 A 
ENDBRANCH   3   6
BRANCH   1  12
ATOM     12  C   UNL     1       7.225   5.447  17.010  0.00  0.00    +0.000 C 
ATOM     13  O   UNL     1       7.875   4.422  16.822  0.00  0.00    +0.000 OA
BRANCH  12  14
ATOM     14  O   UNL     1       7.744   6.709  16.898  0.00  0.00    +0.000 OA
BRANCH  14  16
ATOM     15  C   UNL     1       8.052   8.875  17.859  0.00  0.00    +0.000 C 
ATOM     16  C   UNL     1       7.990   7.383  18.137  0.00  0.00    +0.000 C 
ENDBRANCH  14  16
ENDBRANCH  12  14
ENDBRANCH   1  12
TORSDOF 4
ENDMDL
MODEL 5
REMARK VINA RESULT:      -6.4      1.117      1.206
REMARK  Name = 
REMARK  5 active torsions:
REMARK  status: ('A' for Active; 'I' for Inactive)
REMARK    1  A    between atoms: C_1  and  C_2
REMARK    2  A    between atoms: C_2  and  O_3
REMARK    3  A    between atoms: O_3  and  C_4
REMARK    4  A    between atoms: C_4  and  C_6
REMARK    5  A    between atoms: C_8  and  C_9
REMARK                            x       y       z     vdW  Elec       q    Type
REMARK                         _______ _______ _______ _____ _____    ______ ____
ROOT
ATOM      1  C   UNL     1       6.202   4.624  17.666  0.00  0.00    +0.000 A 
ATOM      2  N   UNL     1       5.280   4.492  18.603  0.00  0.00    +0.000 NA
ATOM      3  C   UNL     1       4.080   4.088  18.036  0.00  0.00    +0.000 A 
ATOM      4  C   UNL     1       4.107   3.959  16.661  0.00  0.00    +0.000 A 
ATOM      5  S   UNL     1       5.668   4.337  16.060  0.00  0.00    +0.000 S 
ENDROOT
BRANCH   3   6
ATOM      6  C   UNL     1       2.901   3.857  18.854  0.00  0.00    +0.000 A 
ATOM      7  C   UNL     1       1.908   2.969  18.431  0.00  0.00    +0.000 A 
ATOM      8  C   UNL     1       0.805   2.720  19.247  0.00  0.00    +0.000 A 
ATOM      9  C   UNL     1       0.722   3.380  20.461  0.00  0.00    +0.000 A 
ATOM     10  N   UNL     1       1.644   4.264  20.897  0.00  0.00    +0.000 NA
ATOM     11  C   UNL     1       2.705   4.485  20.082  0.00  0.00    +0.000 A 
ENDBRANCH   3   6
BRANCH   1  12
ATOM     12  C   UNL     1       7.608   4.898  17.920  0.00  0.00    +0.000 C 
ATOM     13  O   UNL     1       8.535   4.098  17.821  0.00  0.00    +0.000 OA
BRANCH  12  14
ATOM     14  O   UNL     1       7.753   6.176  18.390  0.00  0.00    +0.000 OA
BRANCH  14  16
ATOM     15  C   UNL     1       8.088   8.494  17.920  0.00  0.00    +0.000 C 
ATOM     16  C   UNL     1       7.415   7.213  17.462  0.00  0.00    +0.000 C 
ENDBRANCH  14  16
ENDBRANCH  12  14
ENDBRANCH   1  12
TORSDOF 4
ENDMDL
MODEL 6
REMARK VINA RESULT:      -6.4      2.386      2.933
REMARK  Name = 
REMARK  5 active torsions:
REMARK  status: ('A' for Active; 'I' for Inactive)
REMARK    1  A    between atoms: C_1  and  C_2
REMARK    2  A    between atoms: C_2  and  O_3
REMARK    3  A    between atoms: O_3  and  C_4
REMARK    4  A    between atoms: C_4  and  C_6
REMARK    5  A    between atoms: C_8  and  C_9
REMARK                            x       y       z     vdW  Elec       q    Type
REMARK                         _______ _______ _______ _____ _____    ______ ____
ROOT
ATOM      1  C   UNL     1       5.547   4.809  16.666  0.00  0.00    +0.000 A 
ATOM      2  N   UNL     1       4.723   4.041  17.356  0.00  0.00    +0.000 NA
ATOM      3  C   UNL     1       3.682   4.800  17.869  0.00  0.00    +0.000 A 
ATOM      4  C   UNL     1       3.761   6.151  17.586  0.00  0.00    +0.000 A 
ATOM      5  S   UNL     1       5.158   6.481  16.649  0.00  0.00    +0.000 S 
ENDROOT
BRANCH   3   6
ATOM      6  C   UNL     1       2.626   4.193  18.661  0.00  0.00    +0.000 A 
ATOM      7  C   UNL     1       2.268   4.734  19.899  0.00  0.00    +0.000 A 
ATOM      8  C   UNL     1       1.221   4.171  20.626  0.00  0.00    +0.000 A 
ATOM      9  C   UNL     1       0.569   3.069  20.097  0.00  0.00    +0.000 A 
ATOM     10  N   UNL     1       0.899   2.499  18.919  0.00  0.00    +0.000 NA
ATOM     11  C   UNL     1       1.921   3.070  18.235  0.00  0.00    +0.000 A 
ENDBRANCH   3   6
BRANCH   1  12
ATOM     12  C   UNL     1       6.668   4.322  15.875  0.00  0.00    +0.000 C 
ATOM     13  O   UNL     1       7.858   4.551  16.079  0.00  0.00    +0.000 OA
BRANCH  12  14
ATOM     14  O   UNL     1       6.201   3.633  14.788  0.00  0.00    +0.000 OA
BRANCH  14  16
ATOM     15  C   UNL     1       5.856   3.366  12.439  0.00  0.00    +0.000 C 
ATOM     16  C   UNL     1       6.522   4.206  13.515  0.00  0.00    +0.000 C 
ENDBRANCH  14  16
ENDBRANCH  12  14
ENDBRANCH   1  12
TORSDOF 4
ENDMDL
MODEL 7
REMARK VINA RESULT:      -6.4      1.811      2.310
REMARK  Name = 
REMARK  5 active torsions:
REMARK  status: ('A' for Active; 'I' for Inactive)
REMARK    1  A    between atoms: C_1  and  C_2
REMARK    2  A    between atoms: C_2  and  O_3
REMARK    3  A    between atoms: O_3  and  C_4
REMARK    4  A    between atoms: C_4  and  C_6
REMARK    5  A    between atoms: C_8  and  C_9
REMARK                            x       y       z     vdW  Elec       q    Type
REMARK                         _______ _______ _______ _____ _____    ______ ____
ROOT
ATOM      1  C   UNL     1       5.850   5.295  17.213  0.00  0.00    +0.000 A 
ATOM      2  N   UNL     1       5.094   4.465  17.909  0.00  0.00    +0.000 NA
ATOM      3  C   UNL     1       3.890   5.074  18.229  0.00  0.00    +0.000 A 
ATOM      4  C   UNL     1       3.773   6.382  17.797  0.00  0.00    +0.000 A 
ATOM      5  S   UNL     1       5.192   6.860  16.962  0.00  0.00    +0.000 S 
ENDROOT
BRANCH   3   6
ATOM      6  C   UNL     1       2.867   4.371  18.985  0.00  0.00    +0.000 A 
ATOM      7  C   UNL     1       1.964   3.523  18.338  0.00  0.00    +0.000 A 
ATOM      8  C   UNL     1       1.019   2.817  19.080  0.00  0.00    +0.000 A 
ATOM      9  C   UNL     1       0.997   2.992  20.454  0.00  0.00    +0.000 A 
ATOM     10  N   UNL     1       1.832   3.819  21.117  0.00  0.00    +0.000 NA
ATOM     11  C   UNL     1       2.741   4.491  20.367  0.00  0.00    +0.000 A 
ENDBRANCH   3   6
BRANCH   1  12
ATOM     12  C   UNL     1       7.119   4.938  16.594  0.00  0.00    +0.000 C 
ATOM     13  O   UNL     1       8.005   4.250  17.094  0.00  0.00    +0.000 OA
BRANCH  12  14
ATOM     14  O   UNL     1       7.235   5.568  15.384  0.00  0.00    +0.000 OA
BRANCH  14  16
ATOM     15  C   UNL     1       5.840   4.157  14.053  0.00  0.00    +0.000 C 
ATOM     16  C   UNL     1       7.244   4.704  14.241  0.00  0.00    +0.000 C 
ENDBRANCH  14  16
ENDBRANCH  12  14
ENDBRANCH   1  12
TORSDOF 4
ENDMDL
MODEL 8
REMARK VINA RESULT:      -6.4      1.283      1.361
REMARK  Name = 
REMARK  5 active torsions:
REMARK  status: ('A' for Active; 'I' for Inactive)
REMARK    1  A    between atoms: C_1  and  C_2
REMARK    2  A    between atoms: C_2  and  O_3
REMARK    3  A    between atoms: O_3  and  C_4
REMARK    4  A    between atoms: C_4  and  C_6
REMARK    5  A    between atoms: C_8  and  C_9
REMARK                            x       y       z     vdW  Elec       q    Type
REMARK                         _______ _______ _______ _____ _____    ______ ____
ROOT
ATOM      1  C   UNL     1       6.241   4.564  17.653  0.00  0.00    +0.000 A 
ATOM      2  N   UNL     1       5.302   4.437  18.573  0.00  0.00    +0.000 NA
ATOM      3  C   UNL     1       4.122   3.997  17.991  0.00  0.00    +0.000 A 
ATOM      4  C   UNL     1       4.181   3.836  16.620  0.00  0.00    +0.000 A 
ATOM      5  S   UNL     1       5.747   4.230  16.043  0.00  0.00    +0.000 S 
ENDROOT
BRANCH   3   6
ATOM      6  C   UNL     1       2.930   3.764  18.789  0.00  0.00    +0.000 A 
ATOM      7  C   UNL     1       2.674   4.538  19.924  0.00  0.00    +0.000 A 
ATOM      8  C   UNL     1       1.503   4.337  20.653  0.00  0.00    +0.000 A 
ATOM      9  C   UNL     1       0.626   3.352  20.231  0.00  0.00    +0.000 A 
ATOM     10  N   UNL     1       0.846   2.563  19.157  0.00  0.00    +0.000 NA
ATOM     11  C   UNL     1       1.993   2.785  18.468  0.00  0.00    +0.000 A 
ENDBRANCH   3   6
BRANCH   1  12
ATOM     12  C   UNL     1       7.637   4.870  17.930  0.00  0.00    +0.000 C 
ATOM     13  O   UNL     1       8.582   4.090  17.854  0.00  0.00    +0.000 OA
BRANCH  12  14
ATOM     14  O   UNL     1       7.745   6.155  18.392  0.00  0.00    +0.000 OA
BRANCH  14  16
ATOM     15  C   UNL     1       8.090   8.458  17.858  0.00  0.00    +0.000 C 
ATOM     16  C   UNL     1       7.383   7.176  17.455  0.00  0.00    +0.000 C 
ENDBRANCH  14  16
ENDBRANCH  12  14
ENDBRANCH   1  12
TORSDOF 4
ENDMDL
MODEL 9
REMARK VINA RESULT:      -6.3      2.627      3.300
REMARK  Name = 
REMARK  5 active torsions:
REMARK  status: ('A' for Active; 'I' for Inactive)
REMARK    1  A    between atoms: C_1  and  C_2
REMARK    2  A    between atoms: C_2  and  O_3
REMARK    3  A    between atoms: O_3  and  C_4
REMARK    4  A    between atoms: C_4  and  C_6
REMARK    5  A    between atoms: C_8  and  C_9
REMARK                            x       y       z     vdW  Elec       q    Type
REMARK                         _______ _______ _______ _____ _____    ______ ____
ROOT
ATOM      1  C   UNL     1       5.326   5.130  16.206  0.00  0.00    +0.000 A 
ATOM      2  N   UNL     1       4.474   4.320  16.810  0.00  0.00    +0.000 NA
ATOM      3  C   UNL     1       3.689   5.037  17.701  0.00  0.00    +0.000 A 
ATOM      4  C   UNL     1       3.992   6.383  17.783  0.00  0.00    +0.000 A 
ATOM      5  S   UNL     1       5.278   6.768  16.716  0.00  0.00    +0.000 S 
ENDROOT
BRANCH   3   6
ATOM      6  C   UNL     1       2.658   4.384  18.490  0.00  0.00    +0.000 A 
ATOM      7  C   UNL     1       1.953   3.295  17.972  0.00  0.00    +0.000 A 
ATOM      8  C   UNL     1       1.000   2.646  18.756  0.00  0.00    +0.000 A 
ATOM      9  C   UNL     1       0.771   3.119  20.038  0.00  0.00    +0.000 A 
ATOM     10  N   UNL     1       1.410   4.183  20.569  0.00  0.00    +0.000 NA
ATOM     11  C   UNL     1       2.331   4.791  19.781  0.00  0.00    +0.000 A 
ENDBRANCH   3   6
BRANCH   1  12
ATOM     12  C   UNL     1       6.203   4.741  15.110  0.00  0.00    +0.000 C 
ATOM     13  O   UNL     1       7.421   4.892  15.064  0.00  0.00    +0.000 OA
BRANCH  12  14
ATOM     14  O   UNL     1       5.455   4.258  14.070  0.00  0.00    +0.000 OA
BRANCH  14  16
ATOM     15  C   UNL     1       5.214   3.124  11.981  0.00  0.00    +0.000 C 
ATOM     16  C   UNL     1       6.198   3.610  13.030  0.00  0.00    +0.000 C 
ENDBRANCH  14  16
ENDBRANCH  12  14
ENDBRANCH   1  12
TORSDOF 4
ENDMDL
