MODEL 1
REMARK VINA RESULT:      -6.6      0.000      0.000
REMARK  Name = 
REMARK  5 active torsions:
REMARK  status: ('A' for Active; 'I' for Inactive)
REMARK    1  A    between atoms: C_1  and  O_2
REMARK    2  A    between atoms: O_2  and  C_3
REMARK    3  A    between atoms: C_6  and  N_7
REMARK    4  A    between atoms: C_11  and  C_13
REMARK    5  A    between atoms: C_14  and  C_15
REMARK                            x       y       z     vdW  Elec       q    Type
REMARK                         _______ _______ _______ _____ _____    ______ ____
ROOT
ATOM      1  N   UNL     1       2.176   7.244  19.947  0.00  0.00    +0.000 N 
ATOM      2  C   UNL     1       2.325   5.965  20.664  0.00  0.00    +0.000 C 
ATOM      3  C   UNL     1       1.931   4.783  19.756  0.00  0.00    +0.000 C 
ATOM      4  N   UNL     1       2.630   4.826  18.459  0.00  0.00    +0.000 N 
ATOM      5  C   UNL     1       3.349   3.718  18.041  0.00  0.00    +0.000 C 
ATOM      6  O   UNL     1       3.427   2.686  18.704  0.00  0.00    +0.000 OA
ATOM      7  C   UNL     1       2.464   6.113  17.760  0.00  0.00    +0.000 C 
ATOM      8  C   UNL     1       2.872   7.312  18.649  0.00  0.00    +0.000 C 
ENDROOT
BRANCH   1  12
ATOM      9  C   UNL     1      -0.304  10.372  21.345  0.00  0.00    +0.000 A 
ATOM     10  C   UNL     1      -0.030   9.268  22.147  0.00  0.00    +0.000 A 
ATOM     11  C   UNL     1       0.803   8.240  21.688  0.00  0.00    +0.000 A 
ATOM     12  C   UNL     1       1.363   8.262  20.403  0.00  0.00    +0.000 A 
ATOM     13  C   UNL     1       1.047   9.374  19.606  0.00  0.00    +0.000 A 
ATOM     14  C   UNL     1       0.227  10.417  20.063  0.00  0.00    +0.000 A 
BRANCH   9  16
ATOM     15  C   UNL     1      -1.619  12.308  21.015  0.00  0.00    +0.000 C 
ATOM     16  O   UNL     1      -1.117  11.316  21.904  0.00  0.00    +0.000 OA
ENDBRANCH   9  16
ENDBRANCH   1  12
BRANCH   5  17
ATOM     17  C   UNL     1       4.074   3.807  16.742  0.00  0.00    +0.000 C 
ATOM     18  C   UNL     1       5.293   4.360  16.679  0.00  0.00    +0.000 C 
BRANCH  18  19
ATOM     19  C   UNL     1       5.983   4.468  15.432  0.00  0.00    +0.000 A 
ATOM     20  C   UNL     1       5.692   3.880  14.203  0.00  0.00    +0.000 A 
ATOM     21  C   UNL     1       6.675   4.293  13.269  0.00  0.00    +0.000 A 
ATOM     22  C   UNL     1       7.529   5.106  13.967  0.00  0.00    +0.000 A 
ATOM     23  O   UNL     1       7.131   5.216  15.257  0.00  0.00    +0.000 OA
ENDBRANCH  18  19
ENDBRANCH   5  17
TORSDOF 4
ENDMDL
MODEL 2
REMARK VINA RESULT:      -6.6      0.211      1.012
REMARK  Name = 
REMARK  5 active torsions:
REMARK  status: ('A' for Active; 'I' for Inactive)
REMARK    1  A    between atoms: C_1  and  O_2
REMARK    2  A    between atoms: O_2  and  C_3
REMARK    3  A    between atoms: C_6  and  N_7
REMARK    4  A    between atoms: C_11  and  C_13
REMARK    5  A    between atoms: C_14  and  C_15
REMARK                            x       y       z     vdW  Elec       q    Type
REMARK                         _______ _______ _______ _____ _____    ______ ____
ROOT
ATOM      1  N   UNL     1       2.149   7.367  20.009  0.00  0.00    +0.000 N 
ATOM      2  C   UNL     1       2.331   6.114  20.764  0.00  0.00    +0.000 C 
ATOM      3  C   UNL     1       1.949   4.897  19.898  0.00  0.00    +0.000 C 
ATOM      4  N   UNL     1       2.631   4.913  18.592  0.00  0.00    +0.000 N 
ATOM      5  C   UNL     1       3.365   3.805  18.199  0.00  0.00    +0.000 C 
ATOM      6  O   UNL     1       3.471   2.797  18.893  0.00  0.00    +0.000 OA
ATOM      7  C   UNL     1       2.432   6.174  17.855  0.00  0.00    +0.000 C 
ATOM      8  C   UNL     1       2.828   7.407  18.701  0.00  0.00    +0.000 C 
ENDROOT
BRANCH   1  12
ATOM      9  C   UNL     1      -0.394  10.472  21.344  0.00  0.00    +0.000 A 
ATOM     10  C   UNL     1       0.028  10.418  20.018  0.00  0.00    +0.000 A 
ATOM     11  C   UNL     1       0.859   9.381  19.575  0.00  0.00    +0.000 A 
ATOM     12  C   UNL     1       1.323   8.384  20.444  0.00  0.00    +0.000 A 
ATOM     13  C   UNL     1       0.903   8.479  21.780  0.00  0.00    +0.000 A 
ATOM     14  C   UNL     1       0.057   9.504  22.231  0.00  0.00    +0.000 A 
BRANCH   9  16
ATOM     15  C   UNL     1      -1.215  12.601  20.731  0.00  0.00    +0.000 C 
ATOM     16  O   UNL     1      -1.212  11.520  21.656  0.00  0.00    +0.000 OA
ENDBRANCH   9  16
ENDBRANCH   1  12
BRANCH   5  17
ATOM     17  C   UNL     1       4.072   3.867  16.889  0.00  0.00    +0.000 C 
ATOM     18  C   UNL     1       5.285   4.430  16.795  0.00  0.00    +0.000 C 
BRANCH  18  19
ATOM     19  C   UNL     1       5.958   4.512  15.537  0.00  0.00    +0.000 A 
ATOM     20  C   UNL     1       5.645   3.906  14.322  0.00  0.00    +0.000 A 
ATOM     21  C   UNL     1       6.616   4.296  13.367  0.00  0.00    +0.000 A 
ATOM     22  C   UNL     1       7.487   5.113  14.039  0.00  0.00    +0.000 A 
ATOM     23  O   UNL     1       7.108   5.249  15.333  0.00  0.00    +0.000 OA
ENDBRANCH  18  19
ENDBRANCH   5  17
TORSDOF 4
ENDMDL
MODEL 3
REMARK VINA RESULT:      -6.5      1.713      2.332
REMARK  Name = 
REMARK  5 active torsions:
REMARK  status: ('A' for Active; 'I' for Inactive)
REMARK    1  A    between atoms: C_1  and  O_2
REMARK    2  A    between atoms: O_2  and  C_3
REMARK    3  A    between atoms: C_6  and  N_7
REMARK    4  A    between atoms: C_11  and  C_13
REMARK    5  A    between atoms: C_14  and  C_15
REMARK                            x       y       z     vdW  Elec       q    Type
REMARK                         _______ _______ _______ _____ _____    ______ ____
ROOT
ATOM      1  N   UNL     1       1.217   9.440  19.313  0.00  0.00    +0.000 N 
ATOM      2  C   UNL     1       1.648   8.590  20.438  0.00  0.00    +0.000 C 
ATOM      3  C   UNL     1       1.779   7.121  19.990  0.00  0.00    +0.000 C 
ATOM      4  N   UNL     1       2.613   6.984  18.783  0.00  0.00    +0.000 N 
ATOM      5  C   UNL     1       3.694   6.117  18.802  0.00  0.00    +0.000 C 
ATOM      6  O   UNL     1       3.990   5.445  19.787  0.00  0.00    +0.000 OA
ATOM      7  C   UNL     1       2.161   7.841  17.672  0.00  0.00    +0.000 C 
ATOM      8  C   UNL     1       2.040   9.324  18.096  0.00  0.00    +0.000 C 
ENDROOT
BRANCH   1  12
ATOM      9  C   UNL     1      -2.292  11.798  19.440  0.00  0.00    +0.000 A 
ATOM     10  C   UNL     1      -1.394  11.801  20.503  0.00  0.00    +0.000 A 
ATOM     11  C   UNL     1      -0.225  11.030  20.453  0.00  0.00    +0.000 A 
ATOM     12  C   UNL     1       0.070  10.207  19.358  0.00  0.00    +0.000 A 
ATOM     13  C   UNL     1      -0.867  10.203  18.313  0.00  0.00    +0.000 A 
ATOM     14  C   UNL     1      -2.033  10.984  18.345  0.00  0.00    +0.000 A 
BRANCH   9  16
ATOM     15  C   UNL     1      -3.841  12.776  20.933  0.00  0.00    +0.000 C 
ATOM     16  O   UNL     1      -3.388  12.598  19.596  0.00  0.00    +0.000 OA
ENDBRANCH   9  16
ENDBRANCH   1  12
BRANCH   5  17
ATOM     17  C   UNL     1       4.539   6.028  17.578  0.00  0.00    +0.000 C 
ATOM     18  C   UNL     1       4.684   4.861  16.934  0.00  0.00    +0.000 C 
BRANCH  18  19
ATOM     19  C   UNL     1       5.511   4.766  15.772  0.00  0.00    +0.000 A 
ATOM     20  C   UNL     1       5.398   3.924  14.668  0.00  0.00    +0.000 A 
ATOM     21  C   UNL     1       6.463   4.211  13.779  0.00  0.00    +0.000 A 
ATOM     22  C   UNL     1       7.188   5.206  14.379  0.00  0.00    +0.000 A 
ATOM     23  O   UNL     1       6.634   5.545  15.569  0.00  0.00    +0.000 OA
ENDBRANCH  18  19
ENDBRANCH   5  17
TORSDOF 4
ENDMDL
MODEL 4
REMARK VINA RESULT:      -6.5      0.943      1.489
REMARK  Name = 
REMARK  5 active torsions:
REMARK  status: ('A' for Active; 'I' for Inactive)
REMARK    1  A    between atoms: C_1  and  O_2
REMARK    2  A    between atoms: O_2  and  C_3
REMARK    3  A    between atoms: C_6  and  N_7
REMARK    4  A    between atoms: C_11  and  C_13
REMARK    5  A    between atoms: C_14  and  C_15
REMARK                            x       y       z     vdW  Elec       q    Type
REMARK                         _______ _______ _______ _____ _____    ______ ____
ROOT
ATOM      1  N   UNL     1       2.694   6.895  19.484  0.00  0.00    +0.000 N 
ATOM      2  C   UNL     1       2.594   5.496  19.941  0.00  0.00    +0.000 C 
ATOM      3  C   UNL     1       2.443   4.541  18.740  0.00  0.00    +0.000 C 
ATOM      4  N   UNL     1       3.485   4.765  17.723  0.00  0.00    +0.000 N 
ATOM      5  C   UNL     1       4.262   3.697  17.302  0.00  0.00    +0.000 C 
ATOM      6  O   UNL     1       4.117   2.558  17.739  0.00  0.00    +0.000 OA
ATOM      7  C   UNL     1       3.563   6.169  17.280  0.00  0.00    +0.000 C 
ATOM      8  C   UNL     1       3.733   7.143  18.470  0.00  0.00    +0.000 C 
ENDROOT
BRANCH   1  12
ATOM      9  C   UNL     1      -0.014   9.890  20.744  0.00  0.00    +0.000 A 
ATOM     10  C   UNL     1       0.593   9.959  19.494  0.00  0.00    +0.000 A 
ATOM     11  C   UNL     1       1.479   8.959  19.073  0.00  0.00    +0.000 A 
ATOM     12  C   UNL     1       1.813   7.875  19.896  0.00  0.00    +0.000 A 
ATOM     13  C   UNL     1       1.207   7.845  21.161  0.00  0.00    +0.000 A 
ATOM     14  C   UNL     1       0.305   8.833  21.586  0.00  0.00    +0.000 A 
BRANCH   9  16
ATOM     15  C   UNL     1      -0.917  11.973  20.092  0.00  0.00    +0.000 C 
ATOM     16  O   UNL     1      -0.869  10.913  21.040  0.00  0.00    +0.000 OA
ENDBRANCH   9  16
ENDBRANCH   1  12
BRANCH   5  17
ATOM     17  C   UNL     1       5.330   3.964  16.299  0.00  0.00    +0.000 C 
ATOM     18  C   UNL     1       5.029   4.073  14.997  0.00  0.00    +0.000 C 
BRANCH  18  19
ATOM     19  C   UNL     1       6.053   4.307  14.028  0.00  0.00    +0.000 A 
ATOM     20  C   UNL     1       6.275   3.682  12.802  0.00  0.00    +0.000 A 
ATOM     21  C   UNL     1       7.420   4.266  12.206  0.00  0.00    +0.000 A 
ATOM     22  C   UNL     1       7.856   5.212  13.095  0.00  0.00    +0.000 A 
ATOM     23  O   UNL     1       7.054   5.245  14.186  0.00  0.00    +0.000 OA
ENDBRANCH  18  19
ENDBRANCH   5  17
TORSDOF 4
ENDMDL
MODEL 5
REMARK VINA RESULT:      -6.5      2.873     10.048
REMARK  Name = 
REMARK  5 active torsions:
REMARK  status: ('A' for Active; 'I' for Inactive)
REMARK    1  A    between atoms: C_1  and  O_2
REMARK    2  A    between atoms: O_2  and  C_3
REMARK    3  A    between atoms: C_6  and  N_7
REMARK    4  A    between atoms: C_11  and  C_13
REMARK    5  A    between atoms: C_14  and  C_15
REMARK                            x       y       z     vdW  Elec       q    Type
REMARK                         _______ _______ _______ _____ _____    ______ ____
ROOT
ATOM      1  N   UNL     1       1.744   8.316  19.729  0.00  0.00    +0.000 N 
ATOM      2  C   UNL     1       1.699   9.329  18.659  0.00  0.00    +0.000 C 
ATOM      3  C   UNL     1       0.273   9.894  18.504  0.00  0.00    +0.000 C 
ATOM      4  N   UNL     1      -0.280  10.357  19.789  0.00  0.00    +0.000 N 
ATOM      5  C   UNL     1      -0.765  11.651  19.891  0.00  0.00    +0.000 C 
ATOM      6  O   UNL     1      -0.762  12.438  18.947  0.00  0.00    +0.000 OA
ATOM      7  C   UNL     1      -0.227   9.326  20.842  0.00  0.00    +0.000 C 
ATOM      8  C   UNL     1       1.200   8.758  21.026  0.00  0.00    +0.000 C 
ENDROOT
BRANCH   1  12
ATOM      9  C   UNL     1       3.041   4.345  19.063  0.00  0.00    +0.000 A 
ATOM     10  C   UNL     1       3.265   5.337  18.112  0.00  0.00    +0.000 A 
ATOM     11  C   UNL     1       2.847   6.654  18.340  0.00  0.00    +0.000 A 
ATOM     12  C   UNL     1       2.164   7.020  19.508  0.00  0.00    +0.000 A 
ATOM     13  C   UNL     1       1.928   5.994  20.438  0.00  0.00    +0.000 A 
ATOM     14  C   UNL     1       2.358   4.675  20.226  0.00  0.00    +0.000 A 
BRANCH   9  16
ATOM     15  C   UNL     1       4.273   2.445  19.737  0.00  0.00    +0.000 C 
ATOM     16  O   UNL     1       3.504   3.103  18.736  0.00  0.00    +0.000 OA
ENDBRANCH   9  16
ENDBRANCH   1  12
BRANCH   5  17
ATOM     17  C   UNL     1      -1.285  12.099  21.213  0.00  0.00    +0.000 C 
ATOM     18  C   UNL     1      -2.579  12.414  21.365  0.00  0.00    +0.000 C 
BRANCH  18  19
ATOM     19  C   UNL     1      -3.078  12.866  22.626  0.00  0.00    +0.000 A 
ATOM     20  C   UNL     1      -2.902  14.094  23.262  0.00  0.00    +0.000 A 
ATOM     21  C   UNL     1      -3.595  14.057  24.497  0.00  0.00    +0.000 A 
ATOM     22  C   UNL     1      -4.154  12.808  24.570  0.00  0.00    +0.000 A 
ATOM     23  O   UNL     1      -3.852  12.087  23.464  0.00  0.00    +0.000 OA
ENDBRANCH  18  19
ENDBRANCH   5  17
TORSDOF 4
ENDMDL
MODEL 6
REMARK VINA RESULT:      -6.5      2.887      9.956
REMARK  Name = 
REMARK  5 active torsions:
REMARK  status: ('A' for Active; 'I' for Inactive)
REMARK    1  A    between atoms: C_1  and  O_2
REMARK    2  A    between atoms: O_2  and  C_3
REMARK    3  A    between atoms: C_6  and  N_7
REMARK    4  A    between atoms: C_11  and  C_13
REMARK    5  A    between atoms: C_14  and  C_15
REMARK                            x       y       z     vdW  Elec       q    Type
REMARK                         _______ _______ _______ _____ _____    ______ ____
ROOT
ATOM      1  N   UNL     1       1.800   8.209  19.752  0.00  0.00    +0.000 N 
ATOM      2  C   UNL     1       1.770   9.220  18.678  0.00  0.00    +0.000 C 
ATOM      3  C   UNL     1       0.353   9.809  18.526  0.00  0.00    +0.000 C 
ATOM      4  N   UNL     1      -0.187  10.286  19.811  0.00  0.00    +0.000 N 
ATOM      5  C   UNL     1      -0.650  11.589  19.909  0.00  0.00    +0.000 C 
ATOM      6  O   UNL     1      -0.635  12.373  18.964  0.00  0.00    +0.000 OA
ATOM      7  C   UNL     1      -0.149   9.258  20.867  0.00  0.00    +0.000 C 
ATOM      8  C   UNL     1       1.269   8.666  21.048  0.00  0.00    +0.000 C 
ENDROOT
BRANCH   1  12
ATOM      9  C   UNL     1       3.006   4.212  19.074  0.00  0.00    +0.000 A 
ATOM     10  C   UNL     1       2.387   4.577  20.266  0.00  0.00    +0.000 A 
ATOM     11  C   UNL     1       1.976   5.898  20.483  0.00  0.00    +0.000 A 
ATOM     12  C   UNL     1       2.197   6.905  19.534  0.00  0.00    +0.000 A 
ATOM     13  C   UNL     1       2.847   6.515  18.353  0.00  0.00    +0.000 A 
ATOM     14  C   UNL     1       3.248   5.190  18.118  0.00  0.00    +0.000 A 
BRANCH   9  16
ATOM     15  C   UNL     1       4.291   2.423  19.927  0.00  0.00    +0.000 C 
ATOM     16  O   UNL     1       3.350   2.895  18.970  0.00  0.00    +0.000 OA
ENDBRANCH   9  16
ENDBRANCH   1  12
BRANCH   5  17
ATOM     17  C   UNL     1      -1.157  12.050  21.232  0.00  0.00    +0.000 C 
ATOM     18  C   UNL     1      -2.454  12.344  21.399  0.00  0.00    +0.000 C 
BRANCH  18  19
ATOM     19  C   UNL     1      -2.942  12.809  22.659  0.00  0.00    +0.000 A 
ATOM     20  C   UNL     1      -2.551  13.917  23.409  0.00  0.00    +0.000 A 
ATOM     21  C   UNL     1      -3.333  13.953  24.590  0.00  0.00    +0.000 A 
ATOM     22  C   UNL     1      -4.159  12.862  24.519  0.00  0.00    +0.000 A 
ATOM     23  O   UNL     1      -3.935  12.170  23.376  0.00  0.00    +0.000 OA
ENDBRANCH  18  19
ENDBRANCH   5  17
TORSDOF 4
ENDMDL
MODEL 7
REMARK VINA RESULT:      -6.5      3.138      9.549
REMARK  Name = 
REMARK  5 active torsions:
REMARK  status: ('A' for Active; 'I' for Inactive)
REMARK    1  A    between atoms: C_1  and  O_2
REMARK    2  A    between atoms: O_2  and  C_3
REMARK    3  A    between atoms: C_6  and  N_7
REMARK    4  A    between atoms: C_11  and  C_13
REMARK    5  A    between atoms: C_14  and  C_15
REMARK                            x       y       z     vdW  Elec       q    Type
REMARK                         _______ _______ _______ _____ _____    ______ ____
ROOT
ATOM      1  N   UNL     1       2.086   7.558  19.569  0.00  0.00    +0.000 N 
ATOM      2  C   UNL     1       2.400   8.486  18.467  0.00  0.00    +0.000 C 
ATOM      3  C   UNL     1       1.215   9.436  18.202  0.00  0.00    +0.000 C 
ATOM      4  N   UNL     1       0.757  10.104  19.434  0.00  0.00    +0.000 N 
ATOM      5  C   UNL     1       0.672  11.487  19.462  0.00  0.00    +0.000 C 
ATOM      6  O   UNL     1       0.958  12.191  18.497  0.00  0.00    +0.000 OA
ATOM      7  C   UNL     1       0.447   9.156  20.520  0.00  0.00    +0.000 C 
ATOM      8  C   UNL     1       1.631   8.204  20.813  0.00  0.00    +0.000 C 
ENDROOT
BRANCH   1  12
ATOM      9  C   UNL     1       2.186   3.355  19.111  0.00  0.00    +0.000 A 
ATOM     10  C   UNL     1       2.388   4.195  18.020  0.00  0.00    +0.000 A 
ATOM     11  C   UNL     1       2.369   5.587  18.176  0.00  0.00    +0.000 A 
ATOM     12  C   UNL     1       2.115   6.186  19.417  0.00  0.00    +0.000 A 
ATOM     13  C   UNL     1       1.887   5.315  20.494  0.00  0.00    +0.000 A 
ATOM     14  C   UNL     1       1.921   3.920  20.351  0.00  0.00    +0.000 A 
BRANCH   9  16
ATOM     15  C   UNL     1       3.500   1.526  18.396  0.00  0.00    +0.000 C 
ATOM     16  O   UNL     1       2.240   2.017  18.840  0.00  0.00    +0.000 OA
ENDBRANCH   9  16
ENDBRANCH   1  12
BRANCH   5  17
ATOM     17  C   UNL     1       0.240  12.132  20.734  0.00  0.00    +0.000 C 
ATOM     18  C   UNL     1      -1.040  12.487  20.916  0.00  0.00    +0.000 C 
BRANCH  18  19
ATOM     19  C   UNL     1      -1.455  13.127  22.125  0.00  0.00    +0.000 A 
ATOM     20  C   UNL     1      -2.679  13.062  22.789  0.00  0.00    +0.000 A 
ATOM     21  C   UNL     1      -2.600  13.876  23.946  0.00  0.00    +0.000 A 
ATOM     22  C   UNL     1      -1.339  14.411  23.936  0.00  0.00    +0.000 A 
ATOM     23  O   UNL     1      -0.647  13.977  22.855  0.00  0.00    +0.000 OA
ENDBRANCH  18  19
ENDBRANCH   5  17
TORSDOF 4
ENDMDL
MODEL 8
REMARK VINA RESULT:      -6.4      1.752      2.448
REMARK  Name = 
REMARK  5 active torsions:
REMARK  status: ('A' for Active; 'I' for Inactive)
REMARK    1  A    between atoms: C_1  and  O_2
REMARK    2  A    between atoms: O_2  and  C_3
REMARK    3  A    between atoms: C_6  and  N_7
REMARK    4  A    between atoms: C_11  and  C_13
REMARK    5  A    between atoms: C_14  and  C_15
REMARK                            x       y       z     vdW  Elec       q    Type
REMARK                         _______ _______ _______ _____ _____    ______ ____
ROOT
ATOM      1  N   UNL     1       1.364   9.203  19.388  0.00  0.00    +0.000 N 
ATOM      2  C   UNL     1       1.719   8.326  20.519  0.00  0.00    +0.000 C 
ATOM      3  C   UNL     1       1.846   6.862  20.053  0.00  0.00    +0.000 C 
ATOM      4  N   UNL     1       2.740   6.728  18.890  0.00  0.00    +0.000 N 
ATOM      5  C   UNL     1       3.802   5.839  18.952  0.00  0.00    +0.000 C 
ATOM      6  O   UNL     1       4.032   5.145  19.939  0.00  0.00    +0.000 OA
ATOM      7  C   UNL     1       2.364   7.611  17.771  0.00  0.00    +0.000 C 
ATOM      8  C   UNL     1       2.249   9.089  18.215  0.00  0.00    +0.000 C 
ENDROOT
BRANCH   1  12
ATOM      9  C   UNL     1      -2.113  11.610  19.388  0.00  0.00    +0.000 A 
ATOM     10  C   UNL     1      -1.705  10.950  18.233  0.00  0.00    +0.000 A 
ATOM     11  C   UNL     1      -0.561  10.142  18.238  0.00  0.00    +0.000 A 
ATOM     12  C   UNL     1       0.231   9.991  19.385  0.00  0.00    +0.000 A 
ATOM     13  C   UNL     1      -0.189  10.690  20.527  0.00  0.00    +0.000 A 
ATOM     14  C   UNL     1      -1.343  11.489  20.537  0.00  0.00    +0.000 A 
BRANCH   9  16
ATOM     15  C   UNL     1      -3.636  13.092  20.422  0.00  0.00    +0.000 C 
ATOM     16  O   UNL     1      -3.250  12.357  19.266  0.00  0.00    +0.000 OA
ENDBRANCH   9  16
ENDBRANCH   1  12
BRANCH   5  17
ATOM     17  C   UNL     1       4.708   5.754  17.772  0.00  0.00    +0.000 C 
ATOM     18  C   UNL     1       4.580   4.756  16.886  0.00  0.00    +0.000 C 
BRANCH  18  19
ATOM     19  C   UNL     1       5.461   4.657  15.765  0.00  0.00    +0.000 A 
ATOM     20  C   UNL     1       6.742   5.179  15.594  0.00  0.00    +0.000 A 
ATOM     21  C   UNL     1       7.204   4.809  14.307  0.00  0.00    +0.000 A 
ATOM     22  C   UNL     1       6.186   4.087  13.742  0.00  0.00    +0.000 A 
ATOM     23  O   UNL     1       5.140   3.992  14.598  0.00  0.00    +0.000 OA
ENDBRANCH  18  19
ENDBRANCH   5  17
TORSDOF 4
ENDMDL
MODEL 9
REMARK VINA RESULT:      -6.4      1.040      1.234
REMARK  Name = 
REMARK  5 active torsions:
REMARK  status: ('A' for Active; 'I' for Inactive)
REMARK    1  A    between atoms: C_1  and  O_2
REMARK    2  A    between atoms: O_2  and  C_3
REMARK    3  A    between atoms: C_6  and  N_7
REMARK    4  A    between atoms: C_11  and  C_13
REMARK    5  A    between atoms: C_14  and  C_15
REMARK                            x       y       z     vdW  Elec       q    Type
REMARK                         _______ _______ _______ _____ _____    ______ ____
ROOT
ATOM      1  N   UNL     1       2.584   7.511  19.206  0.00  0.00    +0.000 N 
ATOM      2  C   UNL     1       2.639   6.174  19.826  0.00  0.00    +0.000 C 
ATOM      3  C   UNL     1       2.538   5.073  18.751  0.00  0.00    +0.000 C 
ATOM      4  N   UNL     1       3.514   5.270  17.665  0.00  0.00    +0.000 N 
ATOM      5  C   UNL     1       4.375   4.236  17.333  0.00  0.00    +0.000 C 
ATOM      6  O   UNL     1       4.360   3.148  17.904  0.00  0.00    +0.000 OA
ATOM      7  C   UNL     1       3.437   6.612  17.060  0.00  0.00    +0.000 C 
ATOM      8  C   UNL     1       3.555   7.733  18.120  0.00  0.00    +0.000 C 
ENDROOT
BRANCH   1  12
ATOM      9  C   UNL     1      -0.337  10.390  20.241  0.00  0.00    +0.000 A 
ATOM     10  C   UNL     1       0.108   9.460  21.176  0.00  0.00    +0.000 A 
ATOM     11  C   UNL     1       1.085   8.516  20.835  0.00  0.00    +0.000 A 
ATOM     12  C   UNL     1       1.627   8.447  19.544  0.00  0.00    +0.000 A 
ATOM     13  C   UNL     1       1.141   9.380  18.615  0.00  0.00    +0.000 A 
ATOM     14  C   UNL     1       0.174  10.341  18.951  0.00  0.00    +0.000 A 
BRANCH   9  16
ATOM     15  C   UNL     1      -1.951  12.025  19.689  0.00  0.00    +0.000 C 
ATOM     16  O   UNL     1      -1.281  11.269  20.691  0.00  0.00    +0.000 OA
ENDBRANCH   9  16
ENDBRANCH   1  12
BRANCH   5  17
ATOM     17  C   UNL     1       5.374   4.480  16.254  0.00  0.00    +0.000 C 
ATOM     18  C   UNL     1       5.143   4.054  15.004  0.00  0.00    +0.000 C 
BRANCH  18  19
ATOM     19  C   UNL     1       6.107   4.265  13.971  0.00  0.00    +0.000 A 
ATOM     20  C   UNL     1       6.225   3.648  12.726  0.00  0.00    +0.000 A 
ATOM     21  C   UNL     1       7.347   4.201  12.061  0.00  0.00    +0.000 A 
ATOM     22  C   UNL     1       7.874   5.123  12.928  0.00  0.00    +0.000 A 
ATOM     23  O   UNL     1       7.147   5.169  14.070  0.00  0.00    +0.000 OA
ENDBRANCH  18  19
ENDBRANCH   5  17
TORSDOF 4
ENDMDL
