MODEL 1
REMARK VINA RESULT:      -7.9      0.000      0.000
REMARK  Name = 
REMARK  5 active torsions:
REMARK  status: ('A' for Active; 'I' for Inactive)
REMARK    1  A    between atoms: C_23  and  C_24
REMARK    2  A    between atoms: C_24  and  N_25
REMARK    3  A    between atoms: N_25  and  C_26
REMARK    4  A    between atoms: C_26  and  C_27
REMARK    5  A    between atoms: C_27  and  O_28
REMARK                            x       y       z     vdW  Elec       q    Type
REMARK                         _______ _______ _______ _____ _____    ______ ____
ROOT
ATOM      1  O   UNL     1       1.453  11.573  18.954  0.00  0.00    +0.000 OA
ATOM      2  C   UNL     1       1.057  10.810  19.826  0.00  0.00    +0.000 A 
ATOM      3  C   UNL     1       0.254  11.300  20.968  0.00  0.00    +0.000 A 
ATOM      4  C   UNL     1       0.030  12.677  21.094  0.00  0.00    +0.000 A 
ATOM      5  C   UNL     1      -0.743  13.154  22.146  0.00  0.00    +0.000 A 
ATOM      6  C   UNL     1      -1.314  12.254  23.045  0.00  0.00    +0.000 A 
ATOM      7  C   UNL     1      -1.077  10.874  22.927  0.00  0.00    +0.000 A 
ATOM      8  C   UNL     1      -0.260  10.380  21.901  0.00  0.00    +0.000 A 
ATOM      9  C   UNL     1       0.110   8.950  21.809  0.00  0.00    +0.000 A 
ATOM     10  C   UNL     1       0.896   8.562  20.795  0.00  0.00    +0.000 A 
ATOM     11  N   UNL     1       1.311   9.462  19.828  0.00  0.00    +0.000 N 
ATOM     12  C   UNL     1       2.122   8.828  18.796  0.00  0.00    +0.000 C 
ATOM     13  C   UNL     1       2.206   7.412  19.268  0.00  0.00    +0.000 A 
ATOM     14  C   UNL     1       1.490   7.252  20.449  0.00  0.00    +0.000 A 
ATOM     15  N   UNL     1       1.410   6.104  21.140  0.00  0.00    +0.000 NA
ATOM     16  C   UNL     1       2.078   5.052  20.614  0.00  0.00    +0.000 A 
ATOM     17  C   UNL     1       2.041   3.840  21.300  0.00  0.00    +0.000 A 
ATOM     18  C   UNL     1       2.681   2.686  20.829  0.00  0.00    +0.000 A 
ATOM     19  C   UNL     1       3.387   2.735  19.640  0.00  0.00    +0.000 A 
ATOM     20 CL   UNL     1       4.164   1.328  19.029  0.00  0.00    +0.000 Cl
ATOM     21  C   UNL     1       3.466   3.930  18.935  0.00  0.00    +0.000 A 
ATOM     22  C   UNL     1       2.824   5.108  19.394  0.00  0.00    +0.000 A 
ATOM     23  C   UNL     1       2.881   6.340  18.694  0.00  0.00    +0.000 A 
ENDROOT
BRANCH  23  24
ATOM     24  C   UNL     1       3.602   6.552  17.380  0.00  0.00    +0.000 C 
BRANCH  24  25
ATOM     25  N   UNL     1       5.057   6.562  17.561  0.00  0.00    +0.000 NA
ATOM     26  H   UNL     1       5.263   6.195  18.491  0.00  0.00    +0.000 HD
BRANCH  25  27
ATOM     27  C   UNL     1       5.698   5.682  16.568  0.00  0.00    +0.000 C 
BRANCH  27  28
ATOM     28  C   UNL     1       7.056   5.178  17.068  0.00  0.00    +0.000 C 
BRANCH  28  29
ATOM     29  O   UNL     1       6.877   4.273  18.154  0.00  0.00    +0.000 OA
ATOM     30  H   UNL     1       6.147   4.637  18.685  0.00  0.00    +0.000 HD
ENDBRANCH  28  29
ENDBRANCH  27  28
ENDBRANCH  25  27
ENDBRANCH  24  25
ENDBRANCH  23  24
TORSDOF 5
ENDMDL
MODEL 2
REMARK VINA RESULT:      -7.7      1.260      1.529
REMARK  Name = 
REMARK  5 active torsions:
REMARK  status: ('A' for Active; 'I' for Inactive)
REMARK    1  A    between atoms: C_23  and  C_24
REMARK    2  A    between atoms: C_24  and  N_25
REMARK    3  A    between atoms: N_25  and  C_26
REMARK    4  A    between atoms: C_26  and  C_27
REMARK    5  A    between atoms: C_27  and  O_28
REMARK                            x       y       z     vdW  Elec       q    Type
REMARK                         _______ _______ _______ _____ _____    ______ ____
ROOT
ATOM      1  O   UNL     1       2.312  10.967  17.364  0.00  0.00    +0.000 OA
ATOM      2  C   UNL     1       1.762  10.405  18.301  0.00  0.00    +0.000 A 
ATOM      3  C   UNL     1       0.797  11.118  19.167  0.00  0.00    +0.000 A 
ATOM      4  C   UNL     1       0.591  12.488  18.960  0.00  0.00    +0.000 A 
ATOM      5  C   UNL     1      -0.329  13.171  19.747  0.00  0.00    +0.000 A 
ATOM      6  C   UNL     1      -1.060  12.477  20.711  0.00  0.00    +0.000 A 
ATOM      7  C   UNL     1      -0.841  11.107  20.929  0.00  0.00    +0.000 A 
ATOM      8  C   UNL     1       0.117  10.414  20.178  0.00  0.00    +0.000 A 
ATOM      9  C   UNL     1       0.462   9.001  20.453  0.00  0.00    +0.000 A 
ATOM     10  C   UNL     1       1.391   8.413  19.686  0.00  0.00    +0.000 A 
ATOM     11  N   UNL     1       1.979   9.090  18.631  0.00  0.00    +0.000 N 
ATOM     12  C   UNL     1       2.929   8.259  17.902  0.00  0.00    +0.000 C 
ATOM     13  C   UNL     1       2.901   6.978  18.671  0.00  0.00    +0.000 A 
ATOM     14  C   UNL     1       2.000   7.066  19.727  0.00  0.00    +0.000 A 
ATOM     15  N   UNL     1       1.782   6.091  20.623  0.00  0.00    +0.000 NA
ATOM     16  C   UNL     1       2.499   4.958  20.449  0.00  0.00    +0.000 A 
ATOM     17  C   UNL     1       2.322   3.919  21.360  0.00  0.00    +0.000 A 
ATOM     18  C   UNL     1       3.000   2.698  21.255  0.00  0.00    +0.000 A 
ATOM     19  C   UNL     1       3.890   2.500  20.214  0.00  0.00    +0.000 A 
ATOM     20 CL   UNL     1       4.720   1.003  20.050  0.00  0.00    +0.000 Cl
ATOM     21  C   UNL     1       4.111   3.517  19.294  0.00  0.00    +0.000 A 
ATOM     22  C   UNL     1       3.433   4.760  19.382  0.00  0.00    +0.000 A 
ATOM     23  C   UNL     1       3.632   5.815  18.456  0.00  0.00    +0.000 A 
ENDROOT
BRANCH  23  24
ATOM     24  C   UNL     1       4.561   5.749  17.261  0.00  0.00    +0.000 C 
BRANCH  24  25
ATOM     25  N   UNL     1       5.830   6.431  17.531  0.00  0.00    +0.000 NA
ATOM     26  H   UNL     1       5.671   7.120  18.266  0.00  0.00    +0.000 HD
BRANCH  25  27
ATOM     27  C   UNL     1       6.833   5.466  18.016  0.00  0.00    +0.000 C 
BRANCH  27  28
ATOM     28  C   UNL     1       7.825   6.131  18.975  0.00  0.00    +0.000 C 
BRANCH  28  29
ATOM     29  O   UNL     1       7.816   5.466  20.235  0.00  0.00    +0.000 OA
ATOM     30  H   UNL     1       8.263   4.614  20.088  0.00  0.00    +0.000 HD
ENDBRANCH  28  29
ENDBRANCH  27  28
ENDBRANCH  25  27
ENDBRANCH  24  25
ENDBRANCH  23  24
TORSDOF 5
ENDMDL
MODEL 3
REMARK VINA RESULT:      -7.6      3.726      8.198
REMARK  Name = 
REMARK  5 active torsions:
REMARK  status: ('A' for Active; 'I' for Inactive)
REMARK    1  A    between atoms: C_23  and  C_24
REMARK    2  A    between atoms: C_24  and  N_25
REMARK    3  A    between atoms: N_25  and  C_26
REMARK    4  A    between atoms: C_26  and  C_27
REMARK    5  A    between atoms: C_27  and  O_28
REMARK                            x       y       z     vdW  Elec       q    Type
REMARK                         _______ _______ _______ _____ _____    ______ ____
ROOT
ATOM      1  O   UNL     1       2.820   8.074  16.955  0.00  0.00    +0.000 OA
ATOM      2  C   UNL     1       2.436   7.802  18.084  0.00  0.00    +0.000 A 
ATOM      3  C   UNL     1       2.671   6.466  18.676  0.00  0.00    +0.000 A 
ATOM      4  C   UNL     1       3.260   5.472  17.883  0.00  0.00    +0.000 A 
ATOM      5  C   UNL     1       3.510   4.219  18.427  0.00  0.00    +0.000 A 
ATOM      6  C   UNL     1       3.204   3.975  19.766  0.00  0.00    +0.000 A 
ATOM      7  C   UNL     1       2.600   4.967  20.556  0.00  0.00    +0.000 A 
ATOM      8  C   UNL     1       2.295   6.220  20.009  0.00  0.00    +0.000 A 
ATOM      9  C   UNL     1       1.555   7.252  20.770  0.00  0.00    +0.000 A 
ATOM     10  C   UNL     1       1.305   8.425  20.171  0.00  0.00    +0.000 A 
ATOM     11  N   UNL     1       1.769   8.688  18.893  0.00  0.00    +0.000 N 
ATOM     12  C   UNL     1       1.425  10.032  18.446  0.00  0.00    +0.000 C 
ATOM     13  C   UNL     1       0.634  10.567  19.596  0.00  0.00    +0.000 A 
ATOM     14  C   UNL     1       0.556   9.621  20.613  0.00  0.00    +0.000 A 
ATOM     15  N   UNL     1      -0.122   9.792  21.758  0.00  0.00    +0.000 NA
ATOM     16  C   UNL     1      -0.751  10.980  21.901  0.00  0.00    +0.000 A 
ATOM     17  C   UNL     1      -1.481  11.203  23.066  0.00  0.00    +0.000 A 
ATOM     18  C   UNL     1      -2.151  12.408  23.319  0.00  0.00    +0.000 A 
ATOM     19  C   UNL     1      -2.100  13.426  22.383  0.00  0.00    +0.000 A 
ATOM     20 CL   UNL     1      -2.895  14.921  22.678  0.00  0.00    +0.000 Cl
ATOM     21  C   UNL     1      -1.398  13.237  21.198  0.00  0.00    +0.000 A 
ATOM     22  C   UNL     1      -0.712  12.027  20.925  0.00  0.00    +0.000 A 
ATOM     23  C   UNL     1       0.016  11.806  19.729  0.00  0.00    +0.000 A 
ENDROOT
BRANCH  23  24
ATOM     24  C   UNL     1       0.175  12.822  18.616  0.00  0.00    +0.000 C 
BRANCH  24  25
ATOM     25  N   UNL     1      -1.080  13.016  17.885  0.00  0.00    +0.000 NA
ATOM     26  H   UNL     1      -0.870  13.522  17.023  0.00  0.00    +0.000 HD
BRANCH  25  27
ATOM     27  C   UNL     1      -1.663  11.713  17.520  0.00  0.00    +0.000 C 
BRANCH  27  28
ATOM     28  C   UNL     1      -3.130  11.621  17.954  0.00  0.00    +0.000 C 
BRANCH  28  29
ATOM     29  O   UNL     1      -3.989  11.943  16.863  0.00  0.00    +0.000 OA
ATOM     30  H   UNL     1      -4.398  11.102  16.592  0.00  0.00    +0.000 HD
ENDBRANCH  28  29
ENDBRANCH  27  28
ENDBRANCH  25  27
ENDBRANCH  24  25
ENDBRANCH  23  24
TORSDOF 5
ENDMDL
MODEL 4
REMARK VINA RESULT:      -7.6      1.270      1.475
REMARK  Name = 
REMARK  5 active torsions:
REMARK  status: ('A' for Active; 'I' for Inactive)
REMARK    1  A    between atoms: C_23  and  C_24
REMARK    2  A    between atoms: C_24  and  N_25
REMARK    3  A    between atoms: N_25  and  C_26
REMARK    4  A    between atoms: C_26  and  C_27
REMARK    5  A    between atoms: C_27  and  O_28
REMARK                            x       y       z     vdW  Elec       q    Type
REMARK                         _______ _______ _______ _____ _____    ______ ____
ROOT
ATOM      1  O   UNL     1       2.213  11.125  17.417  0.00  0.00    +0.000 OA
ATOM      2  C   UNL     1       1.692  10.550  18.363  0.00  0.00    +0.000 A 
ATOM      3  C   UNL     1       0.768  11.257  19.278  0.00  0.00    +0.000 A 
ATOM      4  C   UNL     1       0.568  12.633  19.105  0.00  0.00    +0.000 A 
ATOM      5  C   UNL     1      -0.314  13.309  19.938  0.00  0.00    +0.000 A 
ATOM      6  C   UNL     1      -1.016  12.605  20.916  0.00  0.00    +0.000 A 
ATOM      7  C   UNL     1      -0.804  11.229  21.099  0.00  0.00    +0.000 A 
ATOM      8  C   UNL     1       0.119  10.540  20.300  0.00  0.00    +0.000 A 
ATOM      9  C   UNL     1       0.458   9.119  20.535  0.00  0.00    +0.000 A 
ATOM     10  C   UNL     1       1.352   8.536  19.724  0.00  0.00    +0.000 A 
ATOM     11  N   UNL     1       1.907   9.228  18.660  0.00  0.00    +0.000 N 
ATOM     12  C   UNL     1       2.820   8.401  17.881  0.00  0.00    +0.000 C 
ATOM     13  C   UNL     1       2.807   7.105  18.627  0.00  0.00    +0.000 A 
ATOM     14  C   UNL     1       1.947   7.183  19.717  0.00  0.00    +0.000 A 
ATOM     15  N   UNL     1       1.752   6.193  20.602  0.00  0.00    +0.000 NA
ATOM     16  C   UNL     1       2.450   5.056  20.380  0.00  0.00    +0.000 A 
ATOM     17  C   UNL     1       2.295   4.002  21.278  0.00  0.00    +0.000 A 
ATOM     18  C   UNL     1       2.957   2.777  21.125  0.00  0.00    +0.000 A 
ATOM     19  C   UNL     1       3.805   2.589  20.047  0.00  0.00    +0.000 A 
ATOM     20 CL   UNL     1       4.612   1.088  19.825  0.00  0.00    +0.000 Cl
ATOM     21  C   UNL     1       4.003   3.622  19.139  0.00  0.00    +0.000 A 
ATOM     22  C   UNL     1       3.341   4.869  19.275  0.00  0.00    +0.000 A 
ATOM     23  C   UNL     1       3.518   5.939  18.362  0.00  0.00    +0.000 A 
ENDROOT
BRANCH  23  24
ATOM     24  C   UNL     1       4.400   5.887  17.133  0.00  0.00    +0.000 C 
BRANCH  24  25
ATOM     25  N   UNL     1       5.759   6.352  17.428  0.00  0.00    +0.000 NA
ATOM     26  H   UNL     1       5.867   6.393  18.442  0.00  0.00    +0.000 HD
BRANCH  25  27
ATOM     27  C   UNL     1       6.749   5.398  16.898  0.00  0.00    +0.000 C 
BRANCH  27  28
ATOM     28  C   UNL     1       6.492   5.098  15.417  0.00  0.00    +0.000 C 
BRANCH  28  29
ATOM     29  O   UNL     1       7.663   5.366  14.649  0.00  0.00    +0.000 OA
ATOM     30  H   UNL     1       7.406   6.048  14.004  0.00  0.00    +0.000 HD
ENDBRANCH  28  29
ENDBRANCH  27  28
ENDBRANCH  25  27
ENDBRANCH  24  25
ENDBRANCH  23  24
TORSDOF 5
ENDMDL
MODEL 5
REMARK VINA RESULT:      -7.5      1.998      3.769
REMARK  Name = 
REMARK  5 active torsions:
REMARK  status: ('A' for Active; 'I' for Inactive)
REMARK    1  A    between atoms: C_23  and  C_24
REMARK    2  A    between atoms: C_24  and  N_25
REMARK    3  A    between atoms: N_25  and  C_26
REMARK    4  A    between atoms: C_26  and  C_27
REMARK    5  A    between atoms: C_27  and  O_28
REMARK                            x       y       z     vdW  Elec       q    Type
REMARK                         _______ _______ _______ _____ _____    ______ ____
ROOT
ATOM      1  O   UNL     1      -0.648   8.973  22.477  0.00  0.00    +0.000 OA
ATOM      2  C   UNL     1      -0.130   9.479  21.491  0.00  0.00    +0.000 A 
ATOM      3  C   UNL     1      -0.464  10.858  21.069  0.00  0.00    +0.000 A 
ATOM      4  C   UNL     1      -1.464  11.552  21.764  0.00  0.00    +0.000 A 
ATOM      5  C   UNL     1      -1.776  12.855  21.399  0.00  0.00    +0.000 A 
ATOM      6  C   UNL     1      -1.066  13.470  20.367  0.00  0.00    +0.000 A 
ATOM      7  C   UNL     1      -0.075  12.769  19.661  0.00  0.00    +0.000 A 
ATOM      8  C   UNL     1       0.218  11.438  19.984  0.00  0.00    +0.000 A 
ATOM      9  C   UNL     1       1.171  10.627  19.193  0.00  0.00    +0.000 A 
ATOM     10  C   UNL     1       1.393   9.360  19.570  0.00  0.00    +0.000 A 
ATOM     11  N   UNL     1       0.789   8.836  20.701  0.00  0.00    +0.000 N 
ATOM     12  C   UNL     1       1.197   7.460  20.956  0.00  0.00    +0.000 C 
ATOM     13  C   UNL     1       2.103   7.166  19.804  0.00  0.00    +0.000 A 
ATOM     14  C   UNL     1       2.216   8.282  18.982  0.00  0.00    +0.000 A 
ATOM     15  N   UNL     1       2.928   8.318  17.844  0.00  0.00    +0.000 NA
ATOM     16  C   UNL     1       3.571   7.175  17.514  0.00  0.00    +0.000 A 
ATOM     17  C   UNL     1       4.312   7.153  16.335  0.00  0.00    +0.000 A 
ATOM     18  C   UNL     1       5.031   6.026  15.915  0.00  0.00    +0.000 A 
ATOM     19  C   UNL     1       5.011   4.878  16.688  0.00  0.00    +0.000 A 
ATOM     20 CL   UNL     1       5.901   3.489  16.206  0.00  0.00    +0.000 Cl
ATOM     21  C   UNL     1       4.268   4.851  17.861  0.00  0.00    +0.000 A 
ATOM     22  C   UNL     1       3.536   5.982  18.304  0.00  0.00    +0.000 A 
ATOM     23  C   UNL     1       2.773   5.987  19.500  0.00  0.00    +0.000 A 
ENDROOT
BRANCH  23  24
ATOM     24  C   UNL     1       2.660   4.817  20.455  0.00  0.00    +0.000 C 
BRANCH  24  25
ATOM     25  N   UNL     1       1.330   4.203  20.395  0.00  0.00    +0.000 NA
ATOM     26  H   UNL     1       0.834   4.596  19.594  0.00  0.00    +0.000 HD
BRANCH  25  27
ATOM     27  C   UNL     1       1.451   2.749  20.192  0.00  0.00    +0.000 C 
BRANCH  27  28
ATOM     28  C   UNL     1       1.225   2.374  18.724  0.00  0.00    +0.000 C 
BRANCH  28  29
ATOM     29  O   UNL     1       2.318   1.599  18.237  0.00  0.00    +0.000 OA
ATOM     30  H   UNL     1       2.721   2.127  17.526  0.00  0.00    +0.000 HD
ENDBRANCH  28  29
ENDBRANCH  27  28
ENDBRANCH  25  27
ENDBRANCH  24  25
ENDBRANCH  23  24
TORSDOF 5
ENDMDL
MODEL 6
REMARK VINA RESULT:      -7.5      1.928      3.697
REMARK  Name = 
REMARK  5 active torsions:
REMARK  status: ('A' for Active; 'I' for Inactive)
REMARK    1  A    between atoms: C_23  and  C_24
REMARK    2  A    between atoms: C_24  and  N_25
REMARK    3  A    between atoms: N_25  and  C_26
REMARK    4  A    between atoms: C_26  and  C_27
REMARK    5  A    between atoms: C_27  and  O_28
REMARK                            x       y       z     vdW  Elec       q    Type
REMARK                         _______ _______ _______ _____ _____    ______ ____
ROOT
ATOM      1  O   UNL     1      -0.354   8.809  22.020  0.00  0.00    +0.000 OA
ATOM      2  C   UNL     1       0.116   9.314  21.010  0.00  0.00    +0.000 A 
ATOM      3  C   UNL     1      -0.300  10.660  20.558  0.00  0.00    +0.000 A 
ATOM      4  C   UNL     1      -1.322  11.319  21.254  0.00  0.00    +0.000 A 
ATOM      5  C   UNL     1      -1.710  12.594  20.860  0.00  0.00    +0.000 A 
ATOM      6  C   UNL     1      -1.054  13.217  19.798  0.00  0.00    +0.000 A 
ATOM      7  C   UNL     1      -0.041  12.550  19.091  0.00  0.00    +0.000 A 
ATOM      8  C   UNL     1       0.330  11.245  19.443  0.00  0.00    +0.000 A 
ATOM      9  C   UNL     1       1.309  10.464  18.654  0.00  0.00    +0.000 A 
ATOM     10  C   UNL     1       1.606   9.222  19.061  0.00  0.00    +0.000 A 
ATOM     11  N   UNL     1       1.053   8.698  20.218  0.00  0.00    +0.000 N 
ATOM     12  C   UNL     1       1.538   7.354  20.502  0.00  0.00    +0.000 C 
ATOM     13  C   UNL     1       2.436   7.076  19.340  0.00  0.00    +0.000 A 
ATOM     14  C   UNL     1       2.474   8.173  18.485  0.00  0.00    +0.000 A 
ATOM     15  N   UNL     1       3.161   8.215  17.332  0.00  0.00    +0.000 NA
ATOM     16  C   UNL     1       3.858   7.098  17.020  0.00  0.00    +0.000 A 
ATOM     17  C   UNL     1       4.576   7.083  15.826  0.00  0.00    +0.000 A 
ATOM     18  C   UNL     1       5.346   5.984  15.423  0.00  0.00    +0.000 A 
ATOM     19  C   UNL     1       5.403   4.859  16.226  0.00  0.00    +0.000 A 
ATOM     20 CL   UNL     1       6.356   3.506  15.764  0.00  0.00    +0.000 Cl
ATOM     21  C   UNL     1       4.685   4.825  17.415  0.00  0.00    +0.000 A 
ATOM     22  C   UNL     1       3.902   5.928  17.843  0.00  0.00    +0.000 A 
ATOM     23  C   UNL     1       3.163   5.926  19.053  0.00  0.00    +0.000 A 
ENDROOT
BRANCH  23  24
ATOM     24  C   UNL     1       3.131   4.780  20.042  0.00  0.00    +0.000 C 
BRANCH  24  25
ATOM     25  N   UNL     1       2.197   3.732  19.619  0.00  0.00    +0.000 NA
ATOM     26  H   UNL     1       1.882   3.951  18.673  0.00  0.00    +0.000 HD
BRANCH  25  27
ATOM     27  C   UNL     1       2.878   2.426  19.585  0.00  0.00    +0.000 C 
BRANCH  27  28
ATOM     28  C   UNL     1       4.274   2.513  20.212  0.00  0.00    +0.000 C 
BRANCH  28  29
ATOM     29  O   UNL     1       5.077   1.415  19.784  0.00  0.00    +0.000 OA
ATOM     30  H   UNL     1       5.965   1.782  19.628  0.00  0.00    +0.000 HD
ENDBRANCH  28  29
ENDBRANCH  27  28
ENDBRANCH  25  27
ENDBRANCH  24  25
ENDBRANCH  23  24
TORSDOF 5
ENDMDL
MODEL 7
REMARK VINA RESULT:      -7.5      3.245      7.812
REMARK  Name = 
REMARK  5 active torsions:
REMARK  status: ('A' for Active; 'I' for Inactive)
REMARK    1  A    between atoms: C_23  and  C_24
REMARK    2  A    between atoms: C_24  and  N_25
REMARK    3  A    between atoms: N_25  and  C_26
REMARK    4  A    between atoms: C_26  and  C_27
REMARK    5  A    between atoms: C_27  and  O_28
REMARK                            x       y       z     vdW  Elec       q    Type
REMARK                         _______ _______ _______ _____ _____    ______ ____
ROOT
ATOM      1  O   UNL     1       3.559   6.203  17.048  0.00  0.00    +0.000 OA
ATOM      2  C   UNL     1       3.118   5.956  18.162  0.00  0.00    +0.000 A 
ATOM      3  C   UNL     1       3.217   4.599  18.745  0.00  0.00    +0.000 A 
ATOM      4  C   UNL     1       3.740   3.564  17.959  0.00  0.00    +0.000 A 
ATOM      5  C   UNL     1       3.863   2.289  18.495  0.00  0.00    +0.000 A 
ATOM      6  C   UNL     1       3.496   2.061  19.821  0.00  0.00    +0.000 A 
ATOM      7  C   UNL     1       2.957   3.095  20.604  0.00  0.00    +0.000 A 
ATOM      8  C   UNL     1       2.780   4.376  20.064  0.00  0.00    +0.000 A 
ATOM      9  C   UNL     1       2.111   5.462  20.814  0.00  0.00    +0.000 A 
ATOM     10  C   UNL     1       1.983   6.657  20.222  0.00  0.00    +0.000 A 
ATOM     11  N   UNL     1       2.507   6.890  18.961  0.00  0.00    +0.000 N 
ATOM     12  C   UNL     1       2.296   8.262  18.520  0.00  0.00    +0.000 C 
ATOM     13  C   UNL     1       1.520   8.855  19.652  0.00  0.00    +0.000 A 
ATOM     14  C   UNL     1       1.328   7.911  20.655  0.00  0.00    +0.000 A 
ATOM     15  N   UNL     1       0.633   8.130  21.782  0.00  0.00    +0.000 NA
ATOM     16  C   UNL     1       0.107   9.368  21.919  0.00  0.00    +0.000 A 
ATOM     17  C   UNL     1      -0.637   9.644  23.065  0.00  0.00    +0.000 A 
ATOM     18  C   UNL     1      -1.205  10.900  23.311  0.00  0.00    +0.000 A 
ATOM     19  C   UNL     1      -1.036  11.918  22.389  0.00  0.00    +0.000 A 
ATOM     20 CL   UNL     1      -1.706  13.475  22.678  0.00  0.00    +0.000 Cl
ATOM     21  C   UNL     1      -0.319  11.679  21.224  0.00  0.00    +0.000 A 
ATOM     22  C   UNL     1       0.267  10.415  20.957  0.00  0.00    +0.000 A 
ATOM     23  C   UNL     1       1.010  10.143  19.780  0.00  0.00    +0.000 A 
ENDROOT
BRANCH  23  24
ATOM     24  C   UNL     1       1.291  11.150  18.685  0.00  0.00    +0.000 C 
BRANCH  24  25
ATOM     25  N   UNL     1       0.051  11.718  18.148  0.00  0.00    +0.000 NA
ATOM     26  H   UNL     1       0.285  12.263  17.317  0.00  0.00    +0.000 HD
BRANCH  25  27
ATOM     27  C   UNL     1      -0.869  10.640  17.745  0.00  0.00    +0.000 C 
BRANCH  27  28
ATOM     28  C   UNL     1      -2.273  11.185  17.463  0.00  0.00    +0.000 C 
BRANCH  28  29
ATOM     29  O   UNL     1      -2.395  11.548  16.090  0.00  0.00    +0.000 OA
ATOM     30  H   UNL     1      -2.293  12.515  16.062  0.00  0.00    +0.000 HD
ENDBRANCH  28  29
ENDBRANCH  27  28
ENDBRANCH  25  27
ENDBRANCH  24  25
ENDBRANCH  23  24
TORSDOF 5
ENDMDL
MODEL 8
REMARK VINA RESULT:      -7.5      1.050      1.084
REMARK  Name = 
REMARK  5 active torsions:
REMARK  status: ('A' for Active; 'I' for Inactive)
REMARK    1  A    between atoms: C_23  and  C_24
REMARK    2  A    between atoms: C_24  and  N_25
REMARK    3  A    between atoms: N_25  and  C_26
REMARK    4  A    between atoms: C_26  and  C_27
REMARK    5  A    between atoms: C_27  and  O_28
REMARK                            x       y       z     vdW  Elec       q    Type
REMARK                         _______ _______ _______ _____ _____    ______ ____
ROOT
ATOM      1  O   UNL     1       1.825  11.399  18.081  0.00  0.00    +0.000 OA
ATOM      2  C   UNL     1       1.388  10.745  19.019  0.00  0.00    +0.000 A 
ATOM      3  C   UNL     1       0.562  11.372  20.074  0.00  0.00    +0.000 A 
ATOM      4  C   UNL     1       0.362  12.758  20.040  0.00  0.00    +0.000 A 
ATOM      5  C   UNL     1      -0.431  13.361  21.008  0.00  0.00    +0.000 A 
ATOM      6  C   UNL     1      -1.046  12.576  21.983  0.00  0.00    +0.000 A 
ATOM      7  C   UNL     1      -0.833  11.189  22.026  0.00  0.00    +0.000 A 
ATOM      8  C   UNL     1       0.003  10.570  21.087  0.00  0.00    +0.000 A 
ATOM      9  C   UNL     1       0.348   9.133  21.165  0.00  0.00    +0.000 A 
ATOM     10  C   UNL     1       1.155   8.621  20.226  0.00  0.00    +0.000 A 
ATOM     11  N   UNL     1       1.616   9.401  19.178  0.00  0.00    +0.000 N 
ATOM     12  C   UNL     1       2.443   8.643  18.248  0.00  0.00    +0.000 C 
ATOM     13  C   UNL     1       2.486   7.287  18.876  0.00  0.00    +0.000 A 
ATOM     14  C   UNL     1       1.733   7.272  20.046  0.00  0.00    +0.000 A 
ATOM     15  N   UNL     1       1.611   6.209  20.856  0.00  0.00    +0.000 NA
ATOM     16  C   UNL     1       2.273   5.094  20.472  0.00  0.00    +0.000 A 
ATOM     17  C   UNL     1       2.192   3.966  21.285  0.00  0.00    +0.000 A 
ATOM     18  C   UNL     1       2.822   2.757  20.965  0.00  0.00    +0.000 A 
ATOM     19  C   UNL     1       3.564   2.662  19.801  0.00  0.00    +0.000 A 
ATOM     20 CL   UNL     1       4.330   1.184  19.374  0.00  0.00    +0.000 Cl
ATOM     21  C   UNL     1       3.687   3.770  18.971  0.00  0.00    +0.000 A 
ATOM     22  C   UNL     1       3.054   5.001  19.276  0.00  0.00    +0.000 A 
ATOM     23  C   UNL     1       3.156   6.147  18.446  0.00  0.00    +0.000 A 
ENDROOT
BRANCH  23  24
ATOM     24  C   UNL     1       3.919   6.200  17.139  0.00  0.00    +0.000 C 
BRANCH  24  25
ATOM     25  N   UNL     1       5.170   6.950  17.279  0.00  0.00    +0.000 NA
ATOM     26  H   UNL     1       5.015   7.706  17.948  0.00  0.00    +0.000 HD
BRANCH  25  27
ATOM     27  C   UNL     1       6.230   6.076  17.812  0.00  0.00    +0.000 C 
BRANCH  27  28
ATOM     28  C   UNL     1       7.564   6.822  17.918  0.00  0.00    +0.000 C 
BRANCH  28  29
ATOM     29  O   UNL     1       7.566   7.955  17.054  0.00  0.00    +0.000 OA
ATOM     30  H   UNL     1       7.261   7.629  16.189  0.00  0.00    +0.000 HD
ENDBRANCH  28  29
ENDBRANCH  27  28
ENDBRANCH  25  27
ENDBRANCH  24  25
ENDBRANCH  23  24
TORSDOF 5
ENDMDL
MODEL 9
REMARK VINA RESULT:      -7.3      3.340      7.703
REMARK  Name = 
REMARK  5 active torsions:
REMARK  status: ('A' for Active; 'I' for Inactive)
REMARK    1  A    between atoms: C_23  and  C_24
REMARK    2  A    between atoms: C_24  and  N_25
REMARK    3  A    between atoms: N_25  and  C_26
REMARK    4  A    between atoms: C_26  and  C_27
REMARK    5  A    between atoms: C_27  and  O_28
REMARK                            x       y       z     vdW  Elec       q    Type
REMARK                         _______ _______ _______ _____ _____    ______ ____
ROOT
ATOM      1  O   UNL     1       3.484   6.618  17.009  0.00  0.00    +0.000 OA
ATOM      2  C   UNL     1       3.028   6.354  18.114  0.00  0.00    +0.000 A 
ATOM      3  C   UNL     1       3.132   4.992  18.683  0.00  0.00    +0.000 A 
ATOM      4  C   UNL     1       3.679   3.972  17.894  0.00  0.00    +0.000 A 
ATOM      5  C   UNL     1       3.807   2.692  18.418  0.00  0.00    +0.000 A 
ATOM      6  C   UNL     1       3.422   2.445  19.736  0.00  0.00    +0.000 A 
ATOM      7  C   UNL     1       2.859   3.465  20.521  0.00  0.00    +0.000 A 
ATOM      8  C   UNL     1       2.677   4.749  19.992  0.00  0.00    +0.000 A 
ATOM      9  C   UNL     1       1.984   5.820  20.743  0.00  0.00    +0.000 A 
ATOM     10  C   UNL     1       1.852   7.020  20.162  0.00  0.00    +0.000 A 
ATOM     11  N   UNL     1       2.394   7.272  18.913  0.00  0.00    +0.000 N 
ATOM     12  C   UNL     1       2.174   8.647  18.483  0.00  0.00    +0.000 C 
ATOM     13  C   UNL     1       1.374   9.219  19.609  0.00  0.00    +0.000 A 
ATOM     14  C   UNL     1       1.177   8.262  20.598  0.00  0.00    +0.000 A 
ATOM     15  N   UNL     1       0.462   8.461  21.716  0.00  0.00    +0.000 NA
ATOM     16  C   UNL     1      -0.080   9.691  21.859  0.00  0.00    +0.000 A 
ATOM     17  C   UNL     1      -0.845   9.946  22.995  0.00  0.00    +0.000 A 
ATOM     18  C   UNL     1      -1.431  11.194  23.246  0.00  0.00    +0.000 A 
ATOM     19  C   UNL     1      -1.259  12.224  22.338  0.00  0.00    +0.000 A 
ATOM     20 CL   UNL     1      -1.950  13.770  22.633  0.00  0.00    +0.000 Cl
ATOM     21  C   UNL     1      -0.520  12.006  21.182  0.00  0.00    +0.000 A 
ATOM     22  C   UNL     1       0.083  10.751  20.911  0.00  0.00    +0.000 A 
ATOM     23  C   UNL     1       0.848  10.500  19.743  0.00  0.00    +0.000 A 
ENDROOT
BRANCH  23  24
ATOM     24  C   UNL     1       1.136  11.522  18.664  0.00  0.00    +0.000 C 
BRANCH  24  25
ATOM     25  N   UNL     1       2.059  12.557  19.138  0.00  0.00    +0.000 NA
ATOM     26  H   UNL     1       2.641  12.152  19.872  0.00  0.00    +0.000 HD
BRANCH  25  27
ATOM     27  C   UNL     1       2.940  12.994  18.041  0.00  0.00    +0.000 C 
BRANCH  27  28
ATOM     28  C   UNL     1       3.522  14.384  18.316  0.00  0.00    +0.000 C 
BRANCH  28  29
ATOM     29  O   UNL     1       3.525  15.164  17.123  0.00  0.00    +0.000 OA
ATOM     30  H   UNL     1       2.737  15.733  17.176  0.00  0.00    +0.000 HD
ENDBRANCH  28  29
ENDBRANCH  27  28
ENDBRANCH  25  27
ENDBRANCH  24  25
ENDBRANCH  23  24
TORSDOF 5
ENDMDL
