MODEL 1
REMARK VINA RESULT:      -9.1      0.000      0.000
REMARK  Name = 
REMARK  3 active torsions:
REMARK  status: ('A' for Active; 'I' for Inactive)
REMARK    1  A    between atoms: C_2  and  C_4
REMARK    2  A    between atoms: C_10  and  C_11
REMARK    3  A    between atoms: C_15  and  C_16
REMARK                            x       y       z     vdW  Elec       q    Type
REMARK                         _______ _______ _______ _____ _____    ______ ____
ROOT
ATOM      1  C   UNL     1       3.402   3.344  19.803  0.00  0.00    +0.000 A 
ATOM      2  C   UNL     1       2.106   3.193  20.329  0.00  0.00    +0.000 A 
ATOM      3  F   UNL     1       1.616   1.976  20.616  0.00  0.00    +0.000 F 
ATOM      4  C   UNL     1       1.282   4.285  20.569  0.00  0.00    +0.000 A 
ATOM      5  C   UNL     1       1.745   5.560  20.286  0.00  0.00    +0.000 A 
ATOM      6  C   UNL     1       3.021   5.726  19.742  0.00  0.00    +0.000 A 
ATOM      7  C   UNL     1       3.889   4.637  19.478  0.00  0.00    +0.000 A 
ENDROOT
BRANCH   7   8
ATOM      8  C   UNL     1       5.194   4.930  18.812  0.00  0.00    +0.000 A 
ATOM      9  C   UNL     1       6.291   5.451  19.528  0.00  0.00    +0.000 A 
ATOM     10  C   UNL     1       7.484   5.813  18.889  0.00  0.00    +0.000 A 
ATOM     11  C   UNL     1       7.627   5.624  17.517  0.00  0.00    +0.000 A 
ATOM     12  C   UNL     1       6.575   5.080  16.777  0.00  0.00    +0.000 A 
ATOM     13  C   UNL     1       5.367   4.775  17.425  0.00  0.00    +0.000 A 
BRANCH  12  14
ATOM     14  C   UNL     1       6.713   4.824  15.346  0.00  0.00    +0.000 A 
ATOM     15  C   UNL     1       5.994   3.874  14.568  0.00  0.00    +0.000 A 
ATOM     16  C   UNL     1       6.436   4.039  13.280  0.00  0.00    +0.000 A 
ATOM     17  N   UNL     1       7.375   5.023  13.340  0.00  0.00    +0.000 N 
ATOM     18  N   UNL     1       7.577   5.505  14.574  0.00  0.00    +0.000 NA
ATOM     19  H   UNL     1       7.915   5.419  12.578  0.00  0.00    +0.000 HD
ENDBRANCH  12  14
ENDBRANCH   7   8
BRANCH   1  21
ATOM     20  N   UNL     1       4.003   1.335  18.552  0.00  0.00    +0.000 N 
ATOM     21  C   UNL     1       4.217   2.105  19.662  0.00  0.00    +0.000 C 
ATOM     22  O   UNL     1       5.054   1.770  20.491  0.00  0.00    +0.000 OA
ATOM     23  H   UNL     1       4.477   0.441  18.520  0.00  0.00    +0.000 HD
ATOM     24  H   UNL     1       3.168   1.437  17.984  0.00  0.00    +0.000 HD
ENDBRANCH   1  21
TORSDOF 3
ENDMDL
MODEL 2
REMARK VINA RESULT:      -8.5      1.247      1.247
REMARK  Name = 
REMARK  3 active torsions:
REMARK  status: ('A' for Active; 'I' for Inactive)
REMARK    1  A    between atoms: C_2  and  C_4
REMARK    2  A    between atoms: C_10  and  C_11
REMARK    3  A    between atoms: C_15  and  C_16
REMARK                            x       y       z     vdW  Elec       q    Type
REMARK                         _______ _______ _______ _____ _____    ______ ____
ROOT
ATOM      1  C   UNL     1       2.648   3.374  18.844  0.00  0.00    +0.000 A 
ATOM      2  C   UNL     1       1.344   3.286  19.361  0.00  0.00    +0.000 A 
ATOM      3  F   UNL     1       0.522   2.290  18.992  0.00  0.00    +0.000 F 
ATOM      4  C   UNL     1       0.851   4.217  20.266  0.00  0.00    +0.000 A 
ATOM      5  C   UNL     1       1.663   5.263  20.674  0.00  0.00    +0.000 A 
ATOM      6  C   UNL     1       2.954   5.379  20.154  0.00  0.00    +0.000 A 
ATOM      7  C   UNL     1       3.491   4.452  19.224  0.00  0.00    +0.000 A 
ENDROOT
BRANCH   7   8
ATOM      8  C   UNL     1       4.850   4.729  18.668  0.00  0.00    +0.000 A 
ATOM      9  C   UNL     1       5.910   5.167  19.487  0.00  0.00    +0.000 A 
ATOM     10  C   UNL     1       7.158   5.516  18.954  0.00  0.00    +0.000 A 
ATOM     11  C   UNL     1       7.392   5.396  17.587  0.00  0.00    +0.000 A 
ATOM     12  C   UNL     1       6.377   4.934  16.746  0.00  0.00    +0.000 A 
ATOM     13  C   UNL     1       5.116   4.643  17.291  0.00  0.00    +0.000 A 
BRANCH  12  14
ATOM     14  C   UNL     1       6.607   4.751  15.316  0.00  0.00    +0.000 A 
ATOM     15  C   UNL     1       5.946   3.838  14.447  0.00  0.00    +0.000 A 
ATOM     16  C   UNL     1       6.468   4.069  13.200  0.00  0.00    +0.000 A 
ATOM     17  N   UNL     1       7.395   5.052  13.369  0.00  0.00    +0.000 N 
ATOM     18  N   UNL     1       7.515   5.472  14.636  0.00  0.00    +0.000 NA
ATOM     19  H   UNL     1       7.980   5.487  12.664  0.00  0.00    +0.000 HD
ENDBRANCH  12  14
ENDBRANCH   7   8
BRANCH   1  21
ATOM     20  N   UNL     1       3.963   1.354  18.451  0.00  0.00    +0.000 N 
ATOM     21  C   UNL     1       3.089   2.274  17.941  0.00  0.00    +0.000 C 
ATOM     22  O   UNL     1       2.697   2.174  16.786  0.00  0.00    +0.000 OA
ATOM     23  H   UNL     1       4.344   0.679  17.801  0.00  0.00    +0.000 HD
ATOM     24  H   UNL     1       4.495   1.535  19.297  0.00  0.00    +0.000 HD
ENDBRANCH   1  21
TORSDOF 3
ENDMDL
MODEL 3
REMARK VINA RESULT:      -8.4      1.064      1.115
REMARK  Name = 
REMARK  3 active torsions:
REMARK  status: ('A' for Active; 'I' for Inactive)
REMARK    1  A    between atoms: C_2  and  C_4
REMARK    2  A    between atoms: C_10  and  C_11
REMARK    3  A    between atoms: C_15  and  C_16
REMARK                            x       y       z     vdW  Elec       q    Type
REMARK                         _______ _______ _______ _____ _____    ______ ____
ROOT
ATOM      1  C   UNL     1       3.297   3.300  19.669  0.00  0.00    +0.000 A 
ATOM      2  C   UNL     1       2.032   3.189  20.273  0.00  0.00    +0.000 A 
ATOM      3  F   UNL     1       1.480   1.986  20.499  0.00  0.00    +0.000 F 
ATOM      4  C   UNL     1       1.303   4.308  20.655  0.00  0.00    +0.000 A 
ATOM      5  C   UNL     1       1.833   5.570  20.439  0.00  0.00    +0.000 A 
ATOM      6  C   UNL     1       3.078   5.699  19.820  0.00  0.00    +0.000 A 
ATOM      7  C   UNL     1       3.851   4.582  19.411  0.00  0.00    +0.000 A 
ENDROOT
BRANCH   7   8
ATOM      8  C   UNL     1       5.125   4.845  18.678  0.00  0.00    +0.000 A 
ATOM      9  C   UNL     1       6.239   5.431  19.315  0.00  0.00    +0.000 A 
ATOM     10  C   UNL     1       7.402   5.763  18.608  0.00  0.00    +0.000 A 
ATOM     11  C   UNL     1       7.498   5.480  17.249  0.00  0.00    +0.000 A 
ATOM     12  C   UNL     1       6.430   4.870  16.588  0.00  0.00    +0.000 A 
ATOM     13  C   UNL     1       5.251   4.596  17.300  0.00  0.00    +0.000 A 
BRANCH  12  14
ATOM     14  C   UNL     1       6.520   4.516  15.174  0.00  0.00    +0.000 A 
ATOM     15  C   UNL     1       7.326   5.139  14.180  0.00  0.00    +0.000 A 
ATOM     16  C   UNL     1       7.105   4.429  13.027  0.00  0.00    +0.000 A 
ATOM     17  N   UNL     1       6.199   3.468  13.357  0.00  0.00    +0.000 N 
ATOM     18  N   UNL     1       5.813   3.505  14.641  0.00  0.00    +0.000 NA
ATOM     19  H   UNL     1       5.802   2.751  12.759  0.00  0.00    +0.000 HD
ENDBRANCH  12  14
ENDBRANCH   7   8
BRANCH   1  21
ATOM     20  N   UNL     1       5.067   1.698  20.184  0.00  0.00    +0.000 N 
ATOM     21  C   UNL     1       4.015   2.028  19.374  0.00  0.00    +0.000 C 
ATOM     22  O   UNL     1       3.693   1.289  18.452  0.00  0.00    +0.000 OA
ATOM     23  H   UNL     1       5.617   0.895  19.909  0.00  0.00    +0.000 HD
ATOM     24  H   UNL     1       5.514   2.383  20.784  0.00  0.00    +0.000 HD
ENDBRANCH   1  21
TORSDOF 3
ENDMDL
MODEL 4
REMARK VINA RESULT:      -8.4      1.209      1.259
REMARK  Name = 
REMARK  3 active torsions:
REMARK  status: ('A' for Active; 'I' for Inactive)
REMARK    1  A    between atoms: C_2  and  C_4
REMARK    2  A    between atoms: C_10  and  C_11
REMARK    3  A    between atoms: C_15  and  C_16
REMARK                            x       y       z     vdW  Elec       q    Type
REMARK                         _______ _______ _______ _____ _____    ______ ____
ROOT
ATOM      1  C   UNL     1       3.216   2.718  18.918  0.00  0.00    +0.000 A 
ATOM      2  C   UNL     1       1.866   2.407  19.163  0.00  0.00    +0.000 A 
ATOM      3  F   UNL     1       1.524   1.275  19.799  0.00  0.00    +0.000 F 
ATOM      4  C   UNL     1       0.837   3.248  18.759  0.00  0.00    +0.000 A 
ATOM      5  C   UNL     1       1.142   4.426  18.098  0.00  0.00    +0.000 A 
ATOM      6  C   UNL     1       2.476   4.740  17.826  0.00  0.00    +0.000 A 
ATOM      7  C   UNL     1       3.554   3.906  18.217  0.00  0.00    +0.000 A 
ENDROOT
BRANCH   7   8
ATOM      8  C   UNL     1       4.931   4.300  17.793  0.00  0.00    +0.000 A 
ATOM      9  C   UNL     1       5.907   4.706  18.726  0.00  0.00    +0.000 A 
ATOM     10  C   UNL     1       7.168   5.164  18.324  0.00  0.00    +0.000 A 
ATOM     11  C   UNL     1       7.503   5.189  16.973  0.00  0.00    +0.000 A 
ATOM     12  C   UNL     1       6.576   4.764  16.018  0.00  0.00    +0.000 A 
ATOM     13  C   UNL     1       5.297   4.362  16.437  0.00  0.00    +0.000 A 
BRANCH  12  14
ATOM     14  C   UNL     1       6.915   4.733  14.598  0.00  0.00    +0.000 A 
ATOM     15  C   UNL     1       6.316   3.930  13.588  0.00  0.00    +0.000 A 
ATOM     16  C   UNL     1       6.936   4.286  12.416  0.00  0.00    +0.000 A 
ATOM     17  N   UNL     1       7.855   5.230  12.762  0.00  0.00    +0.000 N 
ATOM     18  N   UNL     1       7.879   5.509  14.073  0.00  0.00    +0.000 NA
ATOM     19  H   UNL     1       8.496   5.729  12.155  0.00  0.00    +0.000 HD
ENDBRANCH  12  14
ENDBRANCH   7   8
BRANCH   1  21
ATOM     20  N   UNL     1       4.461   0.623  18.770  0.00  0.00    +0.000 N 
ATOM     21  C   UNL     1       4.232   1.777  19.467  0.00  0.00    +0.000 C 
ATOM     22  O   UNL     1       4.852   2.006  20.498  0.00  0.00    +0.000 OA
ATOM     23  H   UNL     1       5.066  -0.060  19.207  0.00  0.00    +0.000 HD
ATOM     24  H   UNL     1       3.810   0.284  18.069  0.00  0.00    +0.000 HD
ENDBRANCH   1  21
TORSDOF 3
ENDMDL
MODEL 5
REMARK VINA RESULT:      -8.4      2.175      2.635
REMARK  Name = 
REMARK  3 active torsions:
REMARK  status: ('A' for Active; 'I' for Inactive)
REMARK    1  A    between atoms: C_2  and  C_4
REMARK    2  A    between atoms: C_10  and  C_11
REMARK    3  A    between atoms: C_15  and  C_16
REMARK                            x       y       z     vdW  Elec       q    Type
REMARK                         _______ _______ _______ _____ _____    ______ ____
ROOT
ATOM      1  C   UNL     1       2.484   4.470  18.993  0.00  0.00    +0.000 A 
ATOM      2  C   UNL     1       1.368   3.766  19.479  0.00  0.00    +0.000 A 
ATOM      3  F   UNL     1       0.383   4.402  20.133  0.00  0.00    +0.000 F 
ATOM      4  C   UNL     1       1.238   2.393  19.309  0.00  0.00    +0.000 A 
ATOM      5  C   UNL     1       2.232   1.695  18.642  0.00  0.00    +0.000 A 
ATOM      6  C   UNL     1       3.357   2.375  18.172  0.00  0.00    +0.000 A 
ATOM      7  C   UNL     1       3.529   3.774  18.330  0.00  0.00    +0.000 A 
ENDROOT
BRANCH   7   8
ATOM      8  C   UNL     1       4.815   4.377  17.867  0.00  0.00    +0.000 A 
ATOM      9  C   UNL     1       5.660   5.085  18.746  0.00  0.00    +0.000 A 
ATOM     10  C   UNL     1       6.819   5.730  18.295  0.00  0.00    +0.000 A 
ATOM     11  C   UNL     1       7.187   5.648  16.955  0.00  0.00    +0.000 A 
ATOM     12  C   UNL     1       6.394   4.930  16.058  0.00  0.00    +0.000 A 
ATOM     13  C   UNL     1       5.206   4.337  16.518  0.00  0.00    +0.000 A 
BRANCH  12  14
ATOM     14  C   UNL     1       6.779   4.786  14.657  0.00  0.00    +0.000 A 
ATOM     15  C   UNL     1       6.199   3.918  13.690  0.00  0.00    +0.000 A 
ATOM     16  C   UNL     1       6.863   4.175  12.517  0.00  0.00    +0.000 A 
ATOM     17  N   UNL     1       7.787   5.127  12.822  0.00  0.00    +0.000 N 
ATOM     18  N   UNL     1       7.773   5.504  14.108  0.00  0.00    +0.000 NA
ATOM     19  H   UNL     1       8.458   5.569  12.202  0.00  0.00    +0.000 HD
ENDBRANCH  12  14
ENDBRANCH   7   8
BRANCH   1  21
ATOM     20  N   UNL     1       2.630   6.433  20.438  0.00  0.00    +0.000 N 
ATOM     21  C   UNL     1       2.473   5.950  19.169  0.00  0.00    +0.000 C 
ATOM     22  O   UNL     1       2.332   6.723  18.230  0.00  0.00    +0.000 OA
ATOM     23  H   UNL     1       2.508   7.429  20.565  0.00  0.00    +0.000 HD
ATOM     24  H   UNL     1       2.499   5.843  21.254  0.00  0.00    +0.000 HD
ENDBRANCH   1  21
TORSDOF 3
ENDMDL
MODEL 6
REMARK VINA RESULT:      -8.2      2.003      2.472
REMARK  Name = 
REMARK  3 active torsions:
REMARK  status: ('A' for Active; 'I' for Inactive)
REMARK    1  A    between atoms: C_2  and  C_4
REMARK    2  A    between atoms: C_10  and  C_11
REMARK    3  A    between atoms: C_15  and  C_16
REMARK                            x       y       z     vdW  Elec       q    Type
REMARK                         _______ _______ _______ _____ _____    ______ ____
ROOT
ATOM      1  C   UNL     1       2.916   4.630  19.673  0.00  0.00    +0.000 A 
ATOM      2  C   UNL     1       1.933   4.004  20.459  0.00  0.00    +0.000 A 
ATOM      3  F   UNL     1       0.770   4.619  20.729  0.00  0.00    +0.000 F 
ATOM      4  C   UNL     1       2.120   2.733  20.990  0.00  0.00    +0.000 A 
ATOM      5  C   UNL     1       3.305   2.061  20.739  0.00  0.00    +0.000 A 
ATOM      6  C   UNL     1       4.301   2.678  19.979  0.00  0.00    +0.000 A 
ATOM      7  C   UNL     1       4.151   3.974  19.425  0.00  0.00    +0.000 A 
ENDROOT
BRANCH   7   8
ATOM      8  C   UNL     1       5.318   4.567  18.706  0.00  0.00    +0.000 A 
ATOM      9  C   UNL     1       6.282   5.349  19.377  0.00  0.00    +0.000 A 
ATOM     10  C   UNL     1       7.325   5.982  18.690  0.00  0.00    +0.000 A 
ATOM     11  C   UNL     1       7.457   5.816  17.314  0.00  0.00    +0.000 A 
ATOM     12  C   UNL     1       6.543   5.024  16.617  0.00  0.00    +0.000 A 
ATOM     13  C   UNL     1       5.470   4.443  17.315  0.00  0.00    +0.000 A 
BRANCH  12  14
ATOM     14  C   UNL     1       6.683   4.791  15.183  0.00  0.00    +0.000 A 
ATOM     15  C   UNL     1       5.920   3.902  14.376  0.00  0.00    +0.000 A 
ATOM     16  C   UNL     1       6.388   4.069  13.097  0.00  0.00    +0.000 A 
ATOM     17  N   UNL     1       7.383   4.994  13.190  0.00  0.00    +0.000 N 
ATOM     18  N   UNL     1       7.597   5.436  14.437  0.00  0.00    +0.000 NA
ATOM     19  H   UNL     1       7.955   5.373  12.443  0.00  0.00    +0.000 HD
ENDBRANCH  12  14
ENDBRANCH   7   8
BRANCH   1  21
ATOM     20  N   UNL     1       2.688   7.049  19.914  0.00  0.00    +0.000 N 
ATOM     21  C   UNL     1       2.568   5.960  19.097  0.00  0.00    +0.000 C 
ATOM     22  O   UNL     1       2.190   6.097  17.940  0.00  0.00    +0.000 OA
ATOM     23  H   UNL     1       2.343   7.929  19.553  0.00  0.00    +0.000 HD
ATOM     24  H   UNL     1       2.751   6.956  20.923  0.00  0.00    +0.000 HD
ENDBRANCH   1  21
TORSDOF 3
ENDMDL
MODEL 7
REMARK VINA RESULT:      -7.9      2.815      3.982
REMARK  Name = 
REMARK  3 active torsions:
REMARK  status: ('A' for Active; 'I' for Inactive)
REMARK    1  A    between atoms: C_2  and  C_4
REMARK    2  A    between atoms: C_10  and  C_11
REMARK    3  A    between atoms: C_15  and  C_16
REMARK                            x       y       z     vdW  Elec       q    Type
REMARK                         _______ _______ _______ _____ _____    ______ ____
ROOT
ATOM      1  C   UNL     1       2.436   4.553  18.787  0.00  0.00    +0.000 A 
ATOM      2  C   UNL     1       1.427   3.915  19.530  0.00  0.00    +0.000 A 
ATOM      3  F   UNL     1       0.633   4.614  20.357  0.00  0.00    +0.000 F 
ATOM      4  C   UNL     1       1.211   2.545  19.446  0.00  0.00    +0.000 A 
ATOM      5  C   UNL     1       2.007   1.784  18.606  0.00  0.00    +0.000 A 
ATOM      6  C   UNL     1       3.028   2.397  17.878  0.00  0.00    +0.000 A 
ATOM      7  C   UNL     1       3.284   3.791  17.941  0.00  0.00    +0.000 A 
ENDROOT
BRANCH   7   8
ATOM      8  C   UNL     1       4.460   4.320  17.188  0.00  0.00    +0.000 A 
ATOM      9  C   UNL     1       4.781   3.857  15.895  0.00  0.00    +0.000 A 
ATOM     10  C   UNL     1       5.935   4.284  15.224  0.00  0.00    +0.000 A 
ATOM     11  C   UNL     1       6.780   5.220  15.815  0.00  0.00    +0.000 A 
ATOM     12  C   UNL     1       6.480   5.727  17.080  0.00  0.00    +0.000 A 
ATOM     13  C   UNL     1       5.349   5.246  17.761  0.00  0.00    +0.000 A 
BRANCH  12  14
ATOM     14  C   UNL     1       7.320   6.746  17.704  0.00  0.00    +0.000 A 
ATOM     15  C   UNL     1       7.492   8.095  17.285  0.00  0.00    +0.000 A 
ATOM     16  C   UNL     1       8.333   8.665  18.207  0.00  0.00    +0.000 A 
ATOM     17  N   UNL     1       8.634   7.672  19.089  0.00  0.00    +0.000 N 
ATOM     18  N   UNL     1       8.052   6.498  18.803  0.00  0.00    +0.000 NA
ATOM     19  H   UNL     1       9.226   7.724  19.911  0.00  0.00    +0.000 HD
ENDBRANCH  12  14
ENDBRANCH   7   8
BRANCH   1  21
ATOM     20  N   UNL     1       2.962   6.549  20.092  0.00  0.00    +0.000 N 
ATOM     21  C   UNL     1       2.520   6.036  18.904  0.00  0.00    +0.000 C 
ATOM     22  O   UNL     1       2.213   6.787  17.986  0.00  0.00    +0.000 OA
ATOM     23  H   UNL     1       2.907   7.553  20.203  0.00  0.00    +0.000 HD
ATOM     24  H   UNL     1       2.984   5.990  20.939  0.00  0.00    +0.000 HD
ENDBRANCH   1  21
TORSDOF 3
ENDMDL
MODEL 8
REMARK VINA RESULT:      -7.9      1.977      3.063
REMARK  Name = 
REMARK  3 active torsions:
REMARK  status: ('A' for Active; 'I' for Inactive)
REMARK    1  A    between atoms: C_2  and  C_4
REMARK    2  A    between atoms: C_10  and  C_11
REMARK    3  A    between atoms: C_15  and  C_16
REMARK                            x       y       z     vdW  Elec       q    Type
REMARK                         _______ _______ _______ _____ _____    ______ ____
ROOT
ATOM      1  C   UNL     1       3.106   3.127  19.620  0.00  0.00    +0.000 A 
ATOM      2  C   UNL     1       1.974   2.848  20.406  0.00  0.00    +0.000 A 
ATOM      3  F   UNL     1       1.824   1.653  20.999  0.00  0.00    +0.000 F 
ATOM      4  C   UNL     1       0.968   3.786  20.600  0.00  0.00    +0.000 A 
ATOM      5  C   UNL     1       1.079   5.033  20.006  0.00  0.00    +0.000 A 
ATOM      6  C   UNL     1       2.186   5.319  19.203  0.00  0.00    +0.000 A 
ATOM      7  C   UNL     1       3.230   4.387  18.977  0.00  0.00    +0.000 A 
ENDROOT
BRANCH   7   8
ATOM      8  C   UNL     1       4.317   4.773  18.028  0.00  0.00    +0.000 A 
ATOM      9  C   UNL     1       4.457   4.152  16.769  0.00  0.00    +0.000 A 
ATOM     10  C   UNL     1       5.529   4.445  15.917  0.00  0.00    +0.000 A 
ATOM     11  C   UNL     1       6.471   5.402  16.284  0.00  0.00    +0.000 A 
ATOM     12  C   UNL     1       6.351   6.063  17.509  0.00  0.00    +0.000 A 
ATOM     13  C   UNL     1       5.301   5.714  18.374  0.00  0.00    +0.000 A 
BRANCH  12  14
ATOM     14  C   UNL     1       7.296   7.105  17.900  0.00  0.00    +0.000 A 
ATOM     15  C   UNL     1       7.401   8.418  17.362  0.00  0.00    +0.000 A 
ATOM     16  C   UNL     1       8.396   9.033  18.079  0.00  0.00    +0.000 A 
ATOM     17  N   UNL     1       8.841   8.098  18.962  0.00  0.00    +0.000 N 
ATOM     18  N   UNL     1       8.210   6.919  18.868  0.00  0.00    +0.000 NA
ATOM     19  H   UNL     1       9.570   8.195  19.661  0.00  0.00    +0.000 HD
ENDBRANCH  12  14
ENDBRANCH   7   8
BRANCH   1  21
ATOM     20  N   UNL     1       4.034   1.133  18.558  0.00  0.00    +0.000 N 
ATOM     21  C   UNL     1       4.152   2.068  19.549  0.00  0.00    +0.000 C 
ATOM     22  O   UNL     1       5.090   2.018  20.334  0.00  0.00    +0.000 OA
ATOM     23  H   UNL     1       4.681   0.356  18.587  0.00  0.00    +0.000 HD
ATOM     24  H   UNL     1       3.162   0.992  18.058  0.00  0.00    +0.000 HD
ENDBRANCH   1  21
TORSDOF 3
ENDMDL
MODEL 9
REMARK VINA RESULT:      -7.7      1.899      2.280
REMARK  Name = 
REMARK  3 active torsions:
REMARK  status: ('A' for Active; 'I' for Inactive)
REMARK    1  A    between atoms: C_2  and  C_4
REMARK    2  A    between atoms: C_10  and  C_11
REMARK    3  A    between atoms: C_15  and  C_16
REMARK                            x       y       z     vdW  Elec       q    Type
REMARK                         _______ _______ _______ _____ _____    ______ ____
ROOT
ATOM      1  C   UNL     1       2.449   3.074  19.099  0.00  0.00    +0.000 A 
ATOM      2  C   UNL     1       1.794   2.257  20.038  0.00  0.00    +0.000 A 
ATOM      3  F   UNL     1       1.431   1.002  19.726  0.00  0.00    +0.000 F 
ATOM      4  C   UNL     1       1.493   2.709  21.317  0.00  0.00    +0.000 A 
ATOM      5  C   UNL     1       1.847   3.997  21.682  0.00  0.00    +0.000 A 
ATOM      6  C   UNL     1       2.478   4.829  20.755  0.00  0.00    +0.000 A 
ATOM      7  C   UNL     1       2.797   4.408  19.439  0.00  0.00    +0.000 A 
ENDROOT
BRANCH   7   8
ATOM      8  C   UNL     1       3.389   5.414  18.508  0.00  0.00    +0.000 A 
ATOM      9  C   UNL     1       2.979   6.763  18.516  0.00  0.00    +0.000 A 
ATOM     10  C   UNL     1       3.465   7.687  17.582  0.00  0.00    +0.000 A 
ATOM     11  C   UNL     1       4.409   7.295  16.638  0.00  0.00    +0.000 A 
ATOM     12  C   UNL     1       4.866   5.975  16.617  0.00  0.00    +0.000 A 
ATOM     13  C   UNL     1       4.325   5.049  17.525  0.00  0.00    +0.000 A 
BRANCH  12  14
ATOM     14  C   UNL     1       5.891   5.546  15.670  0.00  0.00    +0.000 A 
ATOM     15  C   UNL     1       5.731   4.653  14.574  0.00  0.00    +0.000 A 
ATOM     16  C   UNL     1       6.956   4.600  13.958  0.00  0.00    +0.000 A 
ATOM     17  N   UNL     1       7.768   5.410  14.691  0.00  0.00    +0.000 N 
ATOM     18  N   UNL     1       7.160   5.982  15.740  0.00  0.00    +0.000 NA
ATOM     19  H   UNL     1       8.747   5.623  14.531  0.00  0.00    +0.000 HD
ENDBRANCH  12  14
ENDBRANCH   7   8
BRANCH   1  21
ATOM     20  N   UNL     1       3.868   1.617  17.747  0.00  0.00    +0.000 N 
ATOM     21  C   UNL     1       2.785   2.452  17.787  0.00  0.00    +0.000 C 
ATOM     22  O   UNL     1       2.134   2.663  16.773  0.00  0.00    +0.000 OA
ATOM     23  H   UNL     1       4.157   1.291  16.834  0.00  0.00    +0.000 HD
ATOM     24  H   UNL     1       4.567   1.613  18.484  0.00  0.00    +0.000 HD
ENDBRANCH   1  21
TORSDOF 3
ENDMDL
