MODEL 1
REMARK VINA RESULT:      -7.7      0.000      0.000
REMARK  Name = 
REMARK  6 active torsions:
REMARK  status: ('A' for Active; 'I' for Inactive)
REMARK    1  A    between atoms: C_1  and  C_2
REMARK    2  A    between atoms: C_2  and  C_4
REMARK    3  A    between atoms: N_8  and  C_9
REMARK    4  A    between atoms: C_11  and  C_12
REMARK    5  A    between atoms: C_11  and  C_13
REMARK    6  A    between atoms: C_18  and  C_19
REMARK                            x       y       z     vdW  Elec       q    Type
REMARK                         _______ _______ _______ _____ _____    ______ ____
ROOT
ATOM      1  C   UNL     1       4.411   4.266  17.728  0.00  0.00    +0.000 C 
ATOM      2  C   UNL     1       4.406   3.069  18.342  0.00  0.00    +0.000 C 
ATOM      3  C   UNL     1       3.563   2.668  19.515  0.00  0.00    +0.000 C 
ATOM      4  C   UNL     1       4.482   2.188  20.644  0.00  0.00    +0.000 C 
ATOM      5  C   UNL     1       2.630   1.524  19.093  0.00  0.00    +0.000 C 
ATOM      6  O   UNL     1       2.745   3.704  20.070  0.00  0.00    +0.000 OA
ATOM      7  C   UNL     1       2.772   4.943  19.496  0.00  0.00    +0.000 A 
ATOM      8  C   UNL     1       1.944   5.879  20.132  0.00  0.00    +0.000 A 
ATOM      9  C   UNL     1       1.854   7.184  19.658  0.00  0.00    +0.000 A 
ATOM     10  C   UNL     1       2.565   7.546  18.516  0.00  0.00    +0.000 A 
ATOM     11  C   UNL     1       3.364   6.593  17.863  0.00  0.00    +0.000 A 
ATOM     12  C   UNL     1       3.527   5.286  18.364  0.00  0.00    +0.000 A 
ENDROOT
BRANCH   1  17
ATOM     13  C   UNL     1       6.559   5.020  16.566  0.00  0.00    +0.000 A 
ATOM     14  C   UNL     1       6.933   5.125  15.231  0.00  0.00    +0.000 A 
ATOM     15  C   UNL     1       5.887   4.657  14.426  0.00  0.00    +0.000 A 
ATOM     16  C   UNL     1       4.863   4.327  15.274  0.00  0.00    +0.000 A 
ATOM     17  N   UNL     1       5.247   4.500  16.600  0.00  0.00    +0.000 N 
BRANCH  13  19
ATOM     18  C   UNL     1       7.605   6.762  18.088  0.00  0.00    +0.000 C 
ATOM     19  C   UNL     1       7.413   5.308  17.719  0.00  0.00    +0.000 C 
ATOM     20  O   UNL     1       8.009   4.453  18.375  0.00  0.00    +0.000 OA
ENDBRANCH  13  19
ENDBRANCH   1  17
BRANCH  10  21
ATOM     21  C   UNL     1       2.500   8.892  18.022  0.00  0.00    +0.000 C 
ATOM     22  N   UNL     1       2.438   9.970  17.600  0.00  0.00    +0.000 NA
ENDBRANCH  10  21
TORSDOF 3
ENDMDL
MODEL 2
REMARK VINA RESULT:      -7.0      2.254      5.957
REMARK  Name = 
REMARK  6 active torsions:
REMARK  status: ('A' for Active; 'I' for Inactive)
REMARK    1  A    between atoms: C_1  and  C_2
REMARK    2  A    between atoms: C_2  and  C_4
REMARK    3  A    between atoms: N_8  and  C_9
REMARK    4  A    between atoms: C_11  and  C_12
REMARK    5  A    between atoms: C_11  and  C_13
REMARK    6  A    between atoms: C_18  and  C_19
REMARK                            x       y       z     vdW  Elec       q    Type
REMARK                         _______ _______ _______ _____ _____    ______ ____
ROOT
ATOM      1  C   UNL     1       4.981   5.101  16.938  0.00  0.00    +0.000 C 
ATOM      2  C   UNL     1       5.786   5.695  17.837  0.00  0.00    +0.000 C 
ATOM      3  C   UNL     1       7.181   6.191  17.599  0.00  0.00    +0.000 C 
ATOM      4  C   UNL     1       8.123   5.519  18.604  0.00  0.00    +0.000 C 
ATOM      5  C   UNL     1       7.213   7.712  17.804  0.00  0.00    +0.000 C 
ATOM      6  O   UNL     1       7.717   5.923  16.298  0.00  0.00    +0.000 OA
ATOM      7  C   UNL     1       6.937   5.275  15.385  0.00  0.00    +0.000 A 
ATOM      8  C   UNL     1       7.572   5.054  14.154  0.00  0.00    +0.000 A 
ATOM      9  C   UNL     1       6.903   4.414  13.116  0.00  0.00    +0.000 A 
ATOM     10  C   UNL     1       5.577   4.027  13.294  0.00  0.00    +0.000 A 
ATOM     11  C   UNL     1       4.935   4.283  14.518  0.00  0.00    +0.000 A 
ATOM     12  C   UNL     1       5.614   4.866  15.607  0.00  0.00    +0.000 A 
ENDROOT
BRANCH   1  17
ATOM     13  C   UNL     1       2.653   5.464  17.927  0.00  0.00    +0.000 A 
ATOM     14  C   UNL     1       1.561   4.626  18.127  0.00  0.00    +0.000 A 
ATOM     15  C   UNL     1       1.858   3.360  17.609  0.00  0.00    +0.000 A 
ATOM     16  C   UNL     1       3.148   3.420  17.152  0.00  0.00    +0.000 A 
ATOM     17  N   UNL     1       3.661   4.705  17.296  0.00  0.00    +0.000 N 
BRANCH  13  19
ATOM     18  C   UNL     1       2.294   7.314  19.629  0.00  0.00    +0.000 C 
ATOM     19  C   UNL     1       2.701   6.894  18.234  0.00  0.00    +0.000 C 
ATOM     20  O   UNL     1       3.010   7.769  17.425  0.00  0.00    +0.000 OA
ENDBRANCH  13  19
ENDBRANCH   1  17
BRANCH  10  21
ATOM     21  C   UNL     1       4.874   3.349  12.241  0.00  0.00    +0.000 C 
ATOM     22  N   UNL     1       4.322   2.813  11.374  0.00  0.00    +0.000 NA
ENDBRANCH  10  21
TORSDOF 3
ENDMDL
MODEL 3
REMARK VINA RESULT:      -6.8      1.738      2.557
REMARK  Name = 
REMARK  6 active torsions:
REMARK  status: ('A' for Active; 'I' for Inactive)
REMARK    1  A    between atoms: C_1  and  C_2
REMARK    2  A    between atoms: C_2  and  C_4
REMARK    3  A    between atoms: N_8  and  C_9
REMARK    4  A    between atoms: C_11  and  C_12
REMARK    5  A    between atoms: C_11  and  C_13
REMARK    6  A    between atoms: C_18  and  C_19
REMARK                            x       y       z     vdW  Elec       q    Type
REMARK                         _______ _______ _______ _____ _____    ______ ____
ROOT
ATOM      1  C   UNL     1       4.981   4.653  19.053  0.00  0.00    +0.000 C 
ATOM      2  C   UNL     1       5.148   3.321  19.145  0.00  0.00    +0.000 C 
ATOM      3  C   UNL     1       4.124   2.318  19.582  0.00  0.00    +0.000 C 
ATOM      4  C   UNL     1       4.685   1.522  20.767  0.00  0.00    +0.000 C 
ATOM      5  C   UNL     1       3.829   1.363  18.417  0.00  0.00    +0.000 C 
ATOM      6  O   UNL     1       2.873   2.863  20.016  0.00  0.00    +0.000 OA
ATOM      7  C   UNL     1       2.696   4.216  19.981  0.00  0.00    +0.000 A 
ATOM      8  C   UNL     1       1.440   4.635  20.443  0.00  0.00    +0.000 A 
ATOM      9  C   UNL     1       1.105   5.985  20.459  0.00  0.00    +0.000 A 
ATOM     10  C   UNL     1       2.015   6.921  19.973  0.00  0.00    +0.000 A 
ATOM     11  C   UNL     1       3.258   6.491  19.478  0.00  0.00    +0.000 A 
ATOM     12  C   UNL     1       3.648   5.137  19.517  0.00  0.00    +0.000 A 
ENDROOT
BRANCH   1  17
ATOM     13  C   UNL     1       6.265   5.985  17.290  0.00  0.00    +0.000 A 
ATOM     14  C   UNL     1       7.459   6.699  17.318  0.00  0.00    +0.000 A 
ATOM     15  C   UNL     1       7.971   6.679  18.622  0.00  0.00    +0.000 A 
ATOM     16  C   UNL     1       7.118   5.904  19.362  0.00  0.00    +0.000 A 
ATOM     17  N   UNL     1       6.037   5.488  18.592  0.00  0.00    +0.000 N 
BRANCH  13  19
ATOM     18  C   UNL     1       5.093   4.463  15.631  0.00  0.00    +0.000 C 
ATOM     19  C   UNL     1       5.371   5.859  16.140  0.00  0.00    +0.000 C 
ATOM     20  O   UNL     1       4.866   6.811  15.543  0.00  0.00    +0.000 OA
ENDBRANCH  13  19
ENDBRANCH   1  17
BRANCH  10  21
ATOM     21  C   UNL     1       1.695   8.320  19.997  0.00  0.00    +0.000 C 
ATOM     22  N   UNL     1       1.411   9.444  20.013  0.00  0.00    +0.000 NA
ENDBRANCH  10  21
TORSDOF 3
ENDMDL
MODEL 4
REMARK VINA RESULT:      -6.4      2.274      5.310
REMARK  Name = 
REMARK  6 active torsions:
REMARK  status: ('A' for Active; 'I' for Inactive)
REMARK    1  A    between atoms: C_1  and  C_2
REMARK    2  A    between atoms: C_2  and  C_4
REMARK    3  A    between atoms: N_8  and  C_9
REMARK    4  A    between atoms: C_11  and  C_12
REMARK    5  A    between atoms: C_11  and  C_13
REMARK    6  A    between atoms: C_18  and  C_19
REMARK                            x       y       z     vdW  Elec       q    Type
REMARK                         _______ _______ _______ _____ _____    ______ ____
ROOT
ATOM      1  C   UNL     1       2.507   6.376  19.152  0.00  0.00    +0.000 C 
ATOM      2  C   UNL     1       1.650   5.481  19.677  0.00  0.00    +0.000 C 
ATOM      3  C   UNL     1       1.944   4.049  20.008  0.00  0.00    +0.000 C 
ATOM      4  C   UNL     1       0.947   3.155  19.261  0.00  0.00    +0.000 C 
ATOM      5  C   UNL     1       1.784   3.842  21.520  0.00  0.00    +0.000 C 
ATOM      6  O   UNL     1       3.251   3.588  19.648  0.00  0.00    +0.000 OA
ATOM      7  C   UNL     1       4.122   4.464  19.067  0.00  0.00    +0.000 A 
ATOM      8  C   UNL     1       5.364   3.898  18.746  0.00  0.00    +0.000 A 
ATOM      9  C   UNL     1       6.362   4.667  18.157  0.00  0.00    +0.000 A 
ATOM     10  C   UNL     1       6.134   6.021  17.924  0.00  0.00    +0.000 A 
ATOM     11  C   UNL     1       4.900   6.590  18.282  0.00  0.00    +0.000 A 
ATOM     12  C   UNL     1       3.849   5.817  18.814  0.00  0.00    +0.000 A 
ENDROOT
BRANCH   1  17
ATOM     13  C   UNL     1       1.426   8.604  19.785  0.00  0.00    +0.000 A 
ATOM     14  C   UNL     1       1.187   9.780  19.083  0.00  0.00    +0.000 A 
ATOM     15  C   UNL     1       1.721   9.658  17.794  0.00  0.00    +0.000 A 
ATOM     16  C   UNL     1       2.227   8.389  17.702  0.00  0.00    +0.000 A 
ATOM     17  N   UNL     1       2.100   7.719  18.915  0.00  0.00    +0.000 N 
BRANCH  13  19
ATOM     18  C   UNL     1      -0.344   8.252  21.571  0.00  0.00    +0.000 C 
ATOM     19  C   UNL     1       1.116   8.372  21.196  0.00  0.00    +0.000 C 
ATOM     20  O   UNL     1       1.959   8.309  22.092  0.00  0.00    +0.000 OA
ENDBRANCH  13  19
ENDBRANCH   1  17
BRANCH  10  21
ATOM     21  C   UNL     1       7.145   6.828  17.302  0.00  0.00    +0.000 C 
ATOM     22  N   UNL     1       7.944   7.492  16.787  0.00  0.00    +0.000 NA
ENDBRANCH  10  21
TORSDOF 3
ENDMDL
MODEL 5
REMARK VINA RESULT:      -6.2      1.977      5.797
REMARK  Name = 
REMARK  6 active torsions:
REMARK  status: ('A' for Active; 'I' for Inactive)
REMARK    1  A    between atoms: C_1  and  C_2
REMARK    2  A    between atoms: C_2  and  C_4
REMARK    3  A    between atoms: N_8  and  C_9
REMARK    4  A    between atoms: C_11  and  C_12
REMARK    5  A    between atoms: C_11  and  C_13
REMARK    6  A    between atoms: C_18  and  C_19
REMARK                            x       y       z     vdW  Elec       q    Type
REMARK                         _______ _______ _______ _____ _____    ______ ____
ROOT
ATOM      1  C   UNL     1       5.094   5.276  17.354  0.00  0.00    +0.000 C 
ATOM      2  C   UNL     1       5.942   5.820  18.246  0.00  0.00    +0.000 C 
ATOM      3  C   UNL     1       7.366   6.220  17.999  0.00  0.00    +0.000 C 
ATOM      4  C   UNL     1       8.265   5.491  19.004  0.00  0.00    +0.000 C 
ATOM      5  C   UNL     1       7.501   7.736  18.195  0.00  0.00    +0.000 C 
ATOM      6  O   UNL     1       7.876   5.910  16.698  0.00  0.00    +0.000 OA
ATOM      7  C   UNL     1       7.051   5.310  15.791  0.00  0.00    +0.000 A 
ATOM      8  C   UNL     1       7.664   5.041  14.559  0.00  0.00    +0.000 A 
ATOM      9  C   UNL     1       6.949   4.441  13.528  0.00  0.00    +0.000 A 
ATOM     10  C   UNL     1       5.600   4.145  13.714  0.00  0.00    +0.000 A 
ATOM     11  C   UNL     1       4.983   4.450  14.938  0.00  0.00    +0.000 A 
ATOM     12  C   UNL     1       5.704   4.992  16.022  0.00  0.00    +0.000 A 
ENDROOT
BRANCH   1  17
ATOM     13  C   UNL     1       3.246   3.799  18.320  0.00  0.00    +0.000 A 
ATOM     14  C   UNL     1       1.866   3.943  18.421  0.00  0.00    +0.000 A 
ATOM     15  C   UNL     1       1.501   5.197  17.915  0.00  0.00    +0.000 A 
ATOM     16  C   UNL     1       2.652   5.781  17.457  0.00  0.00    +0.000 A 
ATOM     17  N   UNL     1       3.753   4.971  17.719  0.00  0.00    +0.000 N 
BRANCH  13  19
ATOM     18  C   UNL     1       3.714   1.304  18.275  0.00  0.00    +0.000 C 
ATOM     19  C   UNL     1       4.027   2.674  18.833  0.00  0.00    +0.000 C 
ATOM     20  O   UNL     1       4.888   2.767  19.709  0.00  0.00    +0.000 OA
ENDBRANCH  13  19
ENDBRANCH   1  17
BRANCH  10  21
ATOM     21  C   UNL     1       4.849   3.510  12.668  0.00  0.00    +0.000 C 
ATOM     22  N   UNL     1       4.242   3.020  11.811  0.00  0.00    +0.000 NA
ENDBRANCH  10  21
TORSDOF 3
ENDMDL
MODEL 6
REMARK VINA RESULT:      -6.2      1.218      1.284
REMARK  Name = 
REMARK  6 active torsions:
REMARK  status: ('A' for Active; 'I' for Inactive)
REMARK    1  A    between atoms: C_1  and  C_2
REMARK    2  A    between atoms: C_2  and  C_4
REMARK    3  A    between atoms: N_8  and  C_9
REMARK    4  A    between atoms: C_11  and  C_12
REMARK    5  A    between atoms: C_11  and  C_13
REMARK    6  A    between atoms: C_18  and  C_19
REMARK                            x       y       z     vdW  Elec       q    Type
REMARK                         _______ _______ _______ _____ _____    ______ ____
ROOT
ATOM      1  C   UNL     1       4.446   4.665  18.242  0.00  0.00    +0.000 C 
ATOM      2  C   UNL     1       4.683   3.366  18.497  0.00  0.00    +0.000 C 
ATOM      3  C   UNL     1       3.941   2.493  19.465  0.00  0.00    +0.000 C 
ATOM      4  C   UNL     1       4.941   1.900  20.464  0.00  0.00    +0.000 C 
ATOM      5  C   UNL     1       3.255   1.358  18.691  0.00  0.00    +0.000 C 
ATOM      6  O   UNL     1       2.934   3.152  20.241  0.00  0.00    +0.000 OA
ATOM      7  C   UNL     1       2.709   4.482  20.037  0.00  0.00    +0.000 A 
ATOM      8  C   UNL     1       1.712   5.021  20.863  0.00  0.00    +0.000 A 
ATOM      9  C   UNL     1       1.361   6.364  20.767  0.00  0.00    +0.000 A 
ATOM     10  C   UNL     1       1.981   7.165  19.811  0.00  0.00    +0.000 A 
ATOM     11  C   UNL     1       2.953   6.610  18.962  0.00  0.00    +0.000 A 
ATOM     12  C   UNL     1       3.376   5.272  19.088  0.00  0.00    +0.000 A 
ENDROOT
BRANCH   1  17
ATOM     13  C   UNL     1       6.607   5.593  17.243  0.00  0.00    +0.000 A 
ATOM     14  C   UNL     1       6.880   6.384  16.131  0.00  0.00    +0.000 A 
ATOM     15  C   UNL     1       5.684   6.637  15.448  0.00  0.00    +0.000 A 
ATOM     16  C   UNL     1       4.687   6.049  16.179  0.00  0.00    +0.000 A 
ATOM     17  N   UNL     1       5.214   5.366  17.271  0.00  0.00    +0.000 N 
BRANCH  13  19
ATOM     18  C   UNL     1       7.732   5.669  19.517  0.00  0.00    +0.000 C 
ATOM     19  C   UNL     1       7.601   5.027  18.154  0.00  0.00    +0.000 C 
ATOM     20  O   UNL     1       8.356   4.096  17.870  0.00  0.00    +0.000 OA
ENDBRANCH  13  19
ENDBRANCH   1  17
BRANCH  10  21
ATOM     21  C   UNL     1       1.645   8.557  19.708  0.00  0.00    +0.000 C 
ATOM     22  N   UNL     1       1.379   9.680  19.600  0.00  0.00    +0.000 NA
ENDBRANCH  10  21
TORSDOF 3
ENDMDL
MODEL 7
REMARK VINA RESULT:      -6.1      2.151      5.046
REMARK  Name = 
REMARK  6 active torsions:
REMARK  status: ('A' for Active; 'I' for Inactive)
REMARK    1  A    between atoms: C_1  and  C_2
REMARK    2  A    between atoms: C_2  and  C_4
REMARK    3  A    between atoms: N_8  and  C_9
REMARK    4  A    between atoms: C_11  and  C_12
REMARK    5  A    between atoms: C_11  and  C_13
REMARK    6  A    between atoms: C_18  and  C_19
REMARK                            x       y       z     vdW  Elec       q    Type
REMARK                         _______ _______ _______ _____ _____    ______ ____
ROOT
ATOM      1  C   UNL     1       3.384   4.798  19.072  0.00  0.00    +0.000 C 
ATOM      2  C   UNL     1       4.339   4.263  18.288  0.00  0.00    +0.000 C 
ATOM      3  C   UNL     1       5.130   4.973  17.231  0.00  0.00    +0.000 C 
ATOM      4  C   UNL     1       4.947   4.237  15.899  0.00  0.00    +0.000 C 
ATOM      5  C   UNL     1       6.614   4.961  17.624  0.00  0.00    +0.000 C 
ATOM      6  O   UNL     1       4.760   6.336  16.996  0.00  0.00    +0.000 OA
ATOM      7  C   UNL     1       3.759   6.886  17.742  0.00  0.00    +0.000 A 
ATOM      8  C   UNL     1       3.474   8.219  17.413  0.00  0.00    +0.000 A 
ATOM      9  C   UNL     1       2.485   8.922  18.094  0.00  0.00    +0.000 A 
ATOM     10  C   UNL     1       1.803   8.302  19.138  0.00  0.00    +0.000 A 
ATOM     11  C   UNL     1       2.118   6.978  19.486  0.00  0.00    +0.000 A 
ATOM     12  C   UNL     1       3.065   6.223  18.766  0.00  0.00    +0.000 A 
ENDROOT
BRANCH   1  17
ATOM     13  C   UNL     1       1.782   2.979  19.884  0.00  0.00    +0.000 A 
ATOM     14  C   UNL     1       1.386   2.554  21.147  0.00  0.00    +0.000 A 
ATOM     15  C   UNL     1       2.089   3.283  22.115  0.00  0.00    +0.000 A 
ATOM     16  C   UNL     1       2.862   4.186  21.435  0.00  0.00    +0.000 A 
ATOM     17  N   UNL     1       2.731   4.009  20.061  0.00  0.00    +0.000 N 
BRANCH  13  19
ATOM     18  C   UNL     1       2.442   1.880  17.693  0.00  0.00    +0.000 C 
ATOM     19  C   UNL     1       1.357   2.394  18.612  0.00  0.00    +0.000 C 
ATOM     20  O   UNL     1       0.188   2.330  18.232  0.00  0.00    +0.000 OA
ENDBRANCH  13  19
ENDBRANCH   1  17
BRANCH  10  21
ATOM     21  C   UNL     1       0.767   9.004  19.841  0.00  0.00    +0.000 C 
ATOM     22  N   UNL     1      -0.065   9.557  20.429  0.00  0.00    +0.000 NA
ENDBRANCH  10  21
TORSDOF 3
ENDMDL
MODEL 8
REMARK VINA RESULT:      -6.0      6.422      9.670
REMARK  Name = 
REMARK  6 active torsions:
REMARK  status: ('A' for Active; 'I' for Inactive)
REMARK    1  A    between atoms: C_1  and  C_2
REMARK    2  A    between atoms: C_2  and  C_4
REMARK    3  A    between atoms: N_8  and  C_9
REMARK    4  A    between atoms: C_11  and  C_12
REMARK    5  A    between atoms: C_11  and  C_13
REMARK    6  A    between atoms: C_18  and  C_19
REMARK                            x       y       z     vdW  Elec       q    Type
REMARK                         _______ _______ _______ _____ _____    ______ ____
ROOT
ATOM      1  C   UNL     1      -1.073  12.624  19.445  0.00  0.00    +0.000 C 
ATOM      2  C   UNL     1      -1.390  13.116  20.656  0.00  0.00    +0.000 C 
ATOM      3  C   UNL     1      -2.739  13.084  21.310  0.00  0.00    +0.000 C 
ATOM      4  C   UNL     1      -3.152  14.518  21.662  0.00  0.00    +0.000 C 
ATOM      5  C   UNL     1      -2.654  12.246  22.593  0.00  0.00    +0.000 C 
ATOM      6  O   UNL     1      -3.797  12.541  20.513  0.00  0.00    +0.000 OA
ATOM      7  C   UNL     1      -3.511  12.083  19.260  0.00  0.00    +0.000 A 
ATOM      8  C   UNL     1      -4.626  11.588  18.568  0.00  0.00    +0.000 A 
ATOM      9  C   UNL     1      -4.493  11.075  17.282  0.00  0.00    +0.000 A 
ATOM     10  C   UNL     1      -3.230  11.018  16.697  0.00  0.00    +0.000 A 
ATOM     11  C   UNL     1      -2.112  11.481  17.410  0.00  0.00    +0.000 A 
ATOM     12  C   UNL     1      -2.231  12.070  18.684  0.00  0.00    +0.000 A 
ENDROOT
BRANCH   1  17
ATOM     13  C   UNL     1       1.220  11.664  18.849  0.00  0.00    +0.000 A 
ATOM     14  C   UNL     1       2.399  12.235  18.382  0.00  0.00    +0.000 A 
ATOM     15  C   UNL     1       2.192  13.604  18.175  0.00  0.00    +0.000 A 
ATOM     16  C   UNL     1       0.908  13.867  18.572  0.00  0.00    +0.000 A 
ATOM     17  N   UNL     1       0.263  12.697  18.959  0.00  0.00    +0.000 N 
BRANCH  13  19
ATOM     18  C   UNL     1       1.209   9.302  17.919  0.00  0.00    +0.000 C 
ATOM     19  C   UNL     1       0.996  10.239  19.087  0.00  0.00    +0.000 C 
ATOM     20  O   UNL     1       0.611   9.764  20.156  0.00  0.00    +0.000 OA
ENDBRANCH  13  19
ENDBRANCH   1  17
BRANCH  10  21
ATOM     21  C   UNL     1      -3.075  10.508  15.364  0.00  0.00    +0.000 C 
ATOM     22  N   UNL     1      -2.946  10.120  14.280  0.00  0.00    +0.000 NA
ENDBRANCH  10  21
TORSDOF 3
ENDMDL
MODEL 9
REMARK VINA RESULT:      -5.9      8.825     12.321
REMARK  Name = 
REMARK  6 active torsions:
REMARK  status: ('A' for Active; 'I' for Inactive)
REMARK    1  A    between atoms: C_1  and  C_2
REMARK    2  A    between atoms: C_2  and  C_4
REMARK    3  A    between atoms: N_8  and  C_9
REMARK    4  A    between atoms: C_11  and  C_12
REMARK    5  A    between atoms: C_11  and  C_13
REMARK    6  A    between atoms: C_18  and  C_19
REMARK                            x       y       z     vdW  Elec       q    Type
REMARK                         _______ _______ _______ _____ _____    ______ ____
ROOT
ATOM      1  C   UNL     1      -4.303  12.795  20.126  0.00  0.00    +0.000 C 
ATOM      2  C   UNL     1      -3.807  13.084  21.343  0.00  0.00    +0.000 C 
ATOM      3  C   UNL     1      -2.427  12.775  21.843  0.00  0.00    +0.000 C 
ATOM      4  C   UNL     1      -2.542  11.941  23.125  0.00  0.00    +0.000 C 
ATOM      5  C   UNL     1      -1.699  14.090  22.150  0.00  0.00    +0.000 C 
ATOM      6  O   UNL     1      -1.600  12.026  20.945  0.00  0.00    +0.000 OA
ATOM      7  C   UNL     1      -2.099  11.677  19.724  0.00  0.00    +0.000 A 
ATOM      8  C   UNL     1      -1.206  10.935  18.938  0.00  0.00    +0.000 A 
ATOM      9  C   UNL     1      -1.565  10.513  17.663  0.00  0.00    +0.000 A 
ATOM     10  C   UNL     1      -2.811  10.869  17.152  0.00  0.00    +0.000 A 
ATOM     11  C   UNL     1      -3.688  11.644  17.930  0.00  0.00    +0.000 A 
ATOM     12  C   UNL     1      -3.374  12.022  19.251  0.00  0.00    +0.000 A 
ENDROOT
BRANCH   1  17
ATOM     13  C   UNL     1      -6.791  12.378  19.715  0.00  0.00    +0.000 A 
ATOM     14  C   UNL     1      -7.829  13.182  19.257  0.00  0.00    +0.000 A 
ATOM     15  C   UNL     1      -7.343  14.479  19.050  0.00  0.00    +0.000 A 
ATOM     16  C   UNL     1      -6.002  14.440  19.327  0.00  0.00    +0.000 A 
ATOM     17  N   UNL     1      -5.629  13.177  19.774  0.00  0.00    +0.000 N 
BRANCH  13  19
ATOM     18  C   UNL     1      -6.806   9.921  19.076  0.00  0.00    +0.000 C 
ATOM     19  C   UNL     1      -6.915  10.985  20.145  0.00  0.00    +0.000 C 
ATOM     20  O   UNL     1      -7.138  10.631  21.303  0.00  0.00    +0.000 OA
ENDBRANCH  13  19
ENDBRANCH   1  17
BRANCH  10  21
ATOM     21  C   UNL     1      -3.208  10.429  15.844  0.00  0.00    +0.000 C 
ATOM     22  N   UNL     1      -3.509  10.057  14.788  0.00  0.00    +0.000 NA
ENDBRANCH  10  21
TORSDOF 3
ENDMDL
