MODEL 1
REMARK VINA RESULT:      -7.3      0.000      0.000
REMARK  Name = 
REMARK  3 active torsions:
REMARK  status: ('A' for Active; 'I' for Inactive)
REMARK    1  A    between atoms: C_2  and  C_4
REMARK    2  A    between atoms: C_4  and  C_5
REMARK    3  A    between atoms: C_10  and  N_11
REMARK                            x       y       z     vdW  Elec       q    Type
REMARK                         _______ _______ _______ _____ _____    ______ ____
ROOT
ATOM      1  C   UNL     1       6.837   4.491  16.585  0.00  0.00    +0.000 A 
ATOM      2  C   UNL     1       7.554   4.823  15.414  0.00  0.00    +0.000 A 
ATOM      3  C   UNL     1       6.941   4.818  14.164  0.00  0.00    +0.000 A 
ATOM      4  C   UNL     1       5.599   4.487  14.062  0.00  0.00    +0.000 A 
ATOM      5  C   UNL     1       4.873   4.163  15.208  0.00  0.00    +0.000 A 
ATOM      6  C   UNL     1       5.472   4.140  16.477  0.00  0.00    +0.000 A 
ENDROOT
BRANCH   6   7
ATOM      7  N   UNL     1       4.721   3.790  17.633  0.00  0.00    +0.000 N 
ATOM      8  C   UNL     1       4.020   4.667  18.437  0.00  0.00    +0.000 C 
ATOM      9  O   UNL     1       3.797   5.837  18.130  0.00  0.00    +0.000 OA
ATOM     10  N   UNL     1       3.535   4.154  19.625  0.00  0.00    +0.000 N 
ATOM     11  C   UNL     1       3.563   2.770  20.108  0.00  0.00    +0.000 C 
ATOM     12  C   UNL     1       2.129   2.222  20.152  0.00  0.00    +0.000 C 
ATOM     13  O   UNL     1       1.280   3.053  20.962  0.00  0.00    +0.000 OA
ATOM     14  C   UNL     1       1.251   4.408  20.475  0.00  0.00    +0.000 C 
ATOM     15  C   UNL     1       2.662   5.005  20.445  0.00  0.00    +0.000 C 
ATOM     16  H   UNL     1       4.565   2.813  17.792  0.00  0.00    +0.000 HD
ENDBRANCH   6   7
BRANCH   1  17
ATOM     17  C   UNL     1       7.625   4.455  17.877  0.00  0.00    +0.000 C 
BRANCH  17  19
ATOM     18  N   UNL     1       8.022   5.731  19.930  0.00  0.00    +0.000 N 
ATOM     19  C   UNL     1       7.626   5.777  18.622  0.00  0.00    +0.000 C 
ATOM     20  O   UNL     1       7.228   6.826  18.130  0.00  0.00    +0.000 OA
ATOM     21  H   UNL     1       8.117   6.639  20.371  0.00  0.00    +0.000 HD
ATOM     22  H   UNL     1       8.704   5.038  20.219  0.00  0.00    +0.000 HD
ENDBRANCH  17  19
ENDBRANCH   1  17
TORSDOF 3
ENDMDL
MODEL 2
REMARK VINA RESULT:      -7.3      1.883      6.008
REMARK  Name = 
REMARK  3 active torsions:
REMARK  status: ('A' for Active; 'I' for Inactive)
REMARK    1  A    between atoms: C_2  and  C_4
REMARK    2  A    between atoms: C_4  and  C_5
REMARK    3  A    between atoms: C_10  and  N_11
REMARK                            x       y       z     vdW  Elec       q    Type
REMARK                         _______ _______ _______ _____ _____    ______ ____
ROOT
ATOM      1  C   UNL     1       2.145   4.415  19.644  0.00  0.00    +0.000 A 
ATOM      2  C   UNL     1       1.060   3.982  20.437  0.00  0.00    +0.000 A 
ATOM      3  C   UNL     1       1.200   2.937  21.347  0.00  0.00    +0.000 A 
ATOM      4  C   UNL     1       2.429   2.311  21.485  0.00  0.00    +0.000 A 
ATOM      5  C   UNL     1       3.514   2.730  20.715  0.00  0.00    +0.000 A 
ATOM      6  C   UNL     1       3.394   3.766  19.776  0.00  0.00    +0.000 A 
ENDROOT
BRANCH   6   7
ATOM      7  N   UNL     1       4.507   4.169  18.987  0.00  0.00    +0.000 N 
ATOM      8  C   UNL     1       4.740   3.808  17.676  0.00  0.00    +0.000 C 
ATOM      9  O   UNL     1       3.903   3.251  16.967  0.00  0.00    +0.000 OA
ATOM     10  N   UNL     1       5.981   4.134  17.161  0.00  0.00    +0.000 N 
ATOM     11  C   UNL     1       7.055   4.916  17.782  0.00  0.00    +0.000 C 
ATOM     12  C   UNL     1       7.221   6.238  17.019  0.00  0.00    +0.000 C 
ATOM     13  O   UNL     1       7.469   6.005  15.622  0.00  0.00    +0.000 OA
ATOM     14  C   UNL     1       6.404   5.245  15.020  0.00  0.00    +0.000 C 
ATOM     15  C   UNL     1       6.226   3.900  15.732  0.00  0.00    +0.000 C 
ATOM     16  H   UNL     1       5.090   4.893  19.364  0.00  0.00    +0.000 HD
ENDBRANCH   6   7
BRANCH   1  17
ATOM     17  C   UNL     1       1.856   5.506  18.634  0.00  0.00    +0.000 C 
BRANCH  17  19
ATOM     18  N   UNL     1       2.243   7.482  20.031  0.00  0.00    +0.000 N 
ATOM     19  C   UNL     1       2.610   6.795  18.906  0.00  0.00    +0.000 C 
ATOM     20  O   UNL     1       3.449   7.258  18.142  0.00  0.00    +0.000 OA
ATOM     21  H   UNL     1       2.832   8.278  20.246  0.00  0.00    +0.000 HD
ATOM     22  H   UNL     1       1.899   6.970  20.836  0.00  0.00    +0.000 HD
ENDBRANCH  17  19
ENDBRANCH   1  17
TORSDOF 3
ENDMDL
MODEL 3
REMARK VINA RESULT:      -7.1      1.468      1.919
REMARK  Name = 
REMARK  3 active torsions:
REMARK  status: ('A' for Active; 'I' for Inactive)
REMARK    1  A    between atoms: C_2  and  C_4
REMARK    2  A    between atoms: C_4  and  C_5
REMARK    3  A    between atoms: C_10  and  N_11
REMARK                            x       y       z     vdW  Elec       q    Type
REMARK                         _______ _______ _______ _____ _____    ______ ____
ROOT
ATOM      1  C   UNL     1       6.104   5.489  16.770  0.00  0.00    +0.000 A 
ATOM      2  C   UNL     1       7.162   5.580  15.838  0.00  0.00    +0.000 A 
ATOM      3  C   UNL     1       7.147   4.850  14.652  0.00  0.00    +0.000 A 
ATOM      4  C   UNL     1       6.071   4.022  14.373  0.00  0.00    +0.000 A 
ATOM      5  C   UNL     1       5.014   3.925  15.277  0.00  0.00    +0.000 A 
ATOM      6  C   UNL     1       5.015   4.633  16.489  0.00  0.00    +0.000 A 
ENDROOT
BRANCH   6   7
ATOM      7  N   UNL     1       3.936   4.509  17.408  0.00  0.00    +0.000 N 
ATOM      8  C   UNL     1       3.427   3.324  17.900  0.00  0.00    +0.000 C 
ATOM      9  O   UNL     1       3.982   2.236  17.755  0.00  0.00    +0.000 OA
ATOM     10  N   UNL     1       2.247   3.414  18.615  0.00  0.00    +0.000 N 
ATOM     11  C   UNL     1       1.510   4.614  19.023  0.00  0.00    +0.000 C 
ATOM     12  C   UNL     1       1.573   4.749  20.551  0.00  0.00    +0.000 C 
ATOM     13  O   UNL     1       1.070   3.568  21.198  0.00  0.00    +0.000 OA
ATOM     14  C   UNL     1       1.807   2.396  20.799  0.00  0.00    +0.000 C 
ATOM     15  C   UNL     1       1.742   2.206  19.280  0.00  0.00    +0.000 C 
ATOM     16  H   UNL     1       3.618   5.352  17.848  0.00  0.00    +0.000 HD
ENDBRANCH   6   7
BRANCH   1  17
ATOM     17  C   UNL     1       6.264   6.267  18.059  0.00  0.00    +0.000 C 
BRANCH  17  19
ATOM     18  N   UNL     1       8.080   5.597  19.561  0.00  0.00    +0.000 N 
ATOM     19  C   UNL     1       6.768   5.422  19.215  0.00  0.00    +0.000 C 
ATOM     20  O   UNL     1       6.087   4.571  19.773  0.00  0.00    +0.000 OA
ATOM     21  H   UNL     1       8.361   5.103  20.400  0.00  0.00    +0.000 HD
ATOM     22  H   UNL     1       8.512   6.505  19.430  0.00  0.00    +0.000 HD
ENDBRANCH  17  19
ENDBRANCH   1  17
TORSDOF 3
ENDMDL
MODEL 4
REMARK VINA RESULT:      -6.9      1.297      1.710
REMARK  Name = 
REMARK  3 active torsions:
REMARK  status: ('A' for Active; 'I' for Inactive)
REMARK    1  A    between atoms: C_2  and  C_4
REMARK    2  A    between atoms: C_4  and  C_5
REMARK    3  A    between atoms: C_10  and  N_11
REMARK                            x       y       z     vdW  Elec       q    Type
REMARK                         _______ _______ _______ _____ _____    ______ ____
ROOT
ATOM      1  C   UNL     1       6.448   4.981  16.575  0.00  0.00    +0.000 A 
ATOM      2  C   UNL     1       7.385   4.975  15.517  0.00  0.00    +0.000 A 
ATOM      3  C   UNL     1       7.032   4.548  14.240  0.00  0.00    +0.000 A 
ATOM      4  C   UNL     1       5.735   4.124  13.995  0.00  0.00    +0.000 A 
ATOM      5  C   UNL     1       4.794   4.129  15.025  0.00  0.00    +0.000 A 
ATOM      6  C   UNL     1       5.130   4.535  16.326  0.00  0.00    +0.000 A 
ENDROOT
BRANCH   6   7
ATOM      7  N   UNL     1       4.163   4.517  17.369  0.00  0.00    +0.000 N 
ATOM      8  C   UNL     1       3.571   3.390  17.902  0.00  0.00    +0.000 C 
ATOM      9  O   UNL     1       3.961   2.246  17.673  0.00  0.00    +0.000 OA
ATOM     10  N   UNL     1       2.506   3.604  18.758  0.00  0.00    +0.000 N 
ATOM     11  C   UNL     1       1.982   4.872  19.272  0.00  0.00    +0.000 C 
ATOM     12  C   UNL     1       2.245   4.952  20.783  0.00  0.00    +0.000 C 
ATOM     13  O   UNL     1       1.678   3.823  21.469  0.00  0.00    +0.000 OA
ATOM     14  C   UNL     1       2.207   2.582  20.964  0.00  0.00    +0.000 C 
ATOM     15  C   UNL     1       1.936   2.448  19.462  0.00  0.00    +0.000 C 
ATOM     16  H   UNL     1       4.009   5.379  17.858  0.00  0.00    +0.000 HD
ENDBRANCH   6   7
BRANCH   1  17
ATOM     17  C   UNL     1       6.964   5.392  17.938  0.00  0.00    +0.000 C 
BRANCH  17  19
ATOM     18  N   UNL     1       8.405   7.073  18.988  0.00  0.00    +0.000 N 
ATOM     19  C   UNL     1       7.534   6.798  17.969  0.00  0.00    +0.000 C 
ATOM     20  O   UNL     1       7.195   7.678  17.187  0.00  0.00    +0.000 OA
ATOM     21  H   UNL     1       8.851   7.980  18.923  0.00  0.00    +0.000 HD
ATOM     22  H   UNL     1       8.988   6.330  19.357  0.00  0.00    +0.000 HD
ENDBRANCH  17  19
ENDBRANCH   1  17
TORSDOF 3
ENDMDL
MODEL 5
REMARK VINA RESULT:      -6.9      1.309      1.610
REMARK  Name = 
REMARK  3 active torsions:
REMARK  status: ('A' for Active; 'I' for Inactive)
REMARK    1  A    between atoms: C_2  and  C_4
REMARK    2  A    between atoms: C_4  and  C_5
REMARK    3  A    between atoms: C_10  and  N_11
REMARK                            x       y       z     vdW  Elec       q    Type
REMARK                         _______ _______ _______ _____ _____    ______ ____
ROOT
ATOM      1  C   UNL     1       5.990   5.438  16.626  0.00  0.00    +0.000 A 
ATOM      2  C   UNL     1       7.014   5.684  15.685  0.00  0.00    +0.000 A 
ATOM      3  C   UNL     1       7.139   4.913  14.532  0.00  0.00    +0.000 A 
ATOM      4  C   UNL     1       6.237   3.886  14.296  0.00  0.00    +0.000 A 
ATOM      5  C   UNL     1       5.215   3.633  15.211  0.00  0.00    +0.000 A 
ATOM      6  C   UNL     1       5.081   4.382  16.391  0.00  0.00    +0.000 A 
ENDROOT
BRANCH   6   7
ATOM      7  N   UNL     1       4.043   4.099  17.321  0.00  0.00    +0.000 N 
ATOM      8  C   UNL     1       4.189   3.416  18.511  0.00  0.00    +0.000 C 
ATOM      9  O   UNL     1       5.282   3.143  19.006  0.00  0.00    +0.000 OA
ATOM     10  N   UNL     1       3.022   3.065  19.164  0.00  0.00    +0.000 N 
ATOM     11  C   UNL     1       1.640   3.416  18.825  0.00  0.00    +0.000 C 
ATOM     12  C   UNL     1       1.079   4.355  19.903  0.00  0.00    +0.000 C 
ATOM     13  O   UNL     1       1.174   3.761  21.210  0.00  0.00    +0.000 OA
ATOM     14  C   UNL     1       2.537   3.430  21.538  0.00  0.00    +0.000 C 
ATOM     15  C   UNL     1       3.126   2.466  20.501  0.00  0.00    +0.000 C 
ATOM     16  H   UNL     1       3.165   4.561  17.173  0.00  0.00    +0.000 HD
ENDBRANCH   6   7
BRANCH   1  17
ATOM     17  C   UNL     1       5.999   6.289  17.879  0.00  0.00    +0.000 C 
BRANCH  17  19
ATOM     18  N   UNL     1       7.469   5.162  19.483  0.00  0.00    +0.000 N 
ATOM     19  C   UNL     1       7.311   6.227  18.640  0.00  0.00    +0.000 C 
ATOM     20  O   UNL     1       8.163   7.105  18.582  0.00  0.00    +0.000 OA
ATOM     21  H   UNL     1       8.392   5.087  19.894  0.00  0.00    +0.000 HD
ATOM     22  H   UNL     1       7.025   4.278  19.255  0.00  0.00    +0.000 HD
ENDBRANCH  17  19
ENDBRANCH   1  17
TORSDOF 3
ENDMDL
MODEL 6
REMARK VINA RESULT:      -6.8      1.545      1.933
REMARK  Name = 
REMARK  3 active torsions:
REMARK  status: ('A' for Active; 'I' for Inactive)
REMARK    1  A    between atoms: C_2  and  C_4
REMARK    2  A    between atoms: C_4  and  C_5
REMARK    3  A    between atoms: C_10  and  N_11
REMARK                            x       y       z     vdW  Elec       q    Type
REMARK                         _______ _______ _______ _____ _____    ______ ____
ROOT
ATOM      1  C   UNL     1       6.554   5.294  15.809  0.00  0.00    +0.000 A 
ATOM      2  C   UNL     1       7.463   5.145  14.739  0.00  0.00    +0.000 A 
ATOM      3  C   UNL     1       7.105   4.472  13.573  0.00  0.00    +0.000 A 
ATOM      4  C   UNL     1       5.830   3.941  13.455  0.00  0.00    +0.000 A 
ATOM      5  C   UNL     1       4.916   4.083  14.500  0.00  0.00    +0.000 A 
ATOM      6  C   UNL     1       5.259   4.739  15.692  0.00  0.00    +0.000 A 
ENDROOT
BRANCH   6   7
ATOM      7  N   UNL     1       4.321   4.861  16.754  0.00  0.00    +0.000 N 
ATOM      8  C   UNL     1       3.812   3.821  17.505  0.00  0.00    +0.000 C 
ATOM      9  O   UNL     1       4.265   2.678  17.475  0.00  0.00    +0.000 OA
ATOM     10  N   UNL     1       2.757   4.129  18.344  0.00  0.00    +0.000 N 
ATOM     11  C   UNL     1       2.169   5.440  18.636  0.00  0.00    +0.000 C 
ATOM     12  C   UNL     1       2.464   5.812  20.096  0.00  0.00    +0.000 C 
ATOM     13  O   UNL     1       1.984   4.799  20.997  0.00  0.00    +0.000 OA
ATOM     14  C   UNL     1       2.575   3.517  20.709  0.00  0.00    +0.000 C 
ATOM     15  C   UNL     1       2.276   3.093  19.268  0.00  0.00    +0.000 C 
ATOM     16  H   UNL     1       4.127   5.788  17.082  0.00  0.00    +0.000 HD
ENDBRANCH   6   7
BRANCH   1  17
ATOM     17  C   UNL     1       7.078   5.976  17.056  0.00  0.00    +0.000 C 
BRANCH  17  19
ATOM     18  N   UNL     1       7.186   5.233  19.388  0.00  0.00    +0.000 N 
ATOM     19  C   UNL     1       7.594   5.005  18.103  0.00  0.00    +0.000 C 
ATOM     20  O   UNL     1       8.392   4.110  17.854  0.00  0.00    +0.000 OA
ATOM     21  H   UNL     1       7.455   4.512  20.046  0.00  0.00    +0.000 HD
ATOM     22  H   UNL     1       6.276   5.650  19.554  0.00  0.00    +0.000 HD
ENDBRANCH  17  19
ENDBRANCH   1  17
TORSDOF 3
ENDMDL
MODEL 7
REMARK VINA RESULT:      -6.8      2.077      5.980
REMARK  Name = 
REMARK  3 active torsions:
REMARK  status: ('A' for Active; 'I' for Inactive)
REMARK    1  A    between atoms: C_2  and  C_4
REMARK    2  A    between atoms: C_4  and  C_5
REMARK    3  A    between atoms: C_10  and  N_11
REMARK                            x       y       z     vdW  Elec       q    Type
REMARK                         _______ _______ _______ _____ _____    ______ ____
ROOT
ATOM      1  C   UNL     1       2.166   4.559  19.857  0.00  0.00    +0.000 A 
ATOM      2  C   UNL     1       1.135   3.976  20.626  0.00  0.00    +0.000 A 
ATOM      3  C   UNL     1       0.421   2.873  20.164  0.00  0.00    +0.000 A 
ATOM      4  C   UNL     1       0.728   2.330  18.926  0.00  0.00    +0.000 A 
ATOM      5  C   UNL     1       1.747   2.889  18.154  0.00  0.00    +0.000 A 
ATOM      6  C   UNL     1       2.468   4.012  18.589  0.00  0.00    +0.000 A 
ENDROOT
BRANCH   6   7
ATOM      7  N   UNL     1       3.492   4.580  17.781  0.00  0.00    +0.000 N 
ATOM      8  C   UNL     1       4.848   4.518  18.035  0.00  0.00    +0.000 C 
ATOM      9  O   UNL     1       5.344   3.787  18.891  0.00  0.00    +0.000 OA
ATOM     10  N   UNL     1       5.656   5.311  17.243  0.00  0.00    +0.000 N 
ATOM     11  C   UNL     1       5.287   6.133  16.086  0.00  0.00    +0.000 C 
ATOM     12  C   UNL     1       5.910   5.530  14.819  0.00  0.00    +0.000 C 
ATOM     13  O   UNL     1       7.336   5.404  14.951  0.00  0.00    +0.000 OA
ATOM     14  C   UNL     1       7.689   4.587  16.083  0.00  0.00    +0.000 C 
ATOM     15  C   UNL     1       7.112   5.173  17.376  0.00  0.00    +0.000 C 
ATOM     16  H   UNL     1       3.219   4.922  16.879  0.00  0.00    +0.000 HD
ENDBRANCH   6   7
BRANCH   1  17
ATOM     17  C   UNL     1       2.820   5.800  20.426  0.00  0.00    +0.000 C 
BRANCH  17  19
ATOM     18  N   UNL     1       1.585   7.886  20.783  0.00  0.00    +0.000 N 
ATOM     19  C   UNL     1       2.239   7.093  19.881  0.00  0.00    +0.000 C 
ATOM     20  O   UNL     1       2.271   7.396  18.695  0.00  0.00    +0.000 OA
ATOM     21  H   UNL     1       1.303   8.788  20.419  0.00  0.00    +0.000 HD
ATOM     22  H   UNL     1       1.884   7.886  21.753  0.00  0.00    +0.000 HD
ENDBRANCH  17  19
ENDBRANCH   1  17
TORSDOF 3
ENDMDL
MODEL 8
REMARK VINA RESULT:      -6.8      3.696      5.468
REMARK  Name = 
REMARK  3 active torsions:
REMARK  status: ('A' for Active; 'I' for Inactive)
REMARK    1  A    between atoms: C_2  and  C_4
REMARK    2  A    between atoms: C_4  and  C_5
REMARK    3  A    between atoms: C_10  and  N_11
REMARK                            x       y       z     vdW  Elec       q    Type
REMARK                         _______ _______ _______ _____ _____    ______ ____
ROOT
ATOM      1  C   UNL     1       2.680   4.754  18.169  0.00  0.00    +0.000 A 
ATOM      2  C   UNL     1       3.391   3.824  17.379  0.00  0.00    +0.000 A 
ATOM      3  C   UNL     1       4.528   4.198  16.667  0.00  0.00    +0.000 A 
ATOM      4  C   UNL     1       4.978   5.507  16.738  0.00  0.00    +0.000 A 
ATOM      5  C   UNL     1       4.293   6.439  17.518  0.00  0.00    +0.000 A 
ATOM      6  C   UNL     1       3.133   6.092  18.228  0.00  0.00    +0.000 A 
ENDROOT
BRANCH   6   7
ATOM      7  N   UNL     1       2.436   7.058  19.006  0.00  0.00    +0.000 N 
ATOM      8  C   UNL     1       2.043   8.309  18.576  0.00  0.00    +0.000 C 
ATOM      9  O   UNL     1       2.073   8.661  17.397  0.00  0.00    +0.000 OA
ATOM     10  N   UNL     1       1.568   9.170  19.548  0.00  0.00    +0.000 N 
ATOM     11  C   UNL     1       1.316   8.903  20.967  0.00  0.00    +0.000 C 
ATOM     12  C   UNL     1      -0.195   8.967  21.232  0.00  0.00    +0.000 C 
ATOM     13  O   UNL     1      -0.741  10.232  20.821  0.00  0.00    +0.000 OA
ATOM     14  C   UNL     1      -0.498  10.480  19.424  0.00  0.00    +0.000 C 
ATOM     15  C   UNL     1       1.004  10.458  19.122  0.00  0.00    +0.000 C 
ATOM     16  H   UNL     1       2.071   6.751  19.887  0.00  0.00    +0.000 HD
ENDBRANCH   6   7
BRANCH   1  17
ATOM     17  C   UNL     1       1.415   4.254  18.835  0.00  0.00    +0.000 C 
BRANCH  17  19
ATOM     18  N   UNL     1       0.840   2.976  20.845  0.00  0.00    +0.000 N 
ATOM     19  C   UNL     1       1.575   4.005  20.324  0.00  0.00    +0.000 C 
ATOM     20  O   UNL     1       2.254   4.715  21.055  0.00  0.00    +0.000 OA
ATOM     21  H   UNL     1       1.046   2.763  21.813  0.00  0.00    +0.000 HD
ATOM     22  H   UNL     1       0.627   2.173  20.262  0.00  0.00    +0.000 HD
ENDBRANCH  17  19
ENDBRANCH   1  17
TORSDOF 3
ENDMDL
MODEL 9
REMARK VINA RESULT:      -6.7      2.083      3.370
REMARK  Name = 
REMARK  3 active torsions:
REMARK  status: ('A' for Active; 'I' for Inactive)
REMARK    1  A    between atoms: C_2  and  C_4
REMARK    2  A    between atoms: C_4  and  C_5
REMARK    3  A    between atoms: C_10  and  N_11
REMARK                            x       y       z     vdW  Elec       q    Type
REMARK                         _______ _______ _______ _____ _____    ______ ____
ROOT
ATOM      1  C   UNL     1       6.381   6.196  17.204  0.00  0.00    +0.000 A 
ATOM      2  C   UNL     1       7.384   7.187  17.120  0.00  0.00    +0.000 A 
ATOM      3  C   UNL     1       8.265   7.417  18.174  0.00  0.00    +0.000 A 
ATOM      4  C   UNL     1       8.162   6.656  19.328  0.00  0.00    +0.000 A 
ATOM      5  C   UNL     1       7.182   5.669  19.427  0.00  0.00    +0.000 A 
ATOM      6  C   UNL     1       6.269   5.432  18.388  0.00  0.00    +0.000 A 
ENDROOT
BRANCH   6   7
ATOM      7  N   UNL     1       5.264   4.433  18.512  0.00  0.00    +0.000 N 
ATOM      8  C   UNL     1       4.169   4.489  19.349  0.00  0.00    +0.000 C 
ATOM      9  O   UNL     1       3.823   5.507  19.946  0.00  0.00    +0.000 OA
ATOM     10  N   UNL     1       3.431   3.325  19.472  0.00  0.00    +0.000 N 
ATOM     11  C   UNL     1       3.584   2.061  18.747  0.00  0.00    +0.000 C 
ATOM     12  C   UNL     1       2.366   1.852  17.835  0.00  0.00    +0.000 C 
ATOM     13  O   UNL     1       1.141   1.891  18.588  0.00  0.00    +0.000 OA
ATOM     14  C   UNL     1       0.995   3.141  19.289  0.00  0.00    +0.000 C 
ATOM     15  C   UNL     1       2.178   3.374  20.236  0.00  0.00    +0.000 C 
ATOM     16  H   UNL     1       5.272   3.697  17.830  0.00  0.00    +0.000 HD
ENDBRANCH   6   7
BRANCH   1  17
ATOM     17  C   UNL     1       5.432   6.088  16.029  0.00  0.00    +0.000 C 
BRANCH  17  19
ATOM     18  N   UNL     1       7.242   5.237  14.614  0.00  0.00    +0.000 N 
ATOM     19  C   UNL     1       5.918   5.144  14.945  0.00  0.00    +0.000 C 
ATOM     20  O   UNL     1       5.177   4.386  14.331  0.00  0.00    +0.000 OA
ATOM     21  H   UNL     1       7.563   4.525  13.969  0.00  0.00    +0.000 HD
ATOM     22  H   UNL     1       7.914   5.511  15.324  0.00  0.00    +0.000 HD
ENDBRANCH  17  19
ENDBRANCH   1  17
TORSDOF 3
ENDMDL
