MODEL 1
REMARK VINA RESULT:      -8.1      0.000      0.000
REMARK  Name = 
REMARK  6 active torsions:
REMARK  status: ('A' for Active; 'I' for Inactive)
REMARK    1  A    between atoms: C_1  and  O_2
REMARK    2  A    between atoms: O_2  and  C_3
REMARK    3  A    between atoms: C_6  and  C_7
REMARK    4  A    between atoms: C_7  and  C_8
REMARK    5  A    between atoms: C_8  and  O_10
REMARK    6  A    between atoms: O_10  and  C_11
REMARK                            x       y       z     vdW  Elec       q    Type
REMARK                         _______ _______ _______ _____ _____    ______ ____
ROOT
ATOM      1  C   UNL     1       3.175   5.508  18.174  0.00  0.00    +0.000 A 
ATOM      2  C   UNL     1       2.683   4.389  18.875  0.00  0.00    +0.000 A 
ATOM      3  C   UNL     1       1.314   4.095  18.970  0.00  0.00    +0.000 A 
ATOM      4  C   UNL     1       0.813   3.541  20.131  0.00  0.00    +0.000 A 
ATOM      5  C   UNL     1       1.702   2.960  21.020  0.00  0.00    +0.000 A 
ATOM      6  C   UNL     1       3.056   2.865  20.677  0.00  0.00    +0.000 A 
ATOM      7  C   UNL     1       3.577   3.612  19.601  0.00  0.00    +0.000 A 
ATOM      8  C   UNL     1       4.945   3.667  19.259  0.00  0.00    +0.000 A 
ATOM      9  C   UNL     1       5.408   4.667  18.368  0.00  0.00    +0.000 A 
ATOM     10  S   UNL     1       7.013   4.897  17.782  0.00  0.00    +0.000 S 
ATOM     11  C   UNL     1       6.602   6.358  17.001  0.00  0.00    +0.000 A 
ATOM     12  C   UNL     1       5.276   6.676  17.174  0.00  0.00    +0.000 A 
ATOM     13  C   UNL     1       4.549   5.656  17.882  0.00  0.00    +0.000 A 
ENDROOT
BRANCH   1  14
ATOM     14  O   UNL     1       2.262   6.538  17.828  0.00  0.00    +0.000 OA
BRANCH  14  15
ATOM     15  C   UNL     1       2.280   7.588  18.762  0.00  0.00    +0.000 C 
ATOM     16  O   UNL     1       2.295   7.476  19.982  0.00  0.00    +0.000 OA
BRANCH  15  17
ATOM     17  C   UNL     1       2.151   8.886  17.993  0.00  0.00    +0.000 C 
BRANCH  17  21
ATOM     18  C   UNL     1      -1.308  11.149  19.041  0.00  0.00    +0.000 A 
ATOM     19  C   UNL     1      -1.362  10.235  17.991  0.00  0.00    +0.000 A 
ATOM     20  C   UNL     1      -0.250   9.481  17.655  0.00  0.00    +0.000 A 
ATOM     21  C   UNL     1       0.936   9.645  18.380  0.00  0.00    +0.000 A 
ATOM     22  C   UNL     1       1.002  10.549  19.433  0.00  0.00    +0.000 A 
ATOM     23  C   UNL     1      -0.121  11.307  19.760  0.00  0.00    +0.000 A 
BRANCH  18  25
ATOM     24  C   UNL     1      -3.516  11.585  18.351  0.00  0.00    +0.000 C 
ATOM     25  O   UNL     1      -2.453  11.858  19.255  0.00  0.00    +0.000 OA
ENDBRANCH  18  25
ENDBRANCH  17  21
ENDBRANCH  15  17
ENDBRANCH  14  15
ENDBRANCH   1  14
TORSDOF 5
ENDMDL
MODEL 2
REMARK VINA RESULT:      -8.0      0.538      1.140
REMARK  Name = 
REMARK  6 active torsions:
REMARK  status: ('A' for Active; 'I' for Inactive)
REMARK    1  A    between atoms: C_1  and  O_2
REMARK    2  A    between atoms: O_2  and  C_3
REMARK    3  A    between atoms: C_6  and  C_7
REMARK    4  A    between atoms: C_7  and  C_8
REMARK    5  A    between atoms: C_8  and  O_10
REMARK    6  A    between atoms: O_10  and  C_11
REMARK                            x       y       z     vdW  Elec       q    Type
REMARK                         _______ _______ _______ _____ _____    ______ ____
ROOT
ATOM      1  C   UNL     1       3.137   5.499  18.186  0.00  0.00    +0.000 A 
ATOM      2  C   UNL     1       2.654   4.383  18.898  0.00  0.00    +0.000 A 
ATOM      3  C   UNL     1       1.287   4.079  18.993  0.00  0.00    +0.000 A 
ATOM      4  C   UNL     1       0.788   3.533  20.159  0.00  0.00    +0.000 A 
ATOM      5  C   UNL     1       1.681   2.969  21.056  0.00  0.00    +0.000 A 
ATOM      6  C   UNL     1       3.036   2.882  20.716  0.00  0.00    +0.000 A 
ATOM      7  C   UNL     1       3.552   3.622  19.633  0.00  0.00    +0.000 A 
ATOM      8  C   UNL     1       4.921   3.685  19.293  0.00  0.00    +0.000 A 
ATOM      9  C   UNL     1       5.377   4.679  18.393  0.00  0.00    +0.000 A 
ATOM     10  S   UNL     1       6.981   4.917  17.808  0.00  0.00    +0.000 S 
ATOM     11  C   UNL     1       6.559   6.366  17.010  0.00  0.00    +0.000 A 
ATOM     12  C   UNL     1       5.230   6.674  17.177  0.00  0.00    +0.000 A 
ATOM     13  C   UNL     1       4.511   5.655  17.895  0.00  0.00    +0.000 A 
ENDROOT
BRANCH   1  14
ATOM     14  O   UNL     1       2.217   6.518  17.827  0.00  0.00    +0.000 OA
BRANCH  14  15
ATOM     15  C   UNL     1       2.268   7.605  18.715  0.00  0.00    +0.000 C 
ATOM     16  O   UNL     1       2.234   7.548  19.939  0.00  0.00    +0.000 OA
BRANCH  15  17
ATOM     17  C   UNL     1       2.248   8.873  17.887  0.00  0.00    +0.000 C 
BRANCH  17  21
ATOM     18  C   UNL     1      -1.092  11.304  18.946  0.00  0.00    +0.000 A 
ATOM     19  C   UNL     1       0.171  11.589  19.460  0.00  0.00    +0.000 A 
ATOM     20  C   UNL     1       1.266  10.818  19.106  0.00  0.00    +0.000 A 
ATOM     21  C   UNL     1       1.094   9.742  18.227  0.00  0.00    +0.000 A 
ATOM     22  C   UNL     1      -0.160   9.450  17.705  0.00  0.00    +0.000 A 
ATOM     23  C   UNL     1      -1.256  10.228  18.070  0.00  0.00    +0.000 A 
BRANCH  18  25
ATOM     24  C   UNL     1      -2.065  12.408  20.783  0.00  0.00    +0.000 C 
ATOM     25  O   UNL     1      -2.098  12.109  19.393  0.00  0.00    +0.000 OA
ENDBRANCH  18  25
ENDBRANCH  17  21
ENDBRANCH  15  17
ENDBRANCH  14  15
ENDBRANCH   1  14
TORSDOF 5
ENDMDL
MODEL 3
REMARK VINA RESULT:      -7.7      1.487      3.553
REMARK  Name = 
REMARK  6 active torsions:
REMARK  status: ('A' for Active; 'I' for Inactive)
REMARK    1  A    between atoms: C_1  and  O_2
REMARK    2  A    between atoms: O_2  and  C_3
REMARK    3  A    between atoms: C_6  and  C_7
REMARK    4  A    between atoms: C_7  and  C_8
REMARK    5  A    between atoms: C_8  and  O_10
REMARK    6  A    between atoms: O_10  and  C_11
REMARK                            x       y       z     vdW  Elec       q    Type
REMARK                         _______ _______ _______ _____ _____    ______ ____
ROOT
ATOM      1  C   UNL     1       2.847   5.684  18.342  0.00  0.00    +0.000 A 
ATOM      2  C   UNL     1       4.060   5.606  17.628  0.00  0.00    +0.000 A 
ATOM      3  C   UNL     1       4.553   6.667  16.852  0.00  0.00    +0.000 A 
ATOM      4  C   UNL     1       5.233   6.397  15.681  0.00  0.00    +0.000 A 
ATOM      5  C   UNL     1       5.724   5.117  15.485  0.00  0.00    +0.000 A 
ATOM      6  C   UNL     1       5.604   4.169  16.507  0.00  0.00    +0.000 A 
ATOM      7  C   UNL     1       4.736   4.393  17.595  0.00  0.00    +0.000 A 
ATOM      8  C   UNL     1       4.466   3.447  18.607  0.00  0.00    +0.000 A 
ATOM      9  C   UNL     1       3.365   3.641  19.477  0.00  0.00    +0.000 A 
ATOM     10  S   UNL     1       2.875   2.647  20.797  0.00  0.00    +0.000 S 
ATOM     11  C   UNL     1       1.451   3.552  21.053  0.00  0.00    +0.000 A 
ATOM     12  C   UNL     1       1.337   4.592  20.160  0.00  0.00    +0.000 A 
ATOM     13  C   UNL     1       2.487   4.714  19.303  0.00  0.00    +0.000 A 
ENDROOT
BRANCH   1  14
ATOM     14  O   UNL     1       1.943   6.729  18.017  0.00  0.00    +0.000 OA
BRANCH  14  15
ATOM     15  C   UNL     1       2.111   7.845  18.852  0.00  0.00    +0.000 C 
ATOM     16  O   UNL     1       2.170   7.836  20.077  0.00  0.00    +0.000 OA
BRANCH  15  17
ATOM     17  C   UNL     1       2.082   9.081  17.977  0.00  0.00    +0.000 C 
BRANCH  17  21
ATOM     18  C   UNL     1      -1.264  11.536  18.955  0.00  0.00    +0.000 A 
ATOM     19  C   UNL     1       0.006  11.868  19.421  0.00  0.00    +0.000 A 
ATOM     20  C   UNL     1       1.103  11.088  19.093  0.00  0.00    +0.000 A 
ATOM     21  C   UNL     1       0.926   9.957  18.287  0.00  0.00    +0.000 A 
ATOM     22  C   UNL     1      -0.335   9.618  17.812  0.00  0.00    +0.000 A 
ATOM     23  C   UNL     1      -1.434  10.406  18.152  0.00  0.00    +0.000 A 
BRANCH  18  25
ATOM     24  C   UNL     1      -2.213  12.741  20.741  0.00  0.00    +0.000 C 
ATOM     25  O   UNL     1      -2.270  12.357  19.373  0.00  0.00    +0.000 OA
ENDBRANCH  18  25
ENDBRANCH  17  21
ENDBRANCH  15  17
ENDBRANCH  14  15
ENDBRANCH   1  14
TORSDOF 5
ENDMDL
MODEL 4
REMARK VINA RESULT:      -7.6      1.478      2.001
REMARK  Name = 
REMARK  6 active torsions:
REMARK  status: ('A' for Active; 'I' for Inactive)
REMARK    1  A    between atoms: C_1  and  O_2
REMARK    2  A    between atoms: O_2  and  C_3
REMARK    3  A    between atoms: C_6  and  C_7
REMARK    4  A    between atoms: C_7  and  C_8
REMARK    5  A    between atoms: C_8  and  O_10
REMARK    6  A    between atoms: O_10  and  C_11
REMARK                            x       y       z     vdW  Elec       q    Type
REMARK                         _______ _______ _______ _____ _____    ______ ____
ROOT
ATOM      1  C   UNL     1       3.130   5.374  18.090  0.00  0.00    +0.000 A 
ATOM      2  C   UNL     1       2.664   4.316  18.896  0.00  0.00    +0.000 A 
ATOM      3  C   UNL     1       1.299   4.044  19.077  0.00  0.00    +0.000 A 
ATOM      4  C   UNL     1       0.851   3.583  20.299  0.00  0.00    +0.000 A 
ATOM      5  C   UNL     1       1.778   3.061  21.186  0.00  0.00    +0.000 A 
ATOM      6  C   UNL     1       3.113   2.926  20.787  0.00  0.00    +0.000 A 
ATOM      7  C   UNL     1       3.587   3.585  19.634  0.00  0.00    +0.000 A 
ATOM      8  C   UNL     1       4.937   3.601  19.224  0.00  0.00    +0.000 A 
ATOM      9  C   UNL     1       5.364   4.526  18.241  0.00  0.00    +0.000 A 
ATOM     10  S   UNL     1       6.940   4.696  17.564  0.00  0.00    +0.000 S 
ATOM     11  C   UNL     1       6.502   6.099  16.696  0.00  0.00    +0.000 A 
ATOM     12  C   UNL     1       5.188   6.443  16.907  0.00  0.00    +0.000 A 
ATOM     13  C   UNL     1       4.490   5.485  17.723  0.00  0.00    +0.000 A 
ENDROOT
BRANCH   1  14
ATOM     14  O   UNL     1       2.209   6.385  17.712  0.00  0.00    +0.000 OA
BRANCH  14  15
ATOM     15  C   UNL     1       2.481   7.606  18.351  0.00  0.00    +0.000 C 
ATOM     16  O   UNL     1       2.998   8.595  17.842  0.00  0.00    +0.000 OA
BRANCH  15  17
ATOM     17  C   UNL     1       2.136   7.443  19.817  0.00  0.00    +0.000 C 
BRANCH  17  21
ATOM     18  C   UNL     1      -0.344  10.601  21.252  0.00  0.00    +0.000 A 
ATOM     19  C   UNL     1       0.237   9.707  22.148  0.00  0.00    +0.000 A 
ATOM     20  C   UNL     1       1.061   8.690  21.694  0.00  0.00    +0.000 A 
ATOM     21  C   UNL     1       1.304   8.563  20.321  0.00  0.00    +0.000 A 
ATOM     22  C   UNL     1       0.732   9.451  19.418  0.00  0.00    +0.000 A 
ATOM     23  C   UNL     1      -0.098  10.469  19.883  0.00  0.00    +0.000 A 
BRANCH  18  25
ATOM     24  C   UNL     1      -1.522  11.298  23.167  0.00  0.00    +0.000 C 
ATOM     25  O   UNL     1      -1.163  11.537  21.812  0.00  0.00    +0.000 OA
ENDBRANCH  18  25
ENDBRANCH  17  21
ENDBRANCH  15  17
ENDBRANCH  14  15
ENDBRANCH   1  14
TORSDOF 5
ENDMDL
MODEL 5
REMARK VINA RESULT:      -7.4      1.675      2.033
REMARK  Name = 
REMARK  6 active torsions:
REMARK  status: ('A' for Active; 'I' for Inactive)
REMARK    1  A    between atoms: C_1  and  O_2
REMARK    2  A    between atoms: O_2  and  C_3
REMARK    3  A    between atoms: C_6  and  C_7
REMARK    4  A    between atoms: C_7  and  C_8
REMARK    5  A    between atoms: C_8  and  O_10
REMARK    6  A    between atoms: O_10  and  C_11
REMARK                            x       y       z     vdW  Elec       q    Type
REMARK                         _______ _______ _______ _____ _____    ______ ____
ROOT
ATOM      1  C   UNL     1       3.043   5.493  18.344  0.00  0.00    +0.000 A 
ATOM      2  C   UNL     1       2.600   4.340  19.023  0.00  0.00    +0.000 A 
ATOM      3  C   UNL     1       1.246   4.099  19.304  0.00  0.00    +0.000 A 
ATOM      4  C   UNL     1       0.895   3.469  20.482  0.00  0.00    +0.000 A 
ATOM      5  C   UNL     1       1.874   2.776  21.174  0.00  0.00    +0.000 A 
ATOM      6  C   UNL     1       3.154   2.653  20.620  0.00  0.00    +0.000 A 
ATOM      7  C   UNL     1       3.548   3.466  19.538  0.00  0.00    +0.000 A 
ATOM      8  C   UNL     1       4.850   3.491  18.994  0.00  0.00    +0.000 A 
ATOM      9  C   UNL     1       5.229   4.543  18.125  0.00  0.00    +0.000 A 
ATOM     10  S   UNL     1       6.738   4.753  17.318  0.00  0.00    +0.000 S 
ATOM     11  C   UNL     1       6.297   6.292  16.726  0.00  0.00    +0.000 A 
ATOM     12  C   UNL     1       5.031   6.651  17.126  0.00  0.00    +0.000 A 
ATOM     13  C   UNL     1       4.364   5.606  17.856  0.00  0.00    +0.000 A 
ENDROOT
BRANCH   1  14
ATOM     14  O   UNL     1       2.147   6.588  18.225  0.00  0.00    +0.000 OA
BRANCH  14  15
ATOM     15  C   UNL     1       2.221   7.447  19.334  0.00  0.00    +0.000 C 
ATOM     16  O   UNL     1       2.650   7.164  20.447  0.00  0.00    +0.000 OA
BRANCH  15  17
ATOM     17  C   UNL     1       1.560   8.753  18.946  0.00  0.00    +0.000 C 
BRANCH  17  21
ATOM     18  C   UNL     1      -0.378  10.554  22.290  0.00  0.00    +0.000 A 
ATOM     19  C   UNL     1       0.186  11.351  21.297  0.00  0.00    +0.000 A 
ATOM     20  C   UNL     1       0.801  10.776  20.196  0.00  0.00    +0.000 A 
ATOM     21  C   UNL     1       0.854   9.381  20.089  0.00  0.00    +0.000 A 
ATOM     22  C   UNL     1       0.291   8.576  21.071  0.00  0.00    +0.000 A 
ATOM     23  C   UNL     1      -0.321   9.163  22.177  0.00  0.00    +0.000 A 
BRANCH  18  25
ATOM     24  C   UNL     1      -2.123  11.937  23.053  0.00  0.00    +0.000 C 
ATOM     25  O   UNL     1      -0.922  11.232  23.341  0.00  0.00    +0.000 OA
ENDBRANCH  18  25
ENDBRANCH  17  21
ENDBRANCH  15  17
ENDBRANCH  14  15
ENDBRANCH   1  14
TORSDOF 5
ENDMDL
MODEL 6
REMARK VINA RESULT:      -7.3      1.741      3.598
REMARK  Name = 
REMARK  6 active torsions:
REMARK  status: ('A' for Active; 'I' for Inactive)
REMARK    1  A    between atoms: C_1  and  O_2
REMARK    2  A    between atoms: O_2  and  C_3
REMARK    3  A    between atoms: C_6  and  C_7
REMARK    4  A    between atoms: C_7  and  C_8
REMARK    5  A    between atoms: C_8  and  O_10
REMARK    6  A    between atoms: O_10  and  C_11
REMARK                            x       y       z     vdW  Elec       q    Type
REMARK                         _______ _______ _______ _____ _____    ______ ____
ROOT
ATOM      1  C   UNL     1       2.864   5.591  18.344  0.00  0.00    +0.000 A 
ATOM      2  C   UNL     1       4.097   5.534  17.665  0.00  0.00    +0.000 A 
ATOM      3  C   UNL     1       4.564   6.578  16.851  0.00  0.00    +0.000 A 
ATOM      4  C   UNL     1       5.286   6.284  15.711  0.00  0.00    +0.000 A 
ATOM      5  C   UNL     1       5.838   5.020  15.589  0.00  0.00    +0.000 A 
ATOM      6  C   UNL     1       5.733   4.117  16.653  0.00  0.00    +0.000 A 
ATOM      7  C   UNL     1       4.826   4.352  17.707  0.00  0.00    +0.000 A 
ATOM      8  C   UNL     1       4.571   3.443  18.756  0.00  0.00    +0.000 A 
ATOM      9  C   UNL     1       3.440   3.628  19.588  0.00  0.00    +0.000 A 
ATOM     10  S   UNL     1       2.959   2.677  20.943  0.00  0.00    +0.000 S 
ATOM     11  C   UNL     1       1.490   3.528  21.119  0.00  0.00    +0.000 A 
ATOM     12  C   UNL     1       1.355   4.518  20.174  0.00  0.00    +0.000 A 
ATOM     13  C   UNL     1       2.521   4.651  19.341  0.00  0.00    +0.000 A 
ENDROOT
BRANCH   1  14
ATOM     14  O   UNL     1       1.924   6.577  17.946  0.00  0.00    +0.000 OA
BRANCH  14  15
ATOM     15  C   UNL     1       2.082   7.771  18.669  0.00  0.00    +0.000 C 
ATOM     16  O   UNL     1       2.147   7.882  19.888  0.00  0.00    +0.000 OA
BRANCH  15  17
ATOM     17  C   UNL     1       2.033   8.915  17.678  0.00  0.00    +0.000 C 
BRANCH  17  21
ATOM     18  C   UNL     1       0.197  12.434  19.238  0.00  0.00    +0.000 A 
ATOM     19  C   UNL     1      -0.566  11.292  19.005  0.00  0.00    +0.000 A 
ATOM     20  C   UNL     1       0.024  10.138  18.517  0.00  0.00    +0.000 A 
ATOM     21  C   UNL     1       1.399  10.126  18.256  0.00  0.00    +0.000 A 
ATOM     22  C   UNL     1       2.172  11.257  18.488  0.00  0.00    +0.000 A 
ATOM     23  C   UNL     1       1.569  12.416  18.975  0.00  0.00    +0.000 A 
BRANCH  18  25
ATOM     24  C   UNL     1      -0.338  14.703  18.915  0.00  0.00    +0.000 C 
ATOM     25  O   UNL     1      -0.499  13.518  19.684  0.00  0.00    +0.000 OA
ENDBRANCH  18  25
ENDBRANCH  17  21
ENDBRANCH  15  17
ENDBRANCH  14  15
ENDBRANCH   1  14
TORSDOF 5
ENDMDL
MODEL 7
REMARK VINA RESULT:      -7.3      2.193      3.950
REMARK  Name = 
REMARK  6 active torsions:
REMARK  status: ('A' for Active; 'I' for Inactive)
REMARK    1  A    between atoms: C_1  and  O_2
REMARK    2  A    between atoms: O_2  and  C_3
REMARK    3  A    between atoms: C_6  and  C_7
REMARK    4  A    between atoms: C_7  and  C_8
REMARK    5  A    between atoms: C_8  and  O_10
REMARK    6  A    between atoms: O_10  and  C_11
REMARK                            x       y       z     vdW  Elec       q    Type
REMARK                         _______ _______ _______ _____ _____    ______ ____
ROOT
ATOM      1  C   UNL     1       3.679   5.885  18.860  0.00  0.00    +0.000 A 
ATOM      2  C   UNL     1       4.563   5.553  17.814  0.00  0.00    +0.000 A 
ATOM      3  C   UNL     1       5.297   6.517  17.106  0.00  0.00    +0.000 A 
ATOM      4  C   UNL     1       5.536   6.339  15.757  0.00  0.00    +0.000 A 
ATOM      5  C   UNL     1       5.372   5.072  15.222  0.00  0.00    +0.000 A 
ATOM      6  C   UNL     1       5.066   4.001  16.069  0.00  0.00    +0.000 A 
ATOM      7  C   UNL     1       4.624   4.232  17.388  0.00  0.00    +0.000 A 
ATOM      8  C   UNL     1       4.184   3.221  18.269  0.00  0.00    +0.000 A 
ATOM      9  C   UNL     1       3.480   3.573  19.448  0.00  0.00    +0.000 A 
ATOM     10  S   UNL     1       2.891   2.519  20.678  0.00  0.00    +0.000 S 
ATOM     11  C   UNL     1       2.085   3.788  21.488  0.00  0.00    +0.000 A 
ATOM     12  C   UNL     1       2.253   4.993  20.847  0.00  0.00    +0.000 A 
ATOM     13  C   UNL     1       3.139   4.900  19.717  0.00  0.00    +0.000 A 
ENDROOT
BRANCH   1  14
ATOM     14  O   UNL     1       3.272   7.238  18.991  0.00  0.00    +0.000 OA
BRANCH  14  15
ATOM     15  C   UNL     1       2.090   7.500  18.278  0.00  0.00    +0.000 C 
ATOM     16  O   UNL     1       1.450   6.697  17.608  0.00  0.00    +0.000 OA
BRANCH  15  17
ATOM     17  C   UNL     1       1.812   8.985  18.384  0.00  0.00    +0.000 C 
BRANCH  17  21
ATOM     18  C   UNL     1      -0.000  10.045  22.096  0.00  0.00    +0.000 A 
ATOM     19  C   UNL     1      -0.102  10.899  21.000  0.00  0.00    +0.000 A 
ATOM     20  C   UNL     1       0.466  10.555  19.784  0.00  0.00    +0.000 A 
ATOM     21  C   UNL     1       1.149   9.338  19.663  0.00  0.00    +0.000 A 
ATOM     22  C   UNL     1       1.254   8.477  20.748  0.00  0.00    +0.000 A 
ATOM     23  C   UNL     1       0.683   8.833  21.969  0.00  0.00    +0.000 A 
BRANCH  18  25
ATOM     24  C   UNL     1      -1.579  11.490  23.075  0.00  0.00    +0.000 C 
ATOM     25  O   UNL     1      -0.567  10.506  23.247  0.00  0.00    +0.000 OA
ENDBRANCH  18  25
ENDBRANCH  17  21
ENDBRANCH  15  17
ENDBRANCH  14  15
ENDBRANCH   1  14
TORSDOF 5
ENDMDL
MODEL 8
REMARK VINA RESULT:      -7.2      1.728      2.130
REMARK  Name = 
REMARK  6 active torsions:
REMARK  status: ('A' for Active; 'I' for Inactive)
REMARK    1  A    between atoms: C_1  and  O_2
REMARK    2  A    between atoms: O_2  and  C_3
REMARK    3  A    between atoms: C_6  and  C_7
REMARK    4  A    between atoms: C_7  and  C_8
REMARK    5  A    between atoms: C_8  and  O_10
REMARK    6  A    between atoms: O_10  and  C_11
REMARK                            x       y       z     vdW  Elec       q    Type
REMARK                         _______ _______ _______ _____ _____    ______ ____
ROOT
ATOM      1  C   UNL     1       3.573   5.615  17.683  0.00  0.00    +0.000 A 
ATOM      2  C   UNL     1       2.949   4.379  17.942  0.00  0.00    +0.000 A 
ATOM      3  C   UNL     1       1.574   4.169  17.755  0.00  0.00    +0.000 A 
ATOM      4  C   UNL     1       0.887   3.336  18.617  0.00  0.00    +0.000 A 
ATOM      5  C   UNL     1       1.615   2.458  19.403  0.00  0.00    +0.000 A 
ATOM      6  C   UNL     1       3.002   2.371  19.235  0.00  0.00    +0.000 A 
ATOM      7  C   UNL     1       3.700   3.361  18.515  0.00  0.00    +0.000 A 
ATOM      8  C   UNL     1       5.106   3.416  18.395  0.00  0.00    +0.000 A 
ATOM      9  C   UNL     1       5.726   4.596  17.919  0.00  0.00    +0.000 A 
ATOM     10  S   UNL     1       7.407   4.873  17.654  0.00  0.00    +0.000 S 
ATOM     11  C   UNL     1       7.160   6.524  17.300  0.00  0.00    +0.000 A 
ATOM     12  C   UNL     1       5.832   6.872  17.377  0.00  0.00    +0.000 A 
ATOM     13  C   UNL     1       4.979   5.743  17.640  0.00  0.00    +0.000 A 
ENDROOT
BRANCH   1  14
ATOM     14  O   UNL     1       2.752   6.765  17.542  0.00  0.00    +0.000 OA
BRANCH  14  15
ATOM     15  C   UNL     1       2.436   7.338  18.785  0.00  0.00    +0.000 C 
ATOM     16  O   UNL     1       2.590   6.821  19.886  0.00  0.00    +0.000 OA
BRANCH  15  17
ATOM     17  C   UNL     1       1.755   8.664  18.517  0.00  0.00    +0.000 C 
BRANCH  17  21
ATOM     18  C   UNL     1       0.057  10.349  22.047  0.00  0.00    +0.000 A 
ATOM     19  C   UNL     1       0.645   9.087  22.089  0.00  0.00    +0.000 A 
ATOM     20  C   UNL     1       1.217   8.539  20.952  0.00  0.00    +0.000 A 
ATOM     21  C   UNL     1       1.198   9.264  19.755  0.00  0.00    +0.000 A 
ATOM     22  C   UNL     1       0.618  10.526  19.702  0.00  0.00    +0.000 A 
ATOM     23  C   UNL     1       0.041  11.067  20.849  0.00  0.00    +0.000 A 
BRANCH  18  25
ATOM     24  C   UNL     1      -1.618  11.641  23.080  0.00  0.00    +0.000 C 
ATOM     25  O   UNL     1      -0.503  10.768  23.218  0.00  0.00    +0.000 OA
ENDBRANCH  18  25
ENDBRANCH  17  21
ENDBRANCH  15  17
ENDBRANCH  14  15
ENDBRANCH   1  14
TORSDOF 5
ENDMDL
MODEL 9
REMARK VINA RESULT:      -7.2      3.345      7.172
REMARK  Name = 
REMARK  6 active torsions:
REMARK  status: ('A' for Active; 'I' for Inactive)
REMARK    1  A    between atoms: C_1  and  O_2
REMARK    2  A    between atoms: O_2  and  C_3
REMARK    3  A    between atoms: C_6  and  C_7
REMARK    4  A    between atoms: C_7  and  C_8
REMARK    5  A    between atoms: C_8  and  O_10
REMARK    6  A    between atoms: O_10  and  C_11
REMARK                            x       y       z     vdW  Elec       q    Type
REMARK                         _______ _______ _______ _____ _____    ______ ____
ROOT
ATOM      1  C   UNL     1       3.216   6.132  18.555  0.00  0.00    +0.000 A 
ATOM      2  C   UNL     1       3.205   5.156  19.571  0.00  0.00    +0.000 A 
ATOM      3  C   UNL     1       4.077   4.056  19.577  0.00  0.00    +0.000 A 
ATOM      4  C   UNL     1       3.637   2.838  20.056  0.00  0.00    +0.000 A 
ATOM      5  C   UNL     1       2.496   2.813  20.841  0.00  0.00    +0.000 A 
ATOM      6  C   UNL     1       1.883   4.018  21.204  0.00  0.00    +0.000 A 
ATOM      7  C   UNL     1       2.215   5.219  20.544  0.00  0.00    +0.000 A 
ATOM      8  C   UNL     1       1.567   6.453  20.763  0.00  0.00    +0.000 A 
ATOM      9  C   UNL     1       1.757   7.520  19.850  0.00  0.00    +0.000 A 
ATOM     10  S   UNL     1       1.106   9.113  19.939  0.00  0.00    +0.000 S 
ATOM     11  C   UNL     1       1.707   9.529  18.397  0.00  0.00    +0.000 A 
ATOM     12  C   UNL     1       2.392   8.488  17.815  0.00  0.00    +0.000 A 
ATOM     13  C   UNL     1       2.511   7.349  18.687  0.00  0.00    +0.000 A 
ENDROOT
BRANCH   1  14
ATOM     14  O   UNL     1       3.895   5.834  17.345  0.00  0.00    +0.000 OA
BRANCH  14  15
ATOM     15  C   UNL     1       5.222   6.294  17.363  0.00  0.00    +0.000 C 
ATOM     16  O   UNL     1       5.587   7.461  17.437  0.00  0.00    +0.000 OA
BRANCH  15  17
ATOM     17  C   UNL     1       6.124   5.096  17.148  0.00  0.00    +0.000 C 
BRANCH  17  21
ATOM     18  C   UNL     1       6.476   3.944  13.057  0.00  0.00    +0.000 A 
ATOM     19  C   UNL     1       5.402   3.491  13.821  0.00  0.00    +0.000 A 
ATOM     20  C   UNL     1       5.268   3.876  15.145  0.00  0.00    +0.000 A 
ATOM     21  C   UNL     1       6.224   4.724  15.715  0.00  0.00    +0.000 A 
ATOM     22  C   UNL     1       7.297   5.185  14.962  0.00  0.00    +0.000 A 
ATOM     23  C   UNL     1       7.427   4.790  13.632  0.00  0.00    +0.000 A 
BRANCH  18  25
ATOM     24  C   UNL     1       5.812   2.259  11.553  0.00  0.00    +0.000 C 
ATOM     25  O   UNL     1       6.521   3.470  11.779  0.00  0.00    +0.000 OA
ENDBRANCH  18  25
ENDBRANCH  17  21
ENDBRANCH  15  17
ENDBRANCH  14  15
ENDBRANCH   1  14
TORSDOF 5
ENDMDL
