MODEL 1
REMARK VINA RESULT:      -7.7      0.000      0.000
REMARK  Name = 
REMARK  6 active torsions:
REMARK  status: ('A' for Active; 'I' for Inactive)
REMARK    1  A    between atoms: C_2  and  C_3
REMARK    2  A    between atoms: C_2  and  C_17
REMARK    3  A    between atoms: C_3  and  N_4
REMARK    4  A    between atoms: C_7  and  C_8
REMARK    5  A    between atoms: C_8  and  C_9
REMARK    6  A    between atoms: C_24  and  O_25
REMARK                            x       y       z     vdW  Elec       q    Type
REMARK                         _______ _______ _______ _____ _____    ______ ____
ROOT
ATOM      1  O   UNL     1       5.262   2.316  19.777  0.00  0.00    +0.000 OA
ATOM      2  C   UNL     1       4.585   2.529  18.756  0.00  0.00    +0.000 C 
ENDROOT
BRANCH   2   3
ATOM      3  C   UNL     1       5.010   3.642  17.892  0.00  0.00    +0.000 A 
ATOM      4  C   UNL     1       4.313   3.830  16.701  0.00  0.00    +0.000 A 
ATOM      5  N   UNL     1       5.208   4.396  15.856  0.00  0.00    +0.000 N 
ATOM      6  C   UNL     1       5.979   5.251  16.594  0.00  0.00    +0.000 A 
ATOM      7  C   UNL     1       6.695   6.378  16.173  0.00  0.00    +0.000 A 
ATOM      8  C   UNL     1       7.406   7.079  17.140  0.00  0.00    +0.000 A 
ATOM      9  C   UNL     1       7.478   6.597  18.444  0.00  0.00    +0.000 A 
ATOM     10  C   UNL     1       6.799   5.418  18.829  0.00  0.00    +0.000 A 
ATOM     11  C   UNL     1       5.959   4.746  17.908  0.00  0.00    +0.000 A 
ATOM     12  H   UNL     1       5.228   4.278  14.853  0.00  0.00    +0.000 HD
BRANCH  10  13
ATOM     13  O   UNL     1       6.901   4.992  20.132  0.00  0.00    +0.000 OA
ATOM     14  H   UNL     1       6.118   4.450  20.331  0.00  0.00    +0.000 HD
ENDBRANCH  10  13
ENDBRANCH   2   3
BRANCH   2  15
ATOM     15  C   UNL     1       3.295   1.742  18.508  0.00  0.00    +0.000 C 
BRANCH  15  16
ATOM     16  N   UNL     1       2.101   2.264  19.275  0.00  0.00    +0.000 NA
ATOM     17  C   UNL     1       2.478   2.433  20.687  0.00  0.00    +0.000 C 
ATOM     18  C   UNL     1       1.507   3.273  21.521  0.00  0.00    +0.000 C 
ATOM     19  C   UNL     1       1.226   4.632  20.876  0.00  0.00    +0.000 C 
ATOM     20  C   UNL     1       0.618   4.336  19.505  0.00  0.00    +0.000 C 
ATOM     21  C   UNL     1       1.535   3.467  18.636  0.00  0.00    +0.000 C 
BRANCH  19  22
ATOM     22  C   UNL     1       2.470   5.544  20.737  0.00  0.00    +0.000 C 
BRANCH  22  23
ATOM     23  C   UNL     1       2.272   6.802  19.929  0.00  0.00    +0.000 A 
ATOM     24  C   UNL     1       2.821   6.921  18.643  0.00  0.00    +0.000 A 
ATOM     25  C   UNL     1       2.608   8.061  17.882  0.00  0.00    +0.000 A 
ATOM     26  C   UNL     1       1.831   9.103  18.383  0.00  0.00    +0.000 A 
ATOM     27  C   UNL     1       1.279   9.004  19.658  0.00  0.00    +0.000 A 
ATOM     28  C   UNL     1       1.497   7.861  20.425  0.00  0.00    +0.000 A 
ENDBRANCH  22  23
ENDBRANCH  19  22
ENDBRANCH  15  16
ENDBRANCH   2  15
TORSDOF 6
ENDMDL
MODEL 2
REMARK VINA RESULT:      -7.2      3.324      7.152
REMARK  Name = 
REMARK  6 active torsions:
REMARK  status: ('A' for Active; 'I' for Inactive)
REMARK    1  A    between atoms: C_2  and  C_3
REMARK    2  A    between atoms: C_2  and  C_17
REMARK    3  A    between atoms: C_3  and  N_4
REMARK    4  A    between atoms: C_7  and  C_8
REMARK    5  A    between atoms: C_8  and  C_9
REMARK    6  A    between atoms: C_24  and  O_25
REMARK                            x       y       z     vdW  Elec       q    Type
REMARK                         _______ _______ _______ _____ _____    ______ ____
ROOT
ATOM      1  O   UNL     1       2.410  10.131  17.494  0.00  0.00    +0.000 OA
ATOM      2  C   UNL     1       1.716   9.335  18.152  0.00  0.00    +0.000 C 
ENDROOT
BRANCH   2   3
ATOM      3  C   UNL     1       0.771   9.914  19.119  0.00  0.00    +0.000 A 
ATOM      4  C   UNL     1      -0.270  10.688  18.611  0.00  0.00    +0.000 A 
ATOM      5  N   UNL     1      -0.563  11.571  19.596  0.00  0.00    +0.000 N 
ATOM      6  C   UNL     1      -0.425  10.914  20.786  0.00  0.00    +0.000 A 
ATOM      7  C   UNL     1      -1.027  11.191  22.020  0.00  0.00    +0.000 A 
ATOM      8  C   UNL     1      -0.712  10.354  23.084  0.00  0.00    +0.000 A 
ATOM      9  C   UNL     1       0.249   9.358  22.933  0.00  0.00    +0.000 A 
ATOM     10  C   UNL     1       0.892   9.142  21.692  0.00  0.00    +0.000 A 
ATOM     11  C   UNL     1       0.506   9.885  20.550  0.00  0.00    +0.000 A 
ATOM     12  H   UNL     1      -0.912  12.510  19.461  0.00  0.00    +0.000 HD
BRANCH  10  13
ATOM     13  O   UNL     1       1.828   8.140  21.599  0.00  0.00    +0.000 OA
ATOM     14  H   UNL     1       2.683   8.503  21.891  0.00  0.00    +0.000 HD
ENDBRANCH  10  13
ENDBRANCH   2   3
BRANCH   2  15
ATOM     15  C   UNL     1       1.957   7.826  18.039  0.00  0.00    +0.000 C 
BRANCH  15  16
ATOM     16  N   UNL     1       3.400   7.419  18.236  0.00  0.00    +0.000 NA
ATOM     17  C   UNL     1       3.447   6.219  19.085  0.00  0.00    +0.000 C 
ATOM     18  C   UNL     1       4.789   5.482  19.093  0.00  0.00    +0.000 C 
ATOM     19  C   UNL     1       5.270   5.155  17.678  0.00  0.00    +0.000 C 
ATOM     20  C   UNL     1       5.413   6.494  16.955  0.00  0.00    +0.000 C 
ATOM     21  C   UNL     1       4.105   7.293  16.945  0.00  0.00    +0.000 C 
BRANCH  19  22
ATOM     22  C   UNL     1       4.337   4.204  16.888  0.00  0.00    +0.000 C 
BRANCH  22  23
ATOM     23  C   UNL     1       3.309   3.466  17.708  0.00  0.00    +0.000 A 
ATOM     24  C   UNL     1       1.950   3.804  17.624  0.00  0.00    +0.000 A 
ATOM     25  C   UNL     1       0.996   3.101  18.348  0.00  0.00    +0.000 A 
ATOM     26  C   UNL     1       1.379   2.036  19.162  0.00  0.00    +0.000 A 
ATOM     27  C   UNL     1       2.724   1.688  19.260  0.00  0.00    +0.000 A 
ATOM     28  C   UNL     1       3.681   2.397  18.537  0.00  0.00    +0.000 A 
ENDBRANCH  22  23
ENDBRANCH  19  22
ENDBRANCH  15  16
ENDBRANCH   2  15
TORSDOF 6
ENDMDL
MODEL 3
REMARK VINA RESULT:      -7.2      2.854      6.979
REMARK  Name = 
REMARK  6 active torsions:
REMARK  status: ('A' for Active; 'I' for Inactive)
REMARK    1  A    between atoms: C_2  and  C_3
REMARK    2  A    between atoms: C_2  and  C_17
REMARK    3  A    between atoms: C_3  and  N_4
REMARK    4  A    between atoms: C_7  and  C_8
REMARK    5  A    between atoms: C_8  and  C_9
REMARK    6  A    between atoms: C_24  and  O_25
REMARK                            x       y       z     vdW  Elec       q    Type
REMARK                         _______ _______ _______ _____ _____    ______ ____
ROOT
ATOM      1  O   UNL     1       1.788   8.186  18.497  0.00  0.00    +0.000 OA
ATOM      2  C   UNL     1       2.562   7.213  18.524  0.00  0.00    +0.000 C 
ENDROOT
BRANCH   2   3
ATOM      3  C   UNL     1       2.216   6.107  19.431  0.00  0.00    +0.000 A 
ATOM      4  C   UNL     1       2.168   6.389  20.794  0.00  0.00    +0.000 A 
ATOM      5  N   UNL     1       2.476   5.220  21.405  0.00  0.00    +0.000 N 
ATOM      6  C   UNL     1       1.909   4.216  20.671  0.00  0.00    +0.000 A 
ATOM      7  C   UNL     1       1.531   2.931  21.080  0.00  0.00    +0.000 A 
ATOM      8  C   UNL     1       0.970   2.096  20.121  0.00  0.00    +0.000 A 
ATOM      9  C   UNL     1       0.901   2.504  18.791  0.00  0.00    +0.000 A 
ATOM     10  C   UNL     1       1.351   3.783  18.391  0.00  0.00    +0.000 A 
ATOM     11  C   UNL     1       1.808   4.712  19.357  0.00  0.00    +0.000 A 
ATOM     12  H   UNL     1       2.951   5.126  22.291  0.00  0.00    +0.000 HD
BRANCH  10  13
ATOM     13  O   UNL     1       1.253   4.133  17.066  0.00  0.00    +0.000 OA
ATOM     14  H   UNL     1       0.334   4.402  16.895  0.00  0.00    +0.000 HD
ENDBRANCH  10  13
ENDBRANCH   2   3
BRANCH   2  15
ATOM     15  C   UNL     1       3.879   7.254  17.742  0.00  0.00    +0.000 C 
BRANCH  15  16
ATOM     16  N   UNL     1       4.731   6.015  17.911  0.00  0.00    +0.000 NA
ATOM     17  C   UNL     1       4.445   5.085  16.808  0.00  0.00    +0.000 C 
ATOM     18  C   UNL     1       5.461   3.952  16.636  0.00  0.00    +0.000 C 
ATOM     19  C   UNL     1       6.894   4.480  16.533  0.00  0.00    +0.000 C 
ATOM     20  C   UNL     1       7.166   5.234  17.835  0.00  0.00    +0.000 C 
ATOM     21  C   UNL     1       6.155   6.361  18.078  0.00  0.00    +0.000 C 
BRANCH  19  22
ATOM     22  C   UNL     1       7.154   5.392  15.309  0.00  0.00    +0.000 C 
BRANCH  22  23
ATOM     23  C   UNL     1       6.919   4.760  13.959  0.00  0.00    +0.000 A 
ATOM     24  C   UNL     1       7.753   5.064  12.873  0.00  0.00    +0.000 A 
ATOM     25  C   UNL     1       7.565   4.454  11.640  0.00  0.00    +0.000 A 
ATOM     26  C   UNL     1       6.547   3.518  11.470  0.00  0.00    +0.000 A 
ATOM     27  C   UNL     1       5.707   3.206  12.537  0.00  0.00    +0.000 A 
ATOM     28  C   UNL     1       5.894   3.822  13.773  0.00  0.00    +0.000 A 
ENDBRANCH  22  23
ENDBRANCH  19  22
ENDBRANCH  15  16
ENDBRANCH   2  15
TORSDOF 6
ENDMDL
MODEL 4
REMARK VINA RESULT:      -7.2      3.222      6.886
REMARK  Name = 
REMARK  6 active torsions:
REMARK  status: ('A' for Active; 'I' for Inactive)
REMARK    1  A    between atoms: C_2  and  C_3
REMARK    2  A    between atoms: C_2  and  C_17
REMARK    3  A    between atoms: C_3  and  N_4
REMARK    4  A    between atoms: C_7  and  C_8
REMARK    5  A    between atoms: C_8  and  C_9
REMARK    6  A    between atoms: C_24  and  O_25
REMARK                            x       y       z     vdW  Elec       q    Type
REMARK                         _______ _______ _______ _____ _____    ______ ____
ROOT
ATOM      1  O   UNL     1       2.459   9.603  17.447  0.00  0.00    +0.000 OA
ATOM      2  C   UNL     1       1.745   8.895  18.179  0.00  0.00    +0.000 C 
ENDROOT
BRANCH   2   3
ATOM      3  C   UNL     1       0.815   9.590  19.083  0.00  0.00    +0.000 A 
ATOM      4  C   UNL     1      -0.208  10.333  18.499  0.00  0.00    +0.000 A 
ATOM      5  N   UNL     1      -0.478  11.318  19.389  0.00  0.00    +0.000 N 
ATOM      6  C   UNL     1      -0.353  10.781  20.640  0.00  0.00    +0.000 A 
ATOM      7  C   UNL     1      -0.945  11.195  21.840  0.00  0.00    +0.000 A 
ATOM      8  C   UNL     1      -0.648  10.463  22.983  0.00  0.00    +0.000 A 
ATOM      9  C   UNL     1       0.290   9.434  22.933  0.00  0.00    +0.000 A 
ATOM     10  C   UNL     1       0.924   9.079  21.720  0.00  0.00    +0.000 A 
ATOM     11  C   UNL     1       0.553   9.712  20.509  0.00  0.00    +0.000 A 
ATOM     12  H   UNL     1      -0.806  12.246  19.161  0.00  0.00    +0.000 HD
BRANCH  10  13
ATOM     13  O   UNL     1       1.837   8.051  21.729  0.00  0.00    +0.000 OA
ATOM     14  H   UNL     1       2.574   8.312  22.308  0.00  0.00    +0.000 HD
ENDBRANCH  10  13
ENDBRANCH   2   3
BRANCH   2  15
ATOM     15  C   UNL     1       1.945   7.376  18.214  0.00  0.00    +0.000 C 
BRANCH  15  16
ATOM     16  N   UNL     1       3.395   6.950  18.267  0.00  0.00    +0.000 NA
ATOM     17  C   UNL     1       3.598   6.089  19.442  0.00  0.00    +0.000 C 
ATOM     18  C   UNL     1       4.909   5.299  19.448  0.00  0.00    +0.000 C 
ATOM     19  C   UNL     1       5.099   4.497  18.159  0.00  0.00    +0.000 C 
ATOM     20  C   UNL     1       5.108   5.516  17.019  0.00  0.00    +0.000 C 
ATOM     21  C   UNL     1       3.830   6.362  16.985  0.00  0.00    +0.000 C 
BRANCH  19  22
ATOM     22  C   UNL     1       4.021   3.413  17.914  0.00  0.00    +0.000 C 
BRANCH  22  23
ATOM     23  C   UNL     1       3.077   3.158  19.063  0.00  0.00    +0.000 A 
ATOM     24  C   UNL     1       3.556   2.666  20.287  0.00  0.00    +0.000 A 
ATOM     25  C   UNL     1       2.696   2.467  21.358  0.00  0.00    +0.000 A 
ATOM     26  C   UNL     1       1.341   2.767  21.234  0.00  0.00    +0.000 A 
ATOM     27  C   UNL     1       0.847   3.253  20.026  0.00  0.00    +0.000 A 
ATOM     28  C   UNL     1       1.710   3.448  18.949  0.00  0.00    +0.000 A 
ENDBRANCH  22  23
ENDBRANCH  19  22
ENDBRANCH  15  16
ENDBRANCH   2  15
TORSDOF 6
ENDMDL
MODEL 5
REMARK VINA RESULT:      -7.1      3.523      7.568
REMARK  Name = 
REMARK  6 active torsions:
REMARK  status: ('A' for Active; 'I' for Inactive)
REMARK    1  A    between atoms: C_2  and  C_3
REMARK    2  A    between atoms: C_2  and  C_17
REMARK    3  A    between atoms: C_3  and  N_4
REMARK    4  A    between atoms: C_7  and  C_8
REMARK    5  A    between atoms: C_8  and  C_9
REMARK    6  A    between atoms: C_24  and  O_25
REMARK                            x       y       z     vdW  Elec       q    Type
REMARK                         _______ _______ _______ _____ _____    ______ ____
ROOT
ATOM      1  O   UNL     1       2.213   8.958  17.297  0.00  0.00    +0.000 OA
ATOM      2  C   UNL     1       2.030   8.135  18.211  0.00  0.00    +0.000 C 
ENDROOT
BRANCH   2   3
ATOM      3  C   UNL     1       1.502   8.654  19.483  0.00  0.00    +0.000 A 
ATOM      4  C   UNL     1       1.733   7.896  20.628  0.00  0.00    +0.000 A 
ATOM      5  N   UNL     1       0.694   8.177  21.450  0.00  0.00    +0.000 N 
ATOM      6  C   UNL     1       0.394   9.501  21.289  0.00  0.00    +0.000 A 
ATOM      7  C   UNL     1      -0.238  10.375  22.182  0.00  0.00    +0.000 A 
ATOM      8  C   UNL     1      -0.422  11.688  21.764  0.00  0.00    +0.000 A 
ATOM      9  C   UNL     1      -0.087  12.065  20.467  0.00  0.00    +0.000 A 
ATOM     10  C   UNL     1       0.489  11.144  19.561  0.00  0.00    +0.000 A 
ATOM     11  C   UNL     1       0.814   9.833  19.988  0.00  0.00    +0.000 A 
ATOM     12  H   UNL     1       0.288   7.543  22.125  0.00  0.00    +0.000 HD
BRANCH  10  13
ATOM     13  O   UNL     1       0.806  11.572  18.295  0.00  0.00    +0.000 OA
ATOM     14  H   UNL     1       1.399  12.339  18.378  0.00  0.00    +0.000 HD
ENDBRANCH  10  13
ENDBRANCH   2   3
BRANCH   2  15
ATOM     15  C   UNL     1       2.474   6.679  18.038  0.00  0.00    +0.000 C 
BRANCH  15  16
ATOM     16  N   UNL     1       3.966   6.473  18.174  0.00  0.00    +0.000 NA
ATOM     17  C   UNL     1       4.221   5.086  18.592  0.00  0.00    +0.000 C 
ATOM     18  C   UNL     1       5.671   4.618  18.437  0.00  0.00    +0.000 C 
ATOM     19  C   UNL     1       6.200   4.856  17.021  0.00  0.00    +0.000 C 
ATOM     20  C   UNL     1       6.108   6.362  16.777  0.00  0.00    +0.000 C 
ATOM     21  C   UNL     1       4.681   6.894  16.953  0.00  0.00    +0.000 C 
BRANCH  19  22
ATOM     22  C   UNL     1       5.446   4.076  15.916  0.00  0.00    +0.000 C 
BRANCH  22  23
ATOM     23  C   UNL     1       6.029   4.178  14.529  0.00  0.00    +0.000 A 
ATOM     24  C   UNL     1       7.208   4.903  14.300  0.00  0.00    +0.000 A 
ATOM     25  C   UNL     1       7.768   4.967  13.032  0.00  0.00    +0.000 A 
ATOM     26  C   UNL     1       7.169   4.297  11.967  0.00  0.00    +0.000 A 
ATOM     27  C   UNL     1       5.997   3.575  12.174  0.00  0.00    +0.000 A 
ATOM     28  C   UNL     1       5.431   3.515  13.447  0.00  0.00    +0.000 A 
ENDBRANCH  22  23
ENDBRANCH  19  22
ENDBRANCH  15  16
ENDBRANCH   2  15
TORSDOF 6
ENDMDL
MODEL 6
REMARK VINA RESULT:      -7.1      1.689      2.030
REMARK  Name = 
REMARK  6 active torsions:
REMARK  status: ('A' for Active; 'I' for Inactive)
REMARK    1  A    between atoms: C_2  and  C_3
REMARK    2  A    between atoms: C_2  and  C_17
REMARK    3  A    between atoms: C_3  and  N_4
REMARK    4  A    between atoms: C_7  and  C_8
REMARK    5  A    between atoms: C_8  and  C_9
REMARK    6  A    between atoms: C_24  and  O_25
REMARK                            x       y       z     vdW  Elec       q    Type
REMARK                         _______ _______ _______ _____ _____    ______ ____
ROOT
ATOM      1  O   UNL     1       3.635   4.104  16.117  0.00  0.00    +0.000 OA
ATOM      2  C   UNL     1       4.073   3.694  17.207  0.00  0.00    +0.000 C 
ENDROOT
BRANCH   2   3
ATOM      3  C   UNL     1       5.247   4.389  17.760  0.00  0.00    +0.000 A 
ATOM      4  C   UNL     1       6.017   3.698  18.692  0.00  0.00    +0.000 A 
ATOM      5  N   UNL     1       6.563   4.658  19.477  0.00  0.00    +0.000 N 
ATOM      6  C   UNL     1       6.859   5.722  18.671  0.00  0.00    +0.000 A 
ATOM      7  C   UNL     1       7.812   6.730  18.860  0.00  0.00    +0.000 A 
ATOM      8  C   UNL     1       7.911   7.706  17.875  0.00  0.00    +0.000 A 
ATOM      9  C   UNL     1       7.013   7.721  16.811  0.00  0.00    +0.000 A 
ATOM     10  C   UNL     1       6.015   6.727  16.679  0.00  0.00    +0.000 A 
ATOM     11  C   UNL     1       5.964   5.643  17.589  0.00  0.00    +0.000 A 
ATOM     12  H   UNL     1       6.794   4.559  20.456  0.00  0.00    +0.000 HD
BRANCH  10  13
ATOM     13  O   UNL     1       5.159   6.789  15.605  0.00  0.00    +0.000 OA
ATOM     14  H   UNL     1       5.407   7.562  15.069  0.00  0.00    +0.000 HD
ENDBRANCH  10  13
ENDBRANCH   2   3
BRANCH   2  15
ATOM     15  C   UNL     1       3.482   2.436  17.852  0.00  0.00    +0.000 C 
BRANCH  15  16
ATOM     16  N   UNL     1       2.449   2.722  18.918  0.00  0.00    +0.000 NA
ATOM     17  C   UNL     1       3.126   2.848  20.218  0.00  0.00    +0.000 C 
ATOM     18  C   UNL     1       2.282   3.475  21.331  0.00  0.00    +0.000 C 
ATOM     19  C   UNL     1       1.684   4.818  20.907  0.00  0.00    +0.000 C 
ATOM     20  C   UNL     1       0.810   4.531  19.685  0.00  0.00    +0.000 C 
ATOM     21  C   UNL     1       1.597   3.869  18.549  0.00  0.00    +0.000 C 
BRANCH  19  22
ATOM     22  C   UNL     1       2.732   5.912  20.583  0.00  0.00    +0.000 C 
BRANCH  22  23
ATOM     23  C   UNL     1       2.181   7.203  20.032  0.00  0.00    +0.000 A 
ATOM     24  C   UNL     1       2.437   7.582  18.706  0.00  0.00    +0.000 A 
ATOM     25  C   UNL     1       1.899   8.751  18.184  0.00  0.00    +0.000 A 
ATOM     26  C   UNL     1       1.084   9.560  18.973  0.00  0.00    +0.000 A 
ATOM     27  C   UNL     1       0.821   9.201  20.292  0.00  0.00    +0.000 A 
ATOM     28  C   UNL     1       1.365   8.031  20.818  0.00  0.00    +0.000 A 
ENDBRANCH  22  23
ENDBRANCH  19  22
ENDBRANCH  15  16
ENDBRANCH   2  15
TORSDOF 6
ENDMDL
MODEL 7
REMARK VINA RESULT:      -7.0      2.700      6.068
REMARK  Name = 
REMARK  6 active torsions:
REMARK  status: ('A' for Active; 'I' for Inactive)
REMARK    1  A    between atoms: C_2  and  C_3
REMARK    2  A    between atoms: C_2  and  C_17
REMARK    3  A    between atoms: C_3  and  N_4
REMARK    4  A    between atoms: C_7  and  C_8
REMARK    5  A    between atoms: C_8  and  C_9
REMARK    6  A    between atoms: C_24  and  O_25
REMARK                            x       y       z     vdW  Elec       q    Type
REMARK                         _______ _______ _______ _____ _____    ______ ____
ROOT
ATOM      1  O   UNL     1       3.585   6.798  19.581  0.00  0.00    +0.000 OA
ATOM      2  C   UNL     1       2.352   6.944  19.664  0.00  0.00    +0.000 C 
ENDROOT
BRANCH   2   3
ATOM      3  C   UNL     1       1.797   8.225  19.201  0.00  0.00    +0.000 A 
ATOM      4  C   UNL     1       1.979   8.553  17.860  0.00  0.00    +0.000 A 
ATOM      5  N   UNL     1       1.996   9.907  17.828  0.00  0.00    +0.000 N 
ATOM      6  C   UNL     1       1.086  10.346  18.750  0.00  0.00    +0.000 A 
ATOM      7  C   UNL     1       0.396  11.564  18.794  0.00  0.00    +0.000 A 
ATOM      8  C   UNL     1      -0.483  11.759  19.853  0.00  0.00    +0.000 A 
ATOM      9  C   UNL     1      -0.572  10.816  20.874  0.00  0.00    +0.000 A 
ATOM     10  C   UNL     1       0.187   9.623  20.839  0.00  0.00    +0.000 A 
ATOM     11  C   UNL     1       0.995   9.326  19.714  0.00  0.00    +0.000 A 
ATOM     12  H   UNL     1       2.515  10.476  17.174  0.00  0.00    +0.000 HD
BRANCH  10  13
ATOM     13  O   UNL     1       0.054   8.726  21.870  0.00  0.00    +0.000 OA
ATOM     14  H   UNL     1      -0.865   8.408  21.874  0.00  0.00    +0.000 HD
ENDBRANCH  10  13
ENDBRANCH   2   3
BRANCH   2  15
ATOM     15  C   UNL     1       1.494   5.875  20.350  0.00  0.00    +0.000 C 
BRANCH  15  16
ATOM     16  N   UNL     1       1.627   4.498  19.739  0.00  0.00    +0.000 NA
ATOM     17  C   UNL     1       1.858   4.637  18.293  0.00  0.00    +0.000 C 
ATOM     18  C   UNL     1       2.357   3.371  17.592  0.00  0.00    +0.000 C 
ATOM     19  C   UNL     1       3.595   2.788  18.278  0.00  0.00    +0.000 C 
ATOM     20  C   UNL     1       3.175   2.461  19.711  0.00  0.00    +0.000 C 
ATOM     21  C   UNL     1       2.632   3.688  20.453  0.00  0.00    +0.000 C 
BRANCH  19  22
ATOM     22  C   UNL     1       4.831   3.720  18.270  0.00  0.00    +0.000 C 
BRANCH  22  23
ATOM     23  C   UNL     1       5.227   4.270  16.922  0.00  0.00    +0.000 A 
ATOM     24  C   UNL     1       5.773   3.430  15.940  0.00  0.00    +0.000 A 
ATOM     25  C   UNL     1       6.102   3.925  14.685  0.00  0.00    +0.000 A 
ATOM     26  C   UNL     1       5.882   5.267  14.381  0.00  0.00    +0.000 A 
ATOM     27  C   UNL     1       5.344   6.116  15.345  0.00  0.00    +0.000 A 
ATOM     28  C   UNL     1       5.018   5.620  16.606  0.00  0.00    +0.000 A 
ENDBRANCH  22  23
ENDBRANCH  19  22
ENDBRANCH  15  16
ENDBRANCH   2  15
TORSDOF 6
ENDMDL
MODEL 8
REMARK VINA RESULT:      -7.0      3.971      7.764
REMARK  Name = 
REMARK  6 active torsions:
REMARK  status: ('A' for Active; 'I' for Inactive)
REMARK    1  A    between atoms: C_2  and  C_3
REMARK    2  A    between atoms: C_2  and  C_17
REMARK    3  A    between atoms: C_3  and  N_4
REMARK    4  A    between atoms: C_7  and  C_8
REMARK    5  A    between atoms: C_8  and  C_9
REMARK    6  A    between atoms: C_24  and  O_25
REMARK                            x       y       z     vdW  Elec       q    Type
REMARK                         _______ _______ _______ _____ _____    ______ ____
ROOT
ATOM      1  O   UNL     1       1.272   9.345  19.208  0.00  0.00    +0.000 OA
ATOM      2  C   UNL     1       1.216   8.844  20.346  0.00  0.00    +0.000 C 
ENDROOT
BRANCH   2   3
ATOM      3  C   UNL     1       0.448   9.579  21.363  0.00  0.00    +0.000 A 
ATOM      4  C   UNL     1       0.730   9.306  22.699  0.00  0.00    +0.000 A 
ATOM      5  N   UNL     1      -0.427   9.550  23.359  0.00  0.00    +0.000 N 
ATOM      6  C   UNL     1      -1.014  10.631  22.764  0.00  0.00    +0.000 A 
ATOM      7  C   UNL     1      -1.926  11.546  23.304  0.00  0.00    +0.000 A 
ATOM      8  C   UNL     1      -2.373  12.567  22.473  0.00  0.00    +0.000 A 
ATOM      9  C   UNL     1      -2.001  12.591  21.132  0.00  0.00    +0.000 A 
ATOM     10  C   UNL     1      -1.130  11.616  20.593  0.00  0.00    +0.000 A 
ATOM     11  C   UNL     1      -0.550  10.636  21.436  0.00  0.00    +0.000 A 
ATOM     12  H   UNL     1      -0.739   9.077  24.196  0.00  0.00    +0.000 HD
BRANCH  10  13
ATOM     13  O   UNL     1      -0.792  11.693  19.264  0.00  0.00    +0.000 OA
ATOM     14  H   UNL     1      -1.517  11.299  18.748  0.00  0.00    +0.000 HD
ENDBRANCH  10  13
ENDBRANCH   2   3
BRANCH   2  15
ATOM     15  C   UNL     1       2.034   7.592  20.678  0.00  0.00    +0.000 C 
BRANCH  15  16
ATOM     16  N   UNL     1       1.591   6.355  19.931  0.00  0.00    +0.000 NA
ATOM     17  C   UNL     1       2.264   6.320  18.623  0.00  0.00    +0.000 C 
ATOM     18  C   UNL     1       2.199   4.974  17.896  0.00  0.00    +0.000 C 
ATOM     19  C   UNL     1       2.685   3.823  18.779  0.00  0.00    +0.000 C 
ATOM     20  C   UNL     1       1.766   3.803  20.001  0.00  0.00    +0.000 C 
ATOM     21  C   UNL     1       1.765   5.140  20.750  0.00  0.00    +0.000 C 
BRANCH  19  22
ATOM     22  C   UNL     1       4.168   3.931  19.212  0.00  0.00    +0.000 C 
BRANCH  22  23
ATOM     23  C   UNL     1       5.162   4.146  18.098  0.00  0.00    +0.000 A 
ATOM     24  C   UNL     1       4.895   3.680  16.802  0.00  0.00    +0.000 A 
ATOM     25  C   UNL     1       5.789   3.911  15.766  0.00  0.00    +0.000 A 
ATOM     26  C   UNL     1       6.964   4.622  16.000  0.00  0.00    +0.000 A 
ATOM     27  C   UNL     1       7.247   5.090  17.281  0.00  0.00    +0.000 A 
ATOM     28  C   UNL     1       6.351   4.855  18.322  0.00  0.00    +0.000 A 
ENDBRANCH  22  23
ENDBRANCH  19  22
ENDBRANCH  15  16
ENDBRANCH   2  15
TORSDOF 6
ENDMDL
MODEL 9
REMARK VINA RESULT:      -7.0      1.678      2.190
REMARK  Name = 
REMARK  6 active torsions:
REMARK  status: ('A' for Active; 'I' for Inactive)
REMARK    1  A    between atoms: C_2  and  C_3
REMARK    2  A    between atoms: C_2  and  C_17
REMARK    3  A    between atoms: C_3  and  N_4
REMARK    4  A    between atoms: C_7  and  C_8
REMARK    5  A    between atoms: C_8  and  C_9
REMARK    6  A    between atoms: C_24  and  O_25
REMARK                            x       y       z     vdW  Elec       q    Type
REMARK                         _______ _______ _______ _____ _____    ______ ____
ROOT
ATOM      1  O   UNL     1       4.806   3.982  14.765  0.00  0.00    +0.000 OA
ATOM      2  C   UNL     1       5.049   4.114  15.977  0.00  0.00    +0.000 C 
ENDROOT
BRANCH   2   3
ATOM      3  C   UNL     1       5.578   5.415  16.416  0.00  0.00    +0.000 A 
ATOM      4  C   UNL     1       4.904   6.557  15.989  0.00  0.00    +0.000 A 
ATOM      5  N   UNL     1       5.849   7.526  15.942  0.00  0.00    +0.000 N 
ATOM      6  C   UNL     1       6.697   7.319  16.994  0.00  0.00    +0.000 A 
ATOM      7  C   UNL     1       7.517   8.239  17.658  0.00  0.00    +0.000 A 
ATOM      8  C   UNL     1       8.290   7.760  18.710  0.00  0.00    +0.000 A 
ATOM      9  C   UNL     1       8.314   6.399  18.999  0.00  0.00    +0.000 A 
ATOM     10  C   UNL     1       7.526   5.479  18.268  0.00  0.00    +0.000 A 
ATOM     11  C   UNL     1       6.627   5.942  17.276  0.00  0.00    +0.000 A 
ATOM     12  H   UNL     1       5.860   8.308  15.303  0.00  0.00    +0.000 HD
BRANCH  10  13
ATOM     13  O   UNL     1       7.586   4.147  18.601  0.00  0.00    +0.000 OA
ATOM     14  H   UNL     1       7.924   4.081  19.511  0.00  0.00    +0.000 HD
ENDBRANCH  10  13
ENDBRANCH   2   3
BRANCH   2  15
ATOM     15  C   UNL     1       4.923   2.916  16.924  0.00  0.00    +0.000 C 
BRANCH  15  16
ATOM     16  N   UNL     1       3.712   2.974  17.828  0.00  0.00    +0.000 NA
ATOM     17  C   UNL     1       4.160   3.194  19.212  0.00  0.00    +0.000 C 
ATOM     18  C   UNL     1       3.061   3.622  20.189  0.00  0.00    +0.000 C 
ATOM     19  C   UNL     1       2.285   4.838  19.679  0.00  0.00    +0.000 C 
ATOM     20  C   UNL     1       1.666   4.421  18.344  0.00  0.00    +0.000 C 
ATOM     21  C   UNL     1       2.720   3.949  17.336  0.00  0.00    +0.000 C 
BRANCH  19  22
ATOM     22  C   UNL     1       3.141   6.118  19.508  0.00  0.00    +0.000 C 
BRANCH  22  23
ATOM     23  C   UNL     1       2.369   7.400  19.315  0.00  0.00    +0.000 A 
ATOM     24  C   UNL     1       2.321   8.023  18.060  0.00  0.00    +0.000 A 
ATOM     25  C   UNL     1       1.580   9.181  17.869  0.00  0.00    +0.000 A 
ATOM     26  C   UNL     1       0.861   9.735  18.927  0.00  0.00    +0.000 A 
ATOM     27  C   UNL     1       0.900   9.132  20.182  0.00  0.00    +0.000 A 
ATOM     28  C   UNL     1       1.648   7.971  20.374  0.00  0.00    +0.000 A 
ENDBRANCH  22  23
ENDBRANCH  19  22
ENDBRANCH  15  16
ENDBRANCH   2  15
TORSDOF 6
ENDMDL
