MODEL 1
REMARK VINA RESULT:      -7.6      0.000      0.000
REMARK  Name = 
REMARK  6 active torsions:
REMARK  status: ('A' for Active; 'I' for Inactive)
REMARK    1  A    between atoms: C_1  and  O_2
REMARK    2  A    between atoms: O_2  and  C_3
REMARK    3  A    between atoms: C_9  and  C_10
REMARK    4  A    between atoms: C_10  and  N_11
REMARK    5  A    between atoms: N_11  and  C_12
REMARK    6  A    between atoms: C_17  and  O_18
REMARK                            x       y       z     vdW  Elec       q    Type
REMARK                         _______ _______ _______ _____ _____    ______ ____
ROOT
ATOM      1  N   UNL     1       4.017   2.812  17.415  0.00  0.00    +0.000 N 
ATOM      2  H   UNL     1       4.349   2.082  18.038  0.00  0.00    +0.000 HD
ENDROOT
BRANCH   1   3
ATOM      3  C   UNL     1       4.931   3.862  17.260  0.00  0.00    +0.000 A 
ATOM      4  C   UNL     1       5.112   4.426  15.984  0.00  0.00    +0.000 A 
ATOM      5  C   UNL     1       5.991   5.496  15.742  0.00  0.00    +0.000 A 
ATOM      6  C   UNL     1       6.672   6.000  16.849  0.00  0.00    +0.000 A 
ATOM      7  N   UNL     1       7.605   6.994  17.004  0.00  0.00    +0.000 N 
ATOM      8  C   UNL     1       7.928   7.061  18.334  0.00  0.00    +0.000 A 
ATOM      9  N   UNL     1       7.251   6.197  19.044  0.00  0.00    +0.000 NA
ATOM     10  C   UNL     1       6.478   5.518  18.137  0.00  0.00    +0.000 A 
ATOM     11  C   UNL     1       5.576   4.464  18.349  0.00  0.00    +0.000 A 
ATOM     12  H   UNL     1       7.989   7.561  16.262  0.00  0.00    +0.000 HD
BRANCH   8  13
ATOM     13  O   UNL     1       8.815   7.885  18.857  0.00  0.00    +0.000 OA
ATOM     14  H   UNL     1       8.490   8.210  19.706  0.00  0.00    +0.000 HD
ENDBRANCH   8  13
ENDBRANCH   1   3
BRANCH   1  15
ATOM     15  C   UNL     1       2.591   3.103  17.623  0.00  0.00    +0.000 C 
BRANCH  15  22
ATOM     16  C   UNL     1       2.306   4.161  19.920  0.00  0.00    +0.000 A 
ATOM     17  C   UNL     1       2.162   5.294  20.734  0.00  0.00    +0.000 A 
ATOM     18  C   UNL     1       2.095   6.570  20.172  0.00  0.00    +0.000 A 
ATOM     19  C   UNL     1       2.186   6.722  18.794  0.00  0.00    +0.000 A 
ATOM     20 BR   UNL     1       2.118   8.449  18.032  0.00  0.00    +0.000 Br
ATOM     21  C   UNL     1       2.339   5.607  17.974  0.00  0.00    +0.000 A 
ATOM     22  C   UNL     1       2.385   4.310  18.519  0.00  0.00    +0.000 A 
BRANCH  16  24
ATOM     23  C   UNL     1       1.514   2.525  21.454  0.00  0.00    +0.000 C 
ATOM     24  O   UNL     1       2.414   2.883  20.409  0.00  0.00    +0.000 OA
ENDBRANCH  16  24
ENDBRANCH  15  22
ENDBRANCH   1  15
TORSDOF 5
ENDMDL
MODEL 2
REMARK VINA RESULT:      -7.6      1.804      2.330
REMARK  Name = 
REMARK  6 active torsions:
REMARK  status: ('A' for Active; 'I' for Inactive)
REMARK    1  A    between atoms: C_1  and  O_2
REMARK    2  A    between atoms: O_2  and  C_3
REMARK    3  A    between atoms: C_9  and  C_10
REMARK    4  A    between atoms: C_10  and  N_11
REMARK    5  A    between atoms: N_11  and  C_12
REMARK    6  A    between atoms: C_17  and  O_18
REMARK                            x       y       z     vdW  Elec       q    Type
REMARK                         _______ _______ _______ _____ _____    ______ ____
ROOT
ATOM      1  N   UNL     1       2.978   2.548  18.122  0.00  0.00    +0.000 N 
ATOM      2  H   UNL     1       3.125   2.004  18.966  0.00  0.00    +0.000 HD
ENDROOT
BRANCH   1   3
ATOM      3  C   UNL     1       4.122   3.241  17.706  0.00  0.00    +0.000 A 
ATOM      4  C   UNL     1       5.021   3.719  18.678  0.00  0.00    +0.000 A 
ATOM      5  C   UNL     1       6.204   4.404  18.349  0.00  0.00    +0.000 A 
ATOM      6  C   UNL     1       6.464   4.573  16.990  0.00  0.00    +0.000 A 
ATOM      7  N   UNL     1       7.475   5.193  16.299  0.00  0.00    +0.000 N 
ATOM      8  C   UNL     1       7.219   5.041  14.961  0.00  0.00    +0.000 A 
ATOM      9  N   UNL     1       6.131   4.349  14.748  0.00  0.00    +0.000 NA
ATOM     10  C   UNL     1       5.640   4.063  15.996  0.00  0.00    +0.000 A 
ATOM     11  C   UNL     1       4.478   3.364  16.356  0.00  0.00    +0.000 A 
ATOM     12  H   UNL     1       8.256   5.681  16.711  0.00  0.00    +0.000 HD
BRANCH   8  13
ATOM     13  O   UNL     1       7.964   5.530  13.989  0.00  0.00    +0.000 OA
ATOM     14  H   UNL     1       7.395   5.923  13.315  0.00  0.00    +0.000 HD
ENDBRANCH   8  13
ENDBRANCH   1   3
BRANCH   1  15
ATOM     15  C   UNL     1       1.672   3.223  18.124  0.00  0.00    +0.000 C 
BRANCH  15  22
ATOM     16  C   UNL     1       1.551   4.628  20.242  0.00  0.00    +0.000 A 
ATOM     17  C   UNL     1       1.650   5.867  20.895  0.00  0.00    +0.000 A 
ATOM     18  C   UNL     1       1.920   7.031  20.174  0.00  0.00    +0.000 A 
ATOM     19  C   UNL     1       2.106   6.963  18.799  0.00  0.00    +0.000 A 
ATOM     20 BR   UNL     1       2.494   8.533  17.823  0.00  0.00    +0.000 Br
ATOM     21  C   UNL     1       2.019   5.740  18.139  0.00  0.00    +0.000 A 
ATOM     22  C   UNL     1       1.725   4.557  18.844  0.00  0.00    +0.000 A 
BRANCH  16  24
ATOM     23  C   UNL     1       2.364   2.978  21.749  0.00  0.00    +0.000 C 
ATOM     24  O   UNL     1       1.323   3.442  20.894  0.00  0.00    +0.000 OA
ENDBRANCH  16  24
ENDBRANCH  15  22
ENDBRANCH   1  15
TORSDOF 5
ENDMDL
MODEL 3
REMARK VINA RESULT:      -7.5      1.616      2.353
REMARK  Name = 
REMARK  6 active torsions:
REMARK  status: ('A' for Active; 'I' for Inactive)
REMARK    1  A    between atoms: C_1  and  O_2
REMARK    2  A    between atoms: O_2  and  C_3
REMARK    3  A    between atoms: C_9  and  C_10
REMARK    4  A    between atoms: C_10  and  N_11
REMARK    5  A    between atoms: N_11  and  C_12
REMARK    6  A    between atoms: C_17  and  O_18
REMARK                            x       y       z     vdW  Elec       q    Type
REMARK                         _______ _______ _______ _____ _____    ______ ____
ROOT
ATOM      1  N   UNL     1       6.038   3.968  16.646  0.00  0.00    +0.000 N 
ATOM      2  H   UNL     1       6.348   3.045  16.937  0.00  0.00    +0.000 HD
ENDROOT
BRANCH   1   3
ATOM      3  C   UNL     1       6.698   5.007  17.315  0.00  0.00    +0.000 A 
ATOM      4  C   UNL     1       7.340   4.733  18.536  0.00  0.00    +0.000 A 
ATOM      5  C   UNL     1       8.044   5.710  19.262  0.00  0.00    +0.000 A 
ATOM      6  C   UNL     1       8.098   6.983  18.697  0.00  0.00    +0.000 A 
ATOM      7  N   UNL     1       8.653   8.168  19.107  0.00  0.00    +0.000 N 
ATOM      8  C   UNL     1       8.401   9.104  18.139  0.00  0.00    +0.000 A 
ATOM      9  N   UNL     1       7.745   8.597  17.128  0.00  0.00    +0.000 NA
ATOM     10  C   UNL     1       7.534   7.284  17.465  0.00  0.00    +0.000 A 
ATOM     11  C   UNL     1       6.857   6.281  16.752  0.00  0.00    +0.000 A 
ATOM     12  H   UNL     1       9.146   8.318  19.975  0.00  0.00    +0.000 HD
BRANCH   8  13
ATOM     13  O   UNL     1       8.762  10.372  18.199  0.00  0.00    +0.000 OA
ATOM     14  H   UNL     1       8.224  10.828  18.859  0.00  0.00    +0.000 HD
ENDBRANCH   8  13
ENDBRANCH   1   3
BRANCH   1  15
ATOM     15  C   UNL     1       4.581   4.023  16.459  0.00  0.00    +0.000 C 
BRANCH  15  22
ATOM     16  C   UNL     1       3.772   4.135  18.869  0.00  0.00    +0.000 A 
ATOM     17  C   UNL     1       3.171   4.837  19.925  0.00  0.00    +0.000 A 
ATOM     18  C   UNL     1       2.689   6.133  19.735  0.00  0.00    +0.000 A 
ATOM     19  C   UNL     1       2.817   6.741  18.493  0.00  0.00    +0.000 A 
ATOM     20 BR   UNL     1       2.186   8.503  18.238  0.00  0.00    +0.000 Br
ATOM     21  C   UNL     1       3.419   6.060  17.438  0.00  0.00    +0.000 A 
ATOM     22  C   UNL     1       3.890   4.744  17.602  0.00  0.00    +0.000 A 
BRANCH  16  24
ATOM     23  C   UNL     1       4.135   2.244  20.264  0.00  0.00    +0.000 C 
ATOM     24  O   UNL     1       4.298   2.874  18.997  0.00  0.00    +0.000 OA
ENDBRANCH  16  24
ENDBRANCH  15  22
ENDBRANCH   1  15
TORSDOF 5
ENDMDL
MODEL 4
REMARK VINA RESULT:      -7.4      2.274      3.283
REMARK  Name = 
REMARK  6 active torsions:
REMARK  status: ('A' for Active; 'I' for Inactive)
REMARK    1  A    between atoms: C_1  and  O_2
REMARK    2  A    between atoms: O_2  and  C_3
REMARK    3  A    between atoms: C_9  and  C_10
REMARK    4  A    between atoms: C_10  and  N_11
REMARK    5  A    between atoms: N_11  and  C_12
REMARK    6  A    between atoms: C_17  and  O_18
REMARK                            x       y       z     vdW  Elec       q    Type
REMARK                         _______ _______ _______ _____ _____    ______ ____
ROOT
ATOM      1  N   UNL     1       5.344   4.124  17.177  0.00  0.00    +0.000 N 
ATOM      2  H   UNL     1       5.466   3.221  17.625  0.00  0.00    +0.000 HD
ENDROOT
BRANCH   1   3
ATOM      3  C   UNL     1       6.209   5.108  17.673  0.00  0.00    +0.000 A 
ATOM      4  C   UNL     1       7.064   4.788  18.744  0.00  0.00    +0.000 A 
ATOM      5  C   UNL     1       7.979   5.706  19.288  0.00  0.00    +0.000 A 
ATOM      6  C   UNL     1       8.019   6.966  18.694  0.00  0.00    +0.000 A 
ATOM      7  N   UNL     1       8.741   8.104  18.955  0.00  0.00    +0.000 N 
ATOM      8  C   UNL     1       8.372   9.052  18.037  0.00  0.00    +0.000 A 
ATOM      9  N   UNL     1       7.484   8.595  17.194  0.00  0.00    +0.000 NA
ATOM     10  C   UNL     1       7.240   7.307  17.597  0.00  0.00    +0.000 A 
ATOM     11  C   UNL     1       6.353   6.361  17.061  0.00  0.00    +0.000 A 
ATOM     12  H   UNL     1       9.412   8.216  19.700  0.00  0.00    +0.000 HD
BRANCH   8  13
ATOM     13  O   UNL     1       8.840  10.285  17.994  0.00  0.00    +0.000 OA
ATOM     14  H   UNL     1       9.649  10.303  17.466  0.00  0.00    +0.000 HD
ENDBRANCH   8  13
ENDBRANCH   1   3
BRANCH   1  15
ATOM     15  C   UNL     1       3.925   4.438  16.956  0.00  0.00    +0.000 C 
BRANCH  15  22
ATOM     16  C   UNL     1       2.889   6.100  18.581  0.00  0.00    +0.000 A 
ATOM     17  C   UNL     1       2.185   6.377  19.763  0.00  0.00    +0.000 A 
ATOM     18  C   UNL     1       1.797   5.345  20.619  0.00  0.00    +0.000 A 
ATOM     19  C   UNL     1       2.097   4.029  20.292  0.00  0.00    +0.000 A 
ATOM     20 BR   UNL     1       1.554   2.627  21.436  0.00  0.00    +0.000 Br
ATOM     21  C   UNL     1       2.788   3.738  19.118  0.00  0.00    +0.000 A 
ATOM     22  C   UNL     1       3.208   4.766  18.253  0.00  0.00    +0.000 A 
BRANCH  16  24
ATOM     23  C   UNL     1       2.573   8.304  17.746  0.00  0.00    +0.000 C 
ATOM     24  O   UNL     1       3.269   7.062  17.680  0.00  0.00    +0.000 OA
ENDBRANCH  16  24
ENDBRANCH  15  22
ENDBRANCH   1  15
TORSDOF 5
ENDMDL
MODEL 5
REMARK VINA RESULT:      -7.3      3.330      5.521
REMARK  Name = 
REMARK  6 active torsions:
REMARK  status: ('A' for Active; 'I' for Inactive)
REMARK    1  A    between atoms: C_1  and  O_2
REMARK    2  A    between atoms: O_2  and  C_3
REMARK    3  A    between atoms: C_9  and  C_10
REMARK    4  A    between atoms: C_10  and  N_11
REMARK    5  A    between atoms: N_11  and  C_12
REMARK    6  A    between atoms: C_17  and  O_18
REMARK                            x       y       z     vdW  Elec       q    Type
REMARK                         _______ _______ _______ _____ _____    ______ ____
ROOT
ATOM      1  N   UNL     1       2.985   3.994  18.514  0.00  0.00    +0.000 N 
ATOM      2  H   UNL     1       2.624   3.651  17.629  0.00  0.00    +0.000 HD
ENDROOT
BRANCH   1   3
ATOM      3  C   UNL     1       2.588   5.306  18.802  0.00  0.00    +0.000 A 
ATOM      4  C   UNL     1       2.158   5.618  20.105  0.00  0.00    +0.000 A 
ATOM      5  C   UNL     1       1.763   6.913  20.486  0.00  0.00    +0.000 A 
ATOM      6  C   UNL     1       1.839   7.898  19.503  0.00  0.00    +0.000 A 
ATOM      7  N   UNL     1       1.526   9.234  19.488  0.00  0.00    +0.000 N 
ATOM      8  C   UNL     1       1.812   9.716  18.237  0.00  0.00    +0.000 A 
ATOM      9  N   UNL     1       2.307   8.789  17.459  0.00  0.00    +0.000 NA
ATOM     10  C   UNL     1       2.316   7.650  18.223  0.00  0.00    +0.000 A 
ATOM     11  C   UNL     1       2.725   6.352  17.879  0.00  0.00    +0.000 A 
ATOM     12  H   UNL     1       1.141   9.757  20.260  0.00  0.00    +0.000 HD
BRANCH   8  13
ATOM     13  O   UNL     1       1.614  10.958  17.842  0.00  0.00    +0.000 OA
ATOM     14  H   UNL     1       2.454  11.343  17.560  0.00  0.00    +0.000 HD
ENDBRANCH   8  13
ENDBRANCH   1   3
BRANCH   1  15
ATOM     15  C   UNL     1       4.380   3.584  18.732  0.00  0.00    +0.000 C 
BRANCH  15  22
ATOM     16  C   UNL     1       6.410   4.939  18.011  0.00  0.00    +0.000 A 
ATOM     17  C   UNL     1       7.280   5.398  17.011  0.00  0.00    +0.000 A 
ATOM     18  C   UNL     1       7.064   5.067  15.672  0.00  0.00    +0.000 A 
ATOM     19  C   UNL     1       5.985   4.263  15.327  0.00  0.00    +0.000 A 
ATOM     20 BR   UNL     1       5.702   3.793  13.519  0.00  0.00    +0.000 Br
ATOM     21  C   UNL     1       5.118   3.792  16.310  0.00  0.00    +0.000 A 
ATOM     22  C   UNL     1       5.305   4.134  17.662  0.00  0.00    +0.000 A 
BRANCH  16  24
ATOM     23  C   UNL     1       7.868   5.675  19.739  0.00  0.00    +0.000 C 
ATOM     24  O   UNL     1       6.584   5.197  19.347  0.00  0.00    +0.000 OA
ENDBRANCH  16  24
ENDBRANCH  15  22
ENDBRANCH   1  15
TORSDOF 5
ENDMDL
MODEL 6
REMARK VINA RESULT:      -7.2      2.659      6.002
REMARK  Name = 
REMARK  6 active torsions:
REMARK  status: ('A' for Active; 'I' for Inactive)
REMARK    1  A    between atoms: C_1  and  O_2
REMARK    2  A    between atoms: O_2  and  C_3
REMARK    3  A    between atoms: C_9  and  C_10
REMARK    4  A    between atoms: C_10  and  N_11
REMARK    5  A    between atoms: N_11  and  C_12
REMARK    6  A    between atoms: C_17  and  O_18
REMARK                            x       y       z     vdW  Elec       q    Type
REMARK                         _______ _______ _______ _____ _____    ______ ____
ROOT
ATOM      1  N   UNL     1       3.164   6.805  17.514  0.00  0.00    +0.000 N 
ATOM      2  H   UNL     1       2.581   7.633  17.583  0.00  0.00    +0.000 HD
ENDROOT
BRANCH   1   3
ATOM      3  C   UNL     1       2.619   5.691  18.166  0.00  0.00    +0.000 A 
ATOM      4  C   UNL     1       2.042   4.665  17.395  0.00  0.00    +0.000 A 
ATOM      5  C   UNL     1       1.492   3.503  17.964  0.00  0.00    +0.000 A 
ATOM      6  C   UNL     1       1.567   3.398  19.352  0.00  0.00    +0.000 A 
ATOM      7  N   UNL     1       1.131   2.452  20.246  0.00  0.00    +0.000 N 
ATOM      8  C   UNL     1       1.487   2.870  21.502  0.00  0.00    +0.000 A 
ATOM      9  N   UNL     1       2.138   4.003  21.473  0.00  0.00    +0.000 NA
ATOM     10  C   UNL     1       2.183   4.354  20.147  0.00  0.00    +0.000 A 
ATOM     11  C   UNL     1       2.743   5.493  19.548  0.00  0.00    +0.000 A 
ATOM     12  H   UNL     1       0.629   1.609  20.012  0.00  0.00    +0.000 HD
BRANCH   8  13
ATOM     13  O   UNL     1       1.211   2.226  22.619  0.00  0.00    +0.000 OA
ATOM     14  H   UNL     1       0.313   1.874  22.574  0.00  0.00    +0.000 HD
ENDBRANCH   8  13
ENDBRANCH   1   3
BRANCH   1  15
ATOM     15  C   UNL     1       4.590   7.124  17.674  0.00  0.00    +0.000 C 
BRANCH  15  22
ATOM     16  C   UNL     1       6.512   5.459  17.756  0.00  0.00    +0.000 A 
ATOM     17  C   UNL     1       7.293   4.463  17.150  0.00  0.00    +0.000 A 
ATOM     18  C   UNL     1       7.060   4.081  15.828  0.00  0.00    +0.000 A 
ATOM     19  C   UNL     1       6.035   4.681  15.109  0.00  0.00    +0.000 A 
ATOM     20 BR   UNL     1       5.701   4.151  13.326  0.00  0.00    +0.000 Br
ATOM     21  C   UNL     1       5.246   5.665  15.700  0.00  0.00    +0.000 A 
ATOM     22  C   UNL     1       5.480   6.081  17.024  0.00  0.00    +0.000 A 
BRANCH  16  24
ATOM     23  C   UNL     1       7.989   5.808  19.587  0.00  0.00    +0.000 C 
ATOM     24  O   UNL     1       6.666   5.856  19.061  0.00  0.00    +0.000 OA
ENDBRANCH  16  24
ENDBRANCH  15  22
ENDBRANCH   1  15
TORSDOF 5
ENDMDL
MODEL 7
REMARK VINA RESULT:      -7.2      3.941      6.299
REMARK  Name = 
REMARK  6 active torsions:
REMARK  status: ('A' for Active; 'I' for Inactive)
REMARK    1  A    between atoms: C_1  and  O_2
REMARK    2  A    between atoms: O_2  and  C_3
REMARK    3  A    between atoms: C_9  and  C_10
REMARK    4  A    between atoms: C_10  and  N_11
REMARK    5  A    between atoms: N_11  and  C_12
REMARK    6  A    between atoms: C_17  and  O_18
REMARK                            x       y       z     vdW  Elec       q    Type
REMARK                         _______ _______ _______ _____ _____    ______ ____
ROOT
ATOM      1  N   UNL     1       3.052   6.467  17.922  0.00  0.00    +0.000 N 
ATOM      2  H   UNL     1       3.413   6.763  17.020  0.00  0.00    +0.000 HD
ENDROOT
BRANCH   1   3
ATOM      3  C   UNL     1       2.394   7.490  18.616  0.00  0.00    +0.000 A 
ATOM      4  C   UNL     1       1.887   8.587  17.896  0.00  0.00    +0.000 A 
ATOM      5  C   UNL     1       1.194   9.646  18.509  0.00  0.00    +0.000 A 
ATOM      6  C   UNL     1       1.009   9.549  19.887  0.00  0.00    +0.000 A 
ATOM      7  N   UNL     1       0.421  10.372  20.814  0.00  0.00    +0.000 N 
ATOM      8  C   UNL     1       0.523   9.763  22.037  0.00  0.00    +0.000 A 
ATOM      9  N   UNL     1       1.113   8.598  21.955  0.00  0.00    +0.000 NA
ATOM     10  C   UNL     1       1.436   8.456  20.629  0.00  0.00    +0.000 A 
ATOM     11  C   UNL     1       2.104   7.403  19.985  0.00  0.00    +0.000 A 
ATOM     12  H   UNL     1       0.003  11.270  20.623  0.00  0.00    +0.000 HD
BRANCH   8  13
ATOM     13  O   UNL     1       0.091  10.272  23.175  0.00  0.00    +0.000 OA
ATOM     14  H   UNL     1       0.767  10.158  23.855  0.00  0.00    +0.000 HD
ENDBRANCH   8  13
ENDBRANCH   1   3
BRANCH   1  15
ATOM     15  C   UNL     1       3.996   5.589  18.628  0.00  0.00    +0.000 C 
BRANCH  15  22
ATOM     16  C   UNL     1       6.456   5.046  18.272  0.00  0.00    +0.000 A 
ATOM     17  C   UNL     1       7.506   4.617  17.446  0.00  0.00    +0.000 A 
ATOM     18  C   UNL     1       7.277   4.315  16.102  0.00  0.00    +0.000 A 
ATOM     19  C   UNL     1       5.995   4.428  15.580  0.00  0.00    +0.000 A 
ATOM     20 BR   UNL     1       5.677   3.999  13.768  0.00  0.00    +0.000 Br
ATOM     21  C   UNL     1       4.941   4.843  16.390  0.00  0.00    +0.000 A 
ATOM     22  C   UNL     1       5.156   5.175  17.741  0.00  0.00    +0.000 A 
BRANCH  16  24
ATOM     23  C   UNL     1       7.930   5.603  20.054  0.00  0.00    +0.000 C 
ATOM     24  O   UNL     1       6.605   5.324  19.608  0.00  0.00    +0.000 OA
ENDBRANCH  16  24
ENDBRANCH  15  22
ENDBRANCH   1  15
TORSDOF 5
ENDMDL
MODEL 8
REMARK VINA RESULT:      -7.2      4.641      6.316
REMARK  Name = 
REMARK  6 active torsions:
REMARK  status: ('A' for Active; 'I' for Inactive)
REMARK    1  A    between atoms: C_1  and  O_2
REMARK    2  A    between atoms: O_2  and  C_3
REMARK    3  A    between atoms: C_9  and  C_10
REMARK    4  A    between atoms: C_10  and  N_11
REMARK    5  A    between atoms: N_11  and  C_12
REMARK    6  A    between atoms: C_17  and  O_18
REMARK                            x       y       z     vdW  Elec       q    Type
REMARK                         _______ _______ _______ _____ _____    ______ ____
ROOT
ATOM      1  N   UNL     1       2.306   7.080  20.600  0.00  0.00    +0.000 N 
ATOM      2  H   UNL     1       2.345   7.215  21.605  0.00  0.00    +0.000 HD
ENDROOT
BRANCH   1   3
ATOM      3  C   UNL     1       1.702   8.146  19.922  0.00  0.00    +0.000 A 
ATOM      4  C   UNL     1       2.015   8.359  18.567  0.00  0.00    +0.000 A 
ATOM      5  C   UNL     1       1.439   9.391  17.806  0.00  0.00    +0.000 A 
ATOM      6  C   UNL     1       0.508  10.196  18.459  0.00  0.00    +0.000 A 
ATOM      7  N   UNL     1      -0.227  11.287  18.067  0.00  0.00    +0.000 N 
ATOM      8  C   UNL     1      -0.995  11.678  19.132  0.00  0.00    +0.000 A 
ATOM      9  N   UNL     1      -0.821  10.901  20.170  0.00  0.00    +0.000 NA
ATOM     10  C   UNL     1       0.121   9.985  19.775  0.00  0.00    +0.000 A 
ATOM     11  C   UNL     1       0.697   8.933  20.503  0.00  0.00    +0.000 A 
ATOM     12  H   UNL     1      -0.192  11.725  17.158  0.00  0.00    +0.000 HD
BRANCH   8  13
ATOM     13  O   UNL     1      -1.813  12.713  19.136  0.00  0.00    +0.000 OA
ATOM     14  H   UNL     1      -1.958  13.011  18.229  0.00  0.00    +0.000 HD
ENDBRANCH   8  13
ENDBRANCH   1   3
BRANCH   1  15
ATOM     15  C   UNL     1       1.962   5.695  20.246  0.00  0.00    +0.000 C 
BRANCH  15  22
ATOM     16  C   UNL     1       2.585   4.146  18.326  0.00  0.00    +0.000 A 
ATOM     17  C   UNL     1       3.536   3.625  17.435  0.00  0.00    +0.000 A 
ATOM     18  C   UNL     1       4.873   4.022  17.508  0.00  0.00    +0.000 A 
ATOM     19  C   UNL     1       5.263   4.953  18.462  0.00  0.00    +0.000 A 
ATOM     20 BR   UNL     1       7.067   5.509  18.550  0.00  0.00    +0.000 Br
ATOM     21  C   UNL     1       4.329   5.485  19.347  0.00  0.00    +0.000 A 
ATOM     22  C   UNL     1       2.982   5.081  19.305  0.00  0.00    +0.000 A 
BRANCH  16  24
ATOM     23  C   UNL     1       0.900   2.516  18.721  0.00  0.00    +0.000 C 
ATOM     24  O   UNL     1       1.252   3.826  18.286  0.00  0.00    +0.000 OA
ENDBRANCH  16  24
ENDBRANCH  15  22
ENDBRANCH   1  15
TORSDOF 5
ENDMDL
MODEL 9
REMARK VINA RESULT:      -7.1      1.176      1.718
REMARK  Name = 
REMARK  6 active torsions:
REMARK  status: ('A' for Active; 'I' for Inactive)
REMARK    1  A    between atoms: C_1  and  O_2
REMARK    2  A    between atoms: O_2  and  C_3
REMARK    3  A    between atoms: C_9  and  C_10
REMARK    4  A    between atoms: C_10  and  N_11
REMARK    5  A    between atoms: N_11  and  C_12
REMARK    6  A    between atoms: C_17  and  O_18
REMARK                            x       y       z     vdW  Elec       q    Type
REMARK                         _______ _______ _______ _____ _____    ______ ____
ROOT
ATOM      1  N   UNL     1       4.571   4.346  16.529  0.00  0.00    +0.000 N 
ATOM      2  H   UNL     1       4.938   3.616  15.926  0.00  0.00    +0.000 HD
ENDROOT
BRANCH   1   3
ATOM      3  C   UNL     1       5.572   5.110  17.142  0.00  0.00    +0.000 A 
ATOM      4  C   UNL     1       6.407   4.501  18.096  0.00  0.00    +0.000 A 
ATOM      5  C   UNL     1       7.450   5.186  18.743  0.00  0.00    +0.000 A 
ATOM      6  C   UNL     1       7.639   6.517  18.374  0.00  0.00    +0.000 A 
ATOM      7  N   UNL     1       8.513   7.491  18.790  0.00  0.00    +0.000 N 
ATOM      8  C   UNL     1       8.246   8.625  18.070  0.00  0.00    +0.000 A 
ATOM      9  N   UNL     1       7.281   8.440  17.207  0.00  0.00    +0.000 NA
ATOM     10  C   UNL     1       6.882   7.142  17.393  0.00  0.00    +0.000 A 
ATOM     11  C   UNL     1       5.862   6.424  16.748  0.00  0.00    +0.000 A 
ATOM     12  H   UNL     1       9.213   7.385  19.508  0.00  0.00    +0.000 HD
BRANCH   8  13
ATOM     13  O   UNL     1       8.871   9.778  18.216  0.00  0.00    +0.000 OA
ATOM     14  H   UNL     1       9.734   9.732  17.784  0.00  0.00    +0.000 HD
ENDBRANCH   8  13
ENDBRANCH   1   3
BRANCH   1  15
ATOM     15  C   UNL     1       3.418   3.881  17.313  0.00  0.00    +0.000 C 
BRANCH  15  22
ATOM     16  C   UNL     1       2.802   4.695  19.644  0.00  0.00    +0.000 A 
ATOM     17  C   UNL     1       2.374   5.713  20.510  0.00  0.00    +0.000 A 
ATOM     18  C   UNL     1       2.051   6.978  20.016  0.00  0.00    +0.000 A 
ATOM     19  C   UNL     1       2.169   7.237  18.657  0.00  0.00    +0.000 A 
ATOM     20 BR   UNL     1       1.755   8.955  17.988  0.00  0.00    +0.000 Br
ATOM     21  C   UNL     1       2.602   6.240  17.787  0.00  0.00    +0.000 A 
ATOM     22  C   UNL     1       2.909   4.951  18.261  0.00  0.00    +0.000 A 
BRANCH  16  24
ATOM     23  C   UNL     1       2.130   2.624  20.601  0.00  0.00    +0.000 C 
ATOM     24  O   UNL     1       3.168   3.442  20.068  0.00  0.00    +0.000 OA
ENDBRANCH  16  24
ENDBRANCH  15  22
ENDBRANCH   1  15
TORSDOF 5
ENDMDL
