MODEL 1
REMARK VINA RESULT:      -6.9      0.000      0.000
REMARK  Name = 
REMARK  9 active torsions:
REMARK  status: ('A' for Active; 'I' for Inactive)
REMARK    1  A    between atoms: C_1  and  O_2
REMARK    2  A    between atoms: O_2  and  C_3
REMARK    3  A    between atoms: C_8  and  N_9
REMARK    4  A    between atoms: C_11  and  C_12
REMARK    5  A    between atoms: N_15  and  S_16
REMARK    6  A    between atoms: S_16  and  C_17
REMARK    7  A    between atoms: C_23  and  C_24
REMARK    8  A    between atoms: C_27  and  C_28
REMARK    9  A    between atoms: C_27  and  C_29
REMARK                            x       y       z     vdW  Elec       q    Type
REMARK                         _______ _______ _______ _____ _____    ______ ____
ROOT
ATOM      1  N   UNL     1      -0.056  11.899  19.835  0.00  0.00    +0.000 N 
ATOM      2  N   UNL     1       1.129  12.554  19.612  0.00  0.00    +0.000 NA
ATOM      3  C   UNL     1       0.858  13.534  18.738  0.00  0.00    +0.000 A 
ATOM      4  C   UNL     1      -0.479  13.500  18.328  0.00  0.00    +0.000 A 
ATOM      5  C   UNL     1      -1.053  12.455  19.017  0.00  0.00    +0.000 A 
ENDROOT
BRANCH   5   6
ATOM      6  C   UNL     1      -2.361  11.916  18.861  0.00  0.00    +0.000 C 
ATOM      7  C   UNL     1      -3.338  12.493  19.591  0.00  0.00    +0.000 C 
ATOM      8  C   UNL     1      -4.767  12.037  19.578  0.00  0.00    +0.000 C 
ATOM      9  C   UNL     1      -5.149  11.303  18.278  0.00  0.00    +0.000 C 
ATOM     10  C   UNL     1      -5.262  12.324  17.126  0.00  0.00    +0.000 C 
ATOM     11  C   UNL     1      -6.511  10.614  18.454  0.00  0.00    +0.000 C 
ATOM     12  C   UNL     1      -4.075  10.235  17.982  0.00  0.00    +0.000 C 
ATOM     13  C   UNL     1      -2.669  10.822  17.857  0.00  0.00    +0.000 C 
ENDBRANCH   5   6
BRANCH   1  19
ATOM     14  C   UNL     1      -0.432  11.228  22.229  0.00  0.00    +0.000 A 
ATOM     15  C   UNL     1      -0.637  10.186  23.159  0.00  0.00    +0.000 A 
ATOM     16  C   UNL     1      -0.501   8.847  22.800  0.00  0.00    +0.000 A 
ATOM     17  C   UNL     1      -0.178   8.527  21.496  0.00  0.00    +0.000 A 
ATOM     18  C   UNL     1      -0.035   9.545  20.553  0.00  0.00    +0.000 A 
ATOM     19  C   UNL     1      -0.157  10.908  20.882  0.00  0.00    +0.000 A 
BRANCH  14  21
ATOM     20  C   UNL     1      -1.695  13.079  23.051  0.00  0.00    +0.000 C 
ATOM     21  O   UNL     1      -0.446  12.543  22.613  0.00  0.00    +0.000 OA
ENDBRANCH  14  21
ENDBRANCH   1  19
BRANCH   3  22
ATOM     22  C   UNL     1       1.897  14.530  18.279  0.00  0.00    +0.000 C 
ATOM     23  C   UNL     1       3.321  14.175  18.694  0.00  0.00    +0.000 C 
ATOM     24  C   UNL     1       3.554  14.360  20.188  0.00  0.00    +0.000 C 
ATOM     25  N   UNL     1       3.140  15.715  20.648  0.00  0.00    +0.000 NA
ATOM     26  C   UNL     1       1.792  16.161  20.204  0.00  0.00    +0.000 C 
ATOM     27  C   UNL     1       1.590  15.963  18.711  0.00  0.00    +0.000 C 
BRANCH  25  28
ATOM     28  S   UNL     1       3.471  16.030  22.301  0.00  0.00    +0.000 S 
ATOM     29  C   UNL     1       1.920  16.673  22.908  0.00  0.00    +0.000 C 
ATOM     30  O   UNL     1       3.724  14.772  22.963  0.00  0.00    +0.000 OA
ATOM     31  O   UNL     1       4.433  17.112  22.356  0.00  0.00    +0.000 OA
ENDBRANCH  25  28
ENDBRANCH   3  22
TORSDOF 5
ENDMDL
MODEL 2
REMARK VINA RESULT:      -6.7      1.922      2.866
REMARK  Name = 
REMARK  9 active torsions:
REMARK  status: ('A' for Active; 'I' for Inactive)
REMARK    1  A    between atoms: C_1  and  O_2
REMARK    2  A    between atoms: O_2  and  C_3
REMARK    3  A    between atoms: C_8  and  N_9
REMARK    4  A    between atoms: C_11  and  C_12
REMARK    5  A    between atoms: N_15  and  S_16
REMARK    6  A    between atoms: S_16  and  C_17
REMARK    7  A    between atoms: C_23  and  C_24
REMARK    8  A    between atoms: C_27  and  C_28
REMARK    9  A    between atoms: C_27  and  C_29
REMARK                            x       y       z     vdW  Elec       q    Type
REMARK                         _______ _______ _______ _____ _____    ______ ____
ROOT
ATOM      1  N   UNL     1       0.184  12.488  21.021  0.00  0.00    +0.000 N 
ATOM      2  N   UNL     1       1.038  13.349  21.665  0.00  0.00    +0.000 NA
ATOM      3  C   UNL     1       0.642  14.586  21.338  0.00  0.00    +0.000 A 
ATOM      4  C   UNL     1      -0.427  14.561  20.435  0.00  0.00    +0.000 A 
ATOM      5  C   UNL     1      -0.707  13.228  20.227  0.00  0.00    +0.000 A 
ENDROOT
BRANCH   5   6
ATOM      6  C   UNL     1      -1.618  12.659  19.294  0.00  0.00    +0.000 C 
ATOM      7  C   UNL     1      -1.126  12.385  18.067  0.00  0.00    +0.000 C 
ATOM      8  C   UNL     1      -1.947  11.814  16.949  0.00  0.00    +0.000 C 
ATOM      9  C   UNL     1      -3.171  11.024  17.449  0.00  0.00    +0.000 C 
ATOM     10  C   UNL     1      -2.706   9.682  18.051  0.00  0.00    +0.000 C 
ATOM     11  C   UNL     1      -4.113  10.730  16.272  0.00  0.00    +0.000 C 
ATOM     12  C   UNL     1      -3.918  11.882  18.494  0.00  0.00    +0.000 C 
ATOM     13  C   UNL     1      -3.036  12.283  19.676  0.00  0.00    +0.000 C 
ENDBRANCH   5   6
BRANCH   1  19
ATOM     14  C   UNL     1      -0.414  10.506  22.449  0.00  0.00    +0.000 A 
ATOM     15  C   UNL     1      -0.442   9.102  22.591  0.00  0.00    +0.000 A 
ATOM     16  C   UNL     1       0.196   8.261  21.682  0.00  0.00    +0.000 A 
ATOM     17  C   UNL     1       0.857   8.812  20.602  0.00  0.00    +0.000 A 
ATOM     18  C   UNL     1       0.839  10.194  20.416  0.00  0.00    +0.000 A 
ATOM     19  C   UNL     1       0.211  11.074  21.318  0.00  0.00    +0.000 A 
BRANCH  14  21
ATOM     20  C   UNL     1      -2.303  11.720  23.259  0.00  0.00    +0.000 C 
ATOM     21  O   UNL     1      -0.936  11.333  23.408  0.00  0.00    +0.000 OA
ENDBRANCH  14  21
ENDBRANCH   1  19
BRANCH   3  22
ATOM     22  C   UNL     1       1.294  15.828  21.898  0.00  0.00    +0.000 C 
ATOM     23  C   UNL     1       1.089  17.075  21.042  0.00  0.00    +0.000 C 
ATOM     24  C   UNL     1       1.891  17.028  19.749  0.00  0.00    +0.000 C 
ATOM     25  N   UNL     1       3.329  16.731  19.999  0.00  0.00    +0.000 NA
ATOM     26  C   UNL     1       3.599  15.577  20.900  0.00  0.00    +0.000 C 
ATOM     27  C   UNL     1       2.785  15.651  22.180  0.00  0.00    +0.000 C 
BRANCH  25  28
ATOM     28  S   UNL     1       4.313  16.766  18.595  0.00  0.00    +0.000 S 
ATOM     29  C   UNL     1       4.803  15.061  18.401  0.00  0.00    +0.000 C 
ATOM     30  O   UNL     1       3.485  17.125  17.468  0.00  0.00    +0.000 OA
ATOM     31  O   UNL     1       5.508  17.520  18.916  0.00  0.00    +0.000 OA
ENDBRANCH  25  28
ENDBRANCH   3  22
TORSDOF 5
ENDMDL
MODEL 3
REMARK VINA RESULT:      -6.6      0.926      1.112
REMARK  Name = 
REMARK  9 active torsions:
REMARK  status: ('A' for Active; 'I' for Inactive)
REMARK    1  A    between atoms: C_1  and  O_2
REMARK    2  A    between atoms: O_2  and  C_3
REMARK    3  A    between atoms: C_8  and  N_9
REMARK    4  A    between atoms: C_11  and  C_12
REMARK    5  A    between atoms: N_15  and  S_16
REMARK    6  A    between atoms: S_16  and  C_17
REMARK    7  A    between atoms: C_23  and  C_24
REMARK    8  A    between atoms: C_27  and  C_28
REMARK    9  A    between atoms: C_27  and  C_29
REMARK                            x       y       z     vdW  Elec       q    Type
REMARK                         _______ _______ _______ _____ _____    ______ ____
ROOT
ATOM      1  N   UNL     1      -0.071  11.955  19.940  0.00  0.00    +0.000 N 
ATOM      2  N   UNL     1       1.102  12.644  19.756  0.00  0.00    +0.000 NA
ATOM      3  C   UNL     1       0.816  13.658  18.927  0.00  0.00    +0.000 A 
ATOM      4  C   UNL     1      -0.518  13.617  18.508  0.00  0.00    +0.000 A 
ATOM      5  C   UNL     1      -1.075  12.528  19.143  0.00  0.00    +0.000 A 
ENDROOT
BRANCH   5   6
ATOM      6  C   UNL     1      -2.370  11.971  18.953  0.00  0.00    +0.000 C 
ATOM      7  C   UNL     1      -3.374  12.534  19.658  0.00  0.00    +0.000 C 
ATOM      8  C   UNL     1      -4.796  12.058  19.608  0.00  0.00    +0.000 C 
ATOM      9  C   UNL     1      -5.134  11.320  18.299  0.00  0.00    +0.000 C 
ATOM     10  C   UNL     1      -5.231  12.339  17.144  0.00  0.00    +0.000 C 
ATOM     11  C   UNL     1      -6.490  10.611  18.440  0.00  0.00    +0.000 C 
ATOM     12  C   UNL     1      -4.037  10.266  18.030  0.00  0.00    +0.000 C 
ATOM     13  C   UNL     1      -2.637  10.873  17.942  0.00  0.00    +0.000 C 
ENDBRANCH   5   6
BRANCH   1  19
ATOM     14  C   UNL     1      -0.417  11.167  22.303  0.00  0.00    +0.000 A 
ATOM     15  C   UNL     1      -0.609  10.079  23.183  0.00  0.00    +0.000 A 
ATOM     16  C   UNL     1      -0.473   8.760  22.757  0.00  0.00    +0.000 A 
ATOM     17  C   UNL     1      -0.164   8.506  21.435  0.00  0.00    +0.000 A 
ATOM     18  C   UNL     1      -0.035   9.568  20.541  0.00  0.00    +0.000 A 
ATOM     19  C   UNL     1      -0.157  10.913  20.939  0.00  0.00    +0.000 A 
BRANCH  14  21
ATOM     20  C   UNL     1      -1.701  13.020  23.088  0.00  0.00    +0.000 C 
ATOM     21  O   UNL     1      -0.430  12.461  22.751  0.00  0.00    +0.000 OA
ENDBRANCH  14  21
ENDBRANCH   1  19
BRANCH   3  22
ATOM     22  C   UNL     1       1.836  14.696  18.523  0.00  0.00    +0.000 C 
ATOM     23  C   UNL     1       3.143  14.617  19.306  0.00  0.00    +0.000 C 
ATOM     24  C   UNL     1       2.985  15.084  20.747  0.00  0.00    +0.000 C 
ATOM     25  N   UNL     1       2.345  16.428  20.826  0.00  0.00    +0.000 NA
ATOM     26  C   UNL     1       1.110  16.600  20.013  0.00  0.00    +0.000 C 
ATOM     27  C   UNL     1       1.299  16.125  18.582  0.00  0.00    +0.000 C 
BRANCH  25  28
ATOM     28  S   UNL     1       2.230  17.063  22.415  0.00  0.00    +0.000 S 
ATOM     29  C   UNL     1       3.932  17.379  22.848  0.00  0.00    +0.000 C 
ATOM     30  O   UNL     1       1.541  18.330  22.349  0.00  0.00    +0.000 OA
ATOM     31  O   UNL     1       1.759  15.999  23.278  0.00  0.00    +0.000 OA
ENDBRANCH  25  28
ENDBRANCH   3  22
TORSDOF 5
ENDMDL
MODEL 4
REMARK VINA RESULT:      -6.6      1.681      2.390
REMARK  Name = 
REMARK  9 active torsions:
REMARK  status: ('A' for Active; 'I' for Inactive)
REMARK    1  A    between atoms: C_1  and  O_2
REMARK    2  A    between atoms: O_2  and  C_3
REMARK    3  A    between atoms: C_8  and  N_9
REMARK    4  A    between atoms: C_11  and  C_12
REMARK    5  A    between atoms: N_15  and  S_16
REMARK    6  A    between atoms: S_16  and  C_17
REMARK    7  A    between atoms: C_23  and  C_24
REMARK    8  A    between atoms: C_27  and  C_28
REMARK    9  A    between atoms: C_27  and  C_29
REMARK                            x       y       z     vdW  Elec       q    Type
REMARK                         _______ _______ _______ _____ _____    ______ ____
ROOT
ATOM      1  N   UNL     1       0.638  11.448  19.208  0.00  0.00    +0.000 N 
ATOM      2  N   UNL     1       1.762  12.216  19.034  0.00  0.00    +0.000 NA
ATOM      3  C   UNL     1       1.340  13.399  18.566  0.00  0.00    +0.000 A 
ATOM      4  C   UNL     1      -0.045  13.407  18.367  0.00  0.00    +0.000 A 
ATOM      5  C   UNL     1      -0.486  12.164  18.765  0.00  0.00    +0.000 A 
ENDROOT
BRANCH   5   6
ATOM      6  C   UNL     1      -1.793  11.616  18.639  0.00  0.00    +0.000 C 
ATOM      7  C   UNL     1      -2.786  12.287  19.258  0.00  0.00    +0.000 C 
ATOM      8  C   UNL     1      -4.219  11.842  19.260  0.00  0.00    +0.000 C 
ATOM      9  C   UNL     1      -4.568  10.949  18.054  0.00  0.00    +0.000 C 
ATOM     10  C   UNL     1      -4.637  11.814  16.777  0.00  0.00    +0.000 C 
ATOM     11  C   UNL     1      -5.941  10.295  18.274  0.00  0.00    +0.000 C 
ATOM     12  C   UNL     1      -3.495   9.846  17.930  0.00  0.00    +0.000 C 
ATOM     13  C   UNL     1      -2.081  10.404  17.774  0.00  0.00    +0.000 C 
ENDBRANCH   5   6
BRANCH   1  19
ATOM     14  C   UNL     1       1.453   9.076  19.394  0.00  0.00    +0.000 A 
ATOM     15  C   UNL     1       1.580   7.915  20.189  0.00  0.00    +0.000 A 
ATOM     16  C   UNL     1       0.938   7.797  21.420  0.00  0.00    +0.000 A 
ATOM     17  C   UNL     1       0.174   8.849  21.887  0.00  0.00    +0.000 A 
ATOM     18  C   UNL     1       0.092  10.024  21.141  0.00  0.00    +0.000 A 
ATOM     19  C   UNL     1       0.720  10.176  19.890  0.00  0.00    +0.000 A 
BRANCH  14  21
ATOM     20  C   UNL     1       2.838   8.070  17.731  0.00  0.00    +0.000 C 
ATOM     21  O   UNL     1       1.983   9.141  18.133  0.00  0.00    +0.000 OA
ENDBRANCH  14  21
ENDBRANCH   1  19
BRANCH   3  22
ATOM     22  C   UNL     1       2.276  14.554  18.301  0.00  0.00    +0.000 C 
ATOM     23  C   UNL     1       3.649  14.399  18.949  0.00  0.00    +0.000 C 
ATOM     24  C   UNL     1       3.597  14.564  20.461  0.00  0.00    +0.000 C 
ATOM     25  N   UNL     1       2.911  15.826  20.858  0.00  0.00    +0.000 NA
ATOM     26  C   UNL     1       1.604  16.082  20.194  0.00  0.00    +0.000 C 
ATOM     27  C   UNL     1       1.687  15.909  18.687  0.00  0.00    +0.000 C 
BRANCH  25  28
ATOM     28  S   UNL     1       2.909  16.129  22.546  0.00  0.00    +0.000 S 
ATOM     29  C   UNL     1       3.442  17.829  22.653  0.00  0.00    +0.000 C 
ATOM     30  O   UNL     1       1.547  16.055  23.019  0.00  0.00    +0.000 OA
ATOM     31  O   UNL     1       3.952  15.315  23.138  0.00  0.00    +0.000 OA
ENDBRANCH  25  28
ENDBRANCH   3  22
TORSDOF 5
ENDMDL
MODEL 5
REMARK VINA RESULT:      -6.5      1.107      1.385
REMARK  Name = 
REMARK  9 active torsions:
REMARK  status: ('A' for Active; 'I' for Inactive)
REMARK    1  A    between atoms: C_1  and  O_2
REMARK    2  A    between atoms: O_2  and  C_3
REMARK    3  A    between atoms: C_8  and  N_9
REMARK    4  A    between atoms: C_11  and  C_12
REMARK    5  A    between atoms: N_15  and  S_16
REMARK    6  A    between atoms: S_16  and  C_17
REMARK    7  A    between atoms: C_23  and  C_24
REMARK    8  A    between atoms: C_27  and  C_28
REMARK    9  A    between atoms: C_27  and  C_29
REMARK                            x       y       z     vdW  Elec       q    Type
REMARK                         _______ _______ _______ _____ _____    ______ ____
ROOT
ATOM      1  N   UNL     1       1.018  11.617  19.107  0.00  0.00    +0.000 N 
ATOM      2  N   UNL     1       2.109  12.425  18.905  0.00  0.00    +0.000 NA
ATOM      3  C   UNL     1       1.633  13.597  18.462  0.00  0.00    +0.000 A 
ATOM      4  C   UNL     1       0.244  13.559  18.306  0.00  0.00    +0.000 A 
ATOM      5  C   UNL     1      -0.142  12.299  18.705  0.00  0.00    +0.000 A 
ENDROOT
BRANCH   5   6
ATOM      6  C   UNL     1      -1.433  11.708  18.614  0.00  0.00    +0.000 C 
ATOM      7  C   UNL     1      -2.448  12.393  19.182  0.00  0.00    +0.000 C 
ATOM      8  C   UNL     1      -3.867  11.910  19.212  0.00  0.00    +0.000 C 
ATOM      9  C   UNL     1      -4.187  10.926  18.070  0.00  0.00    +0.000 C 
ATOM     10  C   UNL     1      -4.273  11.696  16.736  0.00  0.00    +0.000 C 
ATOM     11  C   UNL     1      -5.542  10.252  18.332  0.00  0.00    +0.000 C 
ATOM     12  C   UNL     1      -3.084   9.846  18.027  0.00  0.00    +0.000 C 
ATOM     13  C   UNL     1      -1.685  10.431  17.836  0.00  0.00    +0.000 C 
ENDBRANCH   5   6
BRANCH   1  19
ATOM     14  C   UNL     1       0.734  10.105  21.096  0.00  0.00    +0.000 A 
ATOM     15  C   UNL     1       0.804   8.796  21.621  0.00  0.00    +0.000 A 
ATOM     16  C   UNL     1       1.358   7.745  20.893  0.00  0.00    +0.000 A 
ATOM     17  C   UNL     1       1.832   7.982  19.618  0.00  0.00    +0.000 A 
ATOM     18  C   UNL     1       1.711   9.256  19.065  0.00  0.00    +0.000 A 
ATOM     19  C   UNL     1       1.165  10.343  19.773  0.00  0.00    +0.000 A 
BRANCH  14  21
ATOM     20  C   UNL     1      -0.964  11.021  22.501  0.00  0.00    +0.000 C 
ATOM     21  O   UNL     1       0.304  11.159  21.857  0.00  0.00    +0.000 OA
ENDBRANCH  14  21
ENDBRANCH   1  19
BRANCH   3  22
ATOM     22  C   UNL     1       2.522  14.785  18.179  0.00  0.00    +0.000 C 
ATOM     23  C   UNL     1       3.939  14.643  18.725  0.00  0.00    +0.000 C 
ATOM     24  C   UNL     1       3.989  14.749  20.243  0.00  0.00    +0.000 C 
ATOM     25  N   UNL     1       3.302  15.976  20.735  0.00  0.00    +0.000 NA
ATOM     26  C   UNL     1       1.946  16.223  20.172  0.00  0.00    +0.000 C 
ATOM     27  C   UNL     1       1.928  16.109  18.657  0.00  0.00    +0.000 C 
BRANCH  25  28
ATOM     28  S   UNL     1       3.409  16.215  22.429  0.00  0.00    +0.000 S 
ATOM     29  C   UNL     1       1.812  16.895  22.844  0.00  0.00    +0.000 C 
ATOM     30  O   UNL     1       3.525  14.923  23.065  0.00  0.00    +0.000 OA
ATOM     31  O   UNL     1       4.391  17.255  22.664  0.00  0.00    +0.000 OA
ENDBRANCH  25  28
ENDBRANCH   3  22
TORSDOF 5
ENDMDL
MODEL 6
REMARK VINA RESULT:      -6.5      5.950      8.911
REMARK  Name = 
REMARK  9 active torsions:
REMARK  status: ('A' for Active; 'I' for Inactive)
REMARK    1  A    between atoms: C_1  and  O_2
REMARK    2  A    between atoms: O_2  and  C_3
REMARK    3  A    between atoms: C_8  and  N_9
REMARK    4  A    between atoms: C_11  and  C_12
REMARK    5  A    between atoms: N_15  and  S_16
REMARK    6  A    between atoms: S_16  and  C_17
REMARK    7  A    between atoms: C_23  and  C_24
REMARK    8  A    between atoms: C_27  and  C_28
REMARK    9  A    between atoms: C_27  and  C_29
REMARK                            x       y       z     vdW  Elec       q    Type
REMARK                         _______ _______ _______ _____ _____    ______ ____
ROOT
ATOM      1  N   UNL     1       2.154   6.406  19.957  0.00  0.00    +0.000 N 
ATOM      2  N   UNL     1       1.429   7.360  20.627  0.00  0.00    +0.000 NA
ATOM      3  C   UNL     1       1.685   8.525  20.016  0.00  0.00    +0.000 A 
ATOM      4  C   UNL     1       2.619   8.369  18.987  0.00  0.00    +0.000 A 
ATOM      5  C   UNL     1       2.923   7.026  18.959  0.00  0.00    +0.000 A 
ENDROOT
BRANCH   5   6
ATOM      6  C   UNL     1       3.919   6.369  18.184  0.00  0.00    +0.000 C 
ATOM      7  C   UNL     1       4.094   6.821  16.924  0.00  0.00    +0.000 C 
ATOM      8  C   UNL     1       5.074   6.229  15.955  0.00  0.00    +0.000 C 
ATOM      9  C   UNL     1       6.244   5.511  16.652  0.00  0.00    +0.000 C 
ATOM     10  C   UNL     1       7.194   6.557  17.272  0.00  0.00    +0.000 C 
ATOM     11  C   UNL     1       7.032   4.686  15.623  0.00  0.00    +0.000 C 
ATOM     12  C   UNL     1       5.671   4.563  17.728  0.00  0.00    +0.000 C 
ATOM     13  C   UNL     1       4.811   5.288  18.763  0.00  0.00    +0.000 C 
ENDBRANCH   5   6
BRANCH   1  19
ATOM     14  C   UNL     1       1.590   4.058  19.252  0.00  0.00    +0.000 A 
ATOM     15  C   UNL     1       1.537   2.689  19.594  0.00  0.00    +0.000 A 
ATOM     16  C   UNL     1       1.757   2.251  20.897  0.00  0.00    +0.000 A 
ATOM     17  C   UNL     1       2.056   3.175  21.879  0.00  0.00    +0.000 A 
ATOM     18  C   UNL     1       2.174   4.523  21.542  0.00  0.00    +0.000 A 
ATOM     19  C   UNL     1       1.951   5.002  20.238  0.00  0.00    +0.000 A 
BRANCH  14  21
ATOM     20  C   UNL     1       1.868   3.836  16.892  0.00  0.00    +0.000 C 
ATOM     21  O   UNL     1       1.254   4.497  17.999  0.00  0.00    +0.000 OA
ENDBRANCH  14  21
ENDBRANCH   1  19
BRANCH   3  22
ATOM     22  C   UNL     1       1.025   9.821  20.420  0.00  0.00    +0.000 C 
ATOM     23  C   UNL     1      -0.393   9.653  20.957  0.00  0.00    +0.000 C 
ATOM     24  C   UNL     1      -1.388   9.287  19.863  0.00  0.00    +0.000 C 
ATOM     25  N   UNL     1      -1.316  10.230  18.712  0.00  0.00    +0.000 NA
ATOM     26  C   UNL     1       0.052  10.507  18.194  0.00  0.00    +0.000 C 
ATOM     27  C   UNL     1       1.021  10.868  19.307  0.00  0.00    +0.000 C 
BRANCH  25  28
ATOM     28  S   UNL     1      -2.481   9.939  17.488  0.00  0.00    +0.000 S 
ATOM     29  C   UNL     1      -3.199  11.551  17.222  0.00  0.00    +0.000 C 
ATOM     30  O   UNL     1      -1.787   9.554  16.281  0.00  0.00    +0.000 OA
ATOM     31  O   UNL     1      -3.514   9.099  18.058  0.00  0.00    +0.000 OA
ENDBRANCH  25  28
ENDBRANCH   3  22
TORSDOF 5
ENDMDL
MODEL 7
REMARK VINA RESULT:      -6.5      2.086      3.236
REMARK  Name = 
REMARK  9 active torsions:
REMARK  status: ('A' for Active; 'I' for Inactive)
REMARK    1  A    between atoms: C_1  and  O_2
REMARK    2  A    between atoms: O_2  and  C_3
REMARK    3  A    between atoms: C_8  and  N_9
REMARK    4  A    between atoms: C_11  and  C_12
REMARK    5  A    between atoms: N_15  and  S_16
REMARK    6  A    between atoms: S_16  and  C_17
REMARK    7  A    between atoms: C_23  and  C_24
REMARK    8  A    between atoms: C_27  and  C_28
REMARK    9  A    between atoms: C_27  and  C_29
REMARK                            x       y       z     vdW  Elec       q    Type
REMARK                         _______ _______ _______ _____ _____    ______ ____
ROOT
ATOM      1  N   UNL     1       0.111  12.483  20.978  0.00  0.00    +0.000 N 
ATOM      2  N   UNL     1       0.955  13.342  21.636  0.00  0.00    +0.000 NA
ATOM      3  C   UNL     1       0.560  14.581  21.309  0.00  0.00    +0.000 A 
ATOM      4  C   UNL     1      -0.498  14.556  20.394  0.00  0.00    +0.000 A 
ATOM      5  C   UNL     1      -0.772  13.224  20.177  0.00  0.00    +0.000 A 
ENDROOT
BRANCH   5   6
ATOM      6  C   UNL     1      -1.671  12.657  19.231  0.00  0.00    +0.000 C 
ATOM      7  C   UNL     1      -1.172  12.417  18.000  0.00  0.00    +0.000 C 
ATOM      8  C   UNL     1      -1.980  11.853  16.869  0.00  0.00    +0.000 C 
ATOM      9  C   UNL     1      -3.190  11.031  17.350  0.00  0.00    +0.000 C 
ATOM     10  C   UNL     1      -2.701   9.685  17.926  0.00  0.00    +0.000 C 
ATOM     11  C   UNL     1      -4.124  10.742  16.165  0.00  0.00    +0.000 C 
ATOM     12  C   UNL     1      -3.955  11.853  18.410  0.00  0.00    +0.000 C 
ATOM     13  C   UNL     1      -3.083  12.247  19.602  0.00  0.00    +0.000 C 
ENDBRANCH   5   6
BRANCH   1  19
ATOM     14  C   UNL     1       0.801  10.120  20.459  0.00  0.00    +0.000 A 
ATOM     15  C   UNL     1       0.880   8.778  20.889  0.00  0.00    +0.000 A 
ATOM     16  C   UNL     1       0.256   8.345  22.056  0.00  0.00    +0.000 A 
ATOM     17  C   UNL     1      -0.442   9.254  22.826  0.00  0.00    +0.000 A 
ATOM     18  C   UNL     1      -0.475  10.596  22.446  0.00  0.00    +0.000 A 
ATOM     19  C   UNL     1       0.138  11.067  21.270  0.00  0.00    +0.000 A 
BRANCH  14  21
ATOM     20  C   UNL     1       1.189   9.601  18.162  0.00  0.00    +0.000 C 
ATOM     21  O   UNL     1       1.311  10.517  19.251  0.00  0.00    +0.000 OA
ENDBRANCH  14  21
ENDBRANCH   1  19
BRANCH   3  22
ATOM     22  C   UNL     1       1.203  15.821  21.882  0.00  0.00    +0.000 C 
ATOM     23  C   UNL     1       1.040  17.062  21.009  0.00  0.00    +0.000 C 
ATOM     24  C   UNL     1       1.888  16.997  19.746  0.00  0.00    +0.000 C 
ATOM     25  N   UNL     1       3.313  16.690  20.051  0.00  0.00    +0.000 NA
ATOM     26  C   UNL     1       3.540  15.541  20.971  0.00  0.00    +0.000 C 
ATOM     27  C   UNL     1       2.681  15.634  22.220  0.00  0.00    +0.000 C 
BRANCH  25  28
ATOM     28  S   UNL     1       4.348  16.704  18.684  0.00  0.00    +0.000 S 
ATOM     29  C   UNL     1       5.015  15.049  18.663  0.00  0.00    +0.000 C 
ATOM     30  O   UNL     1       3.536  16.875  17.501  0.00  0.00    +0.000 OA
ATOM     31  O   UNL     1       5.445  17.604  18.975  0.00  0.00    +0.000 OA
ENDBRANCH  25  28
ENDBRANCH   3  22
TORSDOF 5
ENDMDL
MODEL 8
REMARK VINA RESULT:      -6.5      1.495      2.335
REMARK  Name = 
REMARK  9 active torsions:
REMARK  status: ('A' for Active; 'I' for Inactive)
REMARK    1  A    between atoms: C_1  and  O_2
REMARK    2  A    between atoms: O_2  and  C_3
REMARK    3  A    between atoms: C_8  and  N_9
REMARK    4  A    between atoms: C_11  and  C_12
REMARK    5  A    between atoms: N_15  and  S_16
REMARK    6  A    between atoms: S_16  and  C_17
REMARK    7  A    between atoms: C_23  and  C_24
REMARK    8  A    between atoms: C_27  and  C_28
REMARK    9  A    between atoms: C_27  and  C_29
REMARK                            x       y       z     vdW  Elec       q    Type
REMARK                         _______ _______ _______ _____ _____    ______ ____
ROOT
ATOM      1  N   UNL     1       0.434  11.880  19.307  0.00  0.00    +0.000 N 
ATOM      2  N   UNL     1       1.523  12.678  19.063  0.00  0.00    +0.000 NA
ATOM      3  C   UNL     1       1.052  13.792  18.486  0.00  0.00    +0.000 A 
ATOM      4  C   UNL     1      -0.331  13.720  18.286  0.00  0.00    +0.000 A 
ATOM      5  C   UNL     1      -0.718  12.501  18.798  0.00  0.00    +0.000 A 
ENDROOT
BRANCH   5   6
ATOM      6  C   UNL     1      -1.999  11.886  18.722  0.00  0.00    +0.000 C 
ATOM      7  C   UNL     1      -2.981  12.455  19.452  0.00  0.00    +0.000 C 
ATOM      8  C   UNL     1      -4.383  11.926  19.519  0.00  0.00    +0.000 C 
ATOM      9  C   UNL     1      -4.768  11.096  18.280  0.00  0.00    +0.000 C 
ATOM     10  C   UNL     1      -4.975  12.037  17.075  0.00  0.00    +0.000 C 
ATOM     11  C   UNL     1      -6.084  10.348  18.547  0.00  0.00    +0.000 C 
ATOM     12  C   UNL     1      -3.648  10.068  18.008  0.00  0.00    +0.000 C 
ATOM     13  C   UNL     1      -2.281  10.719  17.796  0.00  0.00    +0.000 C 
ENDBRANCH   5   6
BRANCH   1  19
ATOM     14  C   UNL     1       1.057   9.460  19.592  0.00  0.00    +0.000 A 
ATOM     15  C   UNL     1       1.273   8.379  20.474  0.00  0.00    +0.000 A 
ATOM     16  C   UNL     1       0.947   8.460  21.826  0.00  0.00    +0.000 A 
ATOM     17  C   UNL     1       0.418   9.634  22.323  0.00  0.00    +0.000 A 
ATOM     18  C   UNL     1       0.258  10.731  21.476  0.00  0.00    +0.000 A 
ATOM     19  C   UNL     1       0.569  10.682  20.104  0.00  0.00    +0.000 A 
BRANCH  14  21
ATOM     20  C   UNL     1       2.340   8.497  17.825  0.00  0.00    +0.000 C 
ATOM     21  O   UNL     1       1.263   9.337  18.244  0.00  0.00    +0.000 OA
ENDBRANCH  14  21
ENDBRANCH   1  19
BRANCH   3  22
ATOM     22  C   UNL     1       1.938  14.958  18.115  0.00  0.00    +0.000 C 
ATOM     23  C   UNL     1       3.430  14.648  18.184  0.00  0.00    +0.000 C 
ATOM     24  C   UNL     1       3.927  14.505  19.616  0.00  0.00    +0.000 C 
ATOM     25  N   UNL     1       3.541  15.673  20.455  0.00  0.00    +0.000 NA
ATOM     26  C   UNL     1       2.113  16.085  20.367  0.00  0.00    +0.000 C 
ATOM     27  C   UNL     1       1.647  16.219  18.928  0.00  0.00    +0.000 C 
BRANCH  25  28
ATOM     28  S   UNL     1       4.158  15.628  22.055  0.00  0.00    +0.000 S 
ATOM     29  C   UNL     1       5.626  14.627  21.894  0.00  0.00    +0.000 C 
ATOM     30  O   UNL     1       4.563  16.964  22.425  0.00  0.00    +0.000 OA
ATOM     31  O   UNL     1       3.217  14.880  22.865  0.00  0.00    +0.000 OA
ENDBRANCH  25  28
ENDBRANCH   3  22
TORSDOF 5
ENDMDL
MODEL 9
REMARK VINA RESULT:      -6.3      2.580      4.081
REMARK  Name = 
REMARK  9 active torsions:
REMARK  status: ('A' for Active; 'I' for Inactive)
REMARK    1  A    between atoms: C_1  and  O_2
REMARK    2  A    between atoms: O_2  and  C_3
REMARK    3  A    between atoms: C_8  and  N_9
REMARK    4  A    between atoms: C_11  and  C_12
REMARK    5  A    between atoms: N_15  and  S_16
REMARK    6  A    between atoms: S_16  and  C_17
REMARK    7  A    between atoms: C_23  and  C_24
REMARK    8  A    between atoms: C_27  and  C_28
REMARK    9  A    between atoms: C_27  and  C_29
REMARK                            x       y       z     vdW  Elec       q    Type
REMARK                         _______ _______ _______ _____ _____    ______ ____
ROOT
ATOM      1  N   UNL     1      -0.532  13.059  22.183  0.00  0.00    +0.000 N 
ATOM      2  N   UNL     1       0.610  13.807  22.034  0.00  0.00    +0.000 NA
ATOM      3  C   UNL     1       0.331  15.021  22.527  0.00  0.00    +0.000 A 
ATOM      4  C   UNL     1      -1.001  15.111  22.946  0.00  0.00    +0.000 A 
ATOM      5  C   UNL     1      -1.548  13.868  22.715  0.00  0.00    +0.000 A 
ENDROOT
BRANCH   5   6
ATOM      6  C   UNL     1      -2.909  13.472  22.843  0.00  0.00    +0.000 C 
ATOM      7  C   UNL     1      -3.312  13.104  24.078  0.00  0.00    +0.000 C 
ATOM      8  C   UNL     1      -4.699  12.628  24.394  0.00  0.00    +0.000 C 
ATOM      9  C   UNL     1      -5.752  13.148  23.396  0.00  0.00    +0.000 C 
ATOM     10  C   UNL     1      -6.001  14.650  23.647  0.00  0.00    +0.000 C 
ATOM     11  C   UNL     1      -7.074  12.393  23.598  0.00  0.00    +0.000 C 
ATOM     12  C   UNL     1      -5.238  12.894  21.962  0.00  0.00    +0.000 C 
ATOM     13  C   UNL     1      -3.887  13.553  21.687  0.00  0.00    +0.000 C 
ENDBRANCH   5   6
BRANCH   1  19
ATOM     14  C   UNL     1      -0.359  11.078  20.643  0.00  0.00    +0.000 A 
ATOM     15  C   UNL     1      -0.224   9.678  20.508  0.00  0.00    +0.000 A 
ATOM     16  C   UNL     1      -0.312   8.825  21.605  0.00  0.00    +0.000 A 
ATOM     17  C   UNL     1      -0.516   9.360  22.862  0.00  0.00    +0.000 A 
ATOM     18  C   UNL     1      -0.588  10.744  23.018  0.00  0.00    +0.000 A 
ATOM     19  C   UNL     1      -0.511  11.636  21.931  0.00  0.00    +0.000 A 
BRANCH  14  21
ATOM     20  C   UNL     1      -1.592  11.900  18.772  0.00  0.00    +0.000 C 
ATOM     21  O   UNL     1      -0.394  11.902  19.550  0.00  0.00    +0.000 OA
ENDBRANCH  14  21
ENDBRANCH   1  19
BRANCH   3  22
ATOM     22  C   UNL     1       1.356  16.127  22.604  0.00  0.00    +0.000 C 
ATOM     23  C   UNL     1       1.081  17.294  21.660  0.00  0.00    +0.000 C 
ATOM     24  C   UNL     1       1.328  16.931  20.203  0.00  0.00    +0.000 C 
ATOM     25  N   UNL     1       2.679  16.334  20.002  0.00  0.00    +0.000 NA
ATOM     26  C   UNL     1       3.047  15.247  20.949  0.00  0.00    +0.000 C 
ATOM     27  C   UNL     1       2.788  15.638  22.395  0.00  0.00    +0.000 C 
BRANCH  25  28
ATOM     28  S   UNL     1       3.067  15.998  18.366  0.00  0.00    +0.000 S 
ATOM     29  C   UNL     1       4.830  15.725  18.416  0.00  0.00    +0.000 C 
ATOM     30  O   UNL     1       2.431  14.755  17.994  0.00  0.00    +0.000 OA
ATOM     31  O   UNL     1       2.843  17.210  17.605  0.00  0.00    +0.000 OA
ENDBRANCH  25  28
ENDBRANCH   3  22
TORSDOF 5
ENDMDL
