MODEL 1
REMARK VINA RESULT:      -7.1      0.000      0.000
REMARK  Name = 
REMARK  3 active torsions:
REMARK  status: ('A' for Active; 'I' for Inactive)
REMARK    1  A    between atoms: C_5  and  C_6
REMARK    2  A    between atoms: C_6  and  O_7
REMARK    3  A    between atoms: O_7  and  C_8
REMARK                            x       y       z     vdW  Elec       q    Type
REMARK                         _______ _______ _______ _____ _____    ______ ____
ROOT
ATOM      1  C   UNL     1       3.079   3.480  17.654  0.00  0.00    +0.000 A 
ATOM      2  N   UNL     1       2.833   2.164  17.793  0.00  0.00    +0.000 NA
ATOM      3  C   UNL     1       2.146   1.816  18.883  0.00  0.00    +0.000 A 
ATOM      4  N   UNL     1       1.698   2.647  19.833  0.00  0.00    +0.000 NA
ATOM      5  C   UNL     1       1.958   3.950  19.670  0.00  0.00    +0.000 A 
ATOM      6  C   UNL     1       1.510   4.843  20.635  0.00  0.00    +0.000 A 
ATOM      7  C   UNL     1       1.741   6.218  20.532  0.00  0.00    +0.000 A 
ATOM      8  C   UNL     1       2.434   6.722  19.438  0.00  0.00    +0.000 A 
ATOM      9  C   UNL     1       2.897   5.846  18.458  0.00  0.00    +0.000 A 
ATOM     10  C   UNL     1       2.663   4.453  18.570  0.00  0.00    +0.000 A 
ENDROOT
BRANCH   1  11
ATOM     11  O   UNL     1       3.789   3.898  16.538  0.00  0.00    +0.000 OA
BRANCH  11  12
ATOM     12  C   UNL     1       5.184   3.593  16.633  0.00  0.00    +0.000 C 
BRANCH  12  17
ATOM     13 BR   UNL     1       8.289   8.752  18.120  0.00  0.00    +0.000 Br
ATOM     14  C   UNL     1       7.352   7.177  17.655  0.00  0.00    +0.000 A 
ATOM     15  C   UNL     1       6.403   7.211  16.635  0.00  0.00    +0.000 A 
ATOM     16  C   UNL     1       5.712   6.046  16.293  0.00  0.00    +0.000 A 
ATOM     17  C   UNL     1       5.964   4.844  16.969  0.00  0.00    +0.000 A 
ATOM     18  C   UNL     1       6.920   4.829  17.996  0.00  0.00    +0.000 A 
ATOM     19  C   UNL     1       7.613   5.992  18.339  0.00  0.00    +0.000 A 
ENDBRANCH  12  17
ENDBRANCH  11  12
ENDBRANCH   1  11
TORSDOF 3
ENDMDL
MODEL 2
REMARK VINA RESULT:      -7.1      0.135      1.117
REMARK  Name = 
REMARK  3 active torsions:
REMARK  status: ('A' for Active; 'I' for Inactive)
REMARK    1  A    between atoms: C_5  and  C_6
REMARK    2  A    between atoms: C_6  and  O_7
REMARK    3  A    between atoms: O_7  and  C_8
REMARK                            x       y       z     vdW  Elec       q    Type
REMARK                         _______ _______ _______ _____ _____    ______ ____
ROOT
ATOM      1  C   UNL     1       3.170   3.487  17.699  0.00  0.00    +0.000 A 
ATOM      2  N   UNL     1       3.016   2.157  17.845  0.00  0.00    +0.000 NA
ATOM      3  C   UNL     1       2.380   1.767  18.950  0.00  0.00    +0.000 A 
ATOM      4  N   UNL     1       1.900   2.567  19.910  0.00  0.00    +0.000 NA
ATOM      5  C   UNL     1       2.068   3.884  19.742  0.00  0.00    +0.000 A 
ATOM      6  C   UNL     1       1.584   4.747  20.716  0.00  0.00    +0.000 A 
ATOM      7  C   UNL     1       1.719   6.133  20.608  0.00  0.00    +0.000 A 
ATOM      8  C   UNL     1       2.351   6.682  19.498  0.00  0.00    +0.000 A 
ATOM      9  C   UNL     1       2.849   5.837  18.507  0.00  0.00    +0.000 A 
ATOM     10  C   UNL     1       2.711   4.432  18.625  0.00  0.00    +0.000 A 
ENDROOT
BRANCH   1  11
ATOM     11  O   UNL     1       3.823   3.950  16.566  0.00  0.00    +0.000 OA
BRANCH  11  12
ATOM     12  C   UNL     1       5.230   3.692  16.605  0.00  0.00    +0.000 C 
BRANCH  12  17
ATOM     13 BR   UNL     1       8.373   8.803  18.176  0.00  0.00    +0.000 Br
ATOM     14  C   UNL     1       7.406   7.247  17.709  0.00  0.00    +0.000 A 
ATOM     15  C   UNL     1       7.684   6.039  18.348  0.00  0.00    +0.000 A 
ATOM     16  C   UNL     1       6.968   4.891  18.001  0.00  0.00    +0.000 A 
ATOM     17  C   UNL     1       5.974   4.943  17.015  0.00  0.00    +0.000 A 
ATOM     18  C   UNL     1       5.709   6.166  16.380  0.00  0.00    +0.000 A 
ATOM     19  C   UNL     1       6.423   7.315  16.725  0.00  0.00    +0.000 A 
ENDBRANCH  12  17
ENDBRANCH  11  12
ENDBRANCH   1  11
TORSDOF 3
ENDMDL
MODEL 3
REMARK VINA RESULT:      -7.1      1.022      1.206
REMARK  Name = 
REMARK  3 active torsions:
REMARK  status: ('A' for Active; 'I' for Inactive)
REMARK    1  A    between atoms: C_5  and  C_6
REMARK    2  A    between atoms: C_6  and  O_7
REMARK    3  A    between atoms: O_7  and  C_8
REMARK                            x       y       z     vdW  Elec       q    Type
REMARK                         _______ _______ _______ _____ _____    ______ ____
ROOT
ATOM      1  C   UNL     1       2.339   3.749  18.456  0.00  0.00    +0.000 A 
ATOM      2  N   UNL     1       2.032   2.630  19.138  0.00  0.00    +0.000 NA
ATOM      3  C   UNL     1       1.567   2.816  20.374  0.00  0.00    +0.000 A 
ATOM      4  N   UNL     1       1.390   3.996  20.983  0.00  0.00    +0.000 NA
ATOM      5  C   UNL     1       1.706   5.092  20.284  0.00  0.00    +0.000 A 
ATOM      6  C   UNL     1       1.537   6.334  20.881  0.00  0.00    +0.000 A 
ATOM      7  C   UNL     1       1.841   7.522  20.212  0.00  0.00    +0.000 A 
ATOM      8  C   UNL     1       2.323   7.478  18.909  0.00  0.00    +0.000 A 
ATOM      9  C   UNL     1       2.504   6.243  18.287  0.00  0.00    +0.000 A 
ATOM     10  C   UNL     1       2.197   5.042  18.974  0.00  0.00    +0.000 A 
ENDROOT
BRANCH   1  11
ATOM     11  O   UNL     1       2.825   3.615  17.164  0.00  0.00    +0.000 OA
BRANCH  11  12
ATOM     12  C   UNL     1       4.188   3.178  17.138  0.00  0.00    +0.000 C 
BRANCH  12  17
ATOM     13 BR   UNL     1       7.881   8.129  17.704  0.00  0.00    +0.000 Br
ATOM     14  C   UNL     1       6.766   6.613  17.523  0.00  0.00    +0.000 A 
ATOM     15  C   UNL     1       5.996   6.452  16.372  0.00  0.00    +0.000 A 
ATOM     16  C   UNL     1       5.173   5.331  16.240  0.00  0.00    +0.000 A 
ATOM     17  C   UNL     1       5.114   4.368  17.257  0.00  0.00    +0.000 A 
ATOM     18  C   UNL     1       5.892   4.547  18.411  0.00  0.00    +0.000 A 
ATOM     19  C   UNL     1       6.717   5.667  18.544  0.00  0.00    +0.000 A 
ENDBRANCH  12  17
ENDBRANCH  11  12
ENDBRANCH   1  11
TORSDOF 3
ENDMDL
MODEL 4
REMARK VINA RESULT:      -7.0      3.263      5.000
REMARK  Name = 
REMARK  3 active torsions:
REMARK  status: ('A' for Active; 'I' for Inactive)
REMARK    1  A    between atoms: C_5  and  C_6
REMARK    2  A    between atoms: C_6  and  O_7
REMARK    3  A    between atoms: O_7  and  C_8
REMARK                            x       y       z     vdW  Elec       q    Type
REMARK                         _______ _______ _______ _____ _____    ______ ____
ROOT
ATOM      1  C   UNL     1       3.345   5.124  18.394  0.00  0.00    +0.000 A 
ATOM      2  N   UNL     1       4.624   5.054  17.979  0.00  0.00    +0.000 NA
ATOM      3  C   UNL     1       5.375   4.127  18.575  0.00  0.00    +0.000 A 
ATOM      4  N   UNL     1       4.976   3.284  19.536  0.00  0.00    +0.000 NA
ATOM      5  C   UNL     1       3.701   3.376  19.931  0.00  0.00    +0.000 A 
ATOM      6  C   UNL     1       3.249   2.519  20.926  0.00  0.00    +0.000 A 
ATOM      7  C   UNL     1       1.930   2.555  21.388  0.00  0.00    +0.000 A 
ATOM      8  C   UNL     1       1.032   3.464  20.844  0.00  0.00    +0.000 A 
ATOM      9  C   UNL     1       1.461   4.338  19.846  0.00  0.00    +0.000 A 
ATOM     10  C   UNL     1       2.800   4.299  19.385  0.00  0.00    +0.000 A 
ENDROOT
BRANCH   1  11
ATOM     11  O   UNL     1       2.518   6.069  17.806  0.00  0.00    +0.000 OA
BRANCH  11  12
ATOM     12  C   UNL     1       3.097   7.378  17.810  0.00  0.00    +0.000 C 
BRANCH  12  17
ATOM     13 BR   UNL     1      -0.699  11.228  20.850  0.00  0.00    +0.000 Br
ATOM     14  C   UNL     1       0.470  10.064  19.926  0.00  0.00    +0.000 A 
ATOM     15  C   UNL     1       0.827  10.341  18.608  0.00  0.00    +0.000 A 
ATOM     16  C   UNL     1       1.690   9.479  17.927  0.00  0.00    +0.000 A 
ATOM     17  C   UNL     1       2.200   8.337  18.560  0.00  0.00    +0.000 A 
ATOM     18  C   UNL     1       1.828   8.071  19.886  0.00  0.00    +0.000 A 
ATOM     19  C   UNL     1       0.965   8.932  20.569  0.00  0.00    +0.000 A 
ENDBRANCH  12  17
ENDBRANCH  11  12
ENDBRANCH   1  11
TORSDOF 3
ENDMDL
MODEL 5
REMARK VINA RESULT:      -7.0      3.260      5.109
REMARK  Name = 
REMARK  3 active torsions:
REMARK  status: ('A' for Active; 'I' for Inactive)
REMARK    1  A    between atoms: C_5  and  C_6
REMARK    2  A    between atoms: C_6  and  O_7
REMARK    3  A    between atoms: O_7  and  C_8
REMARK                            x       y       z     vdW  Elec       q    Type
REMARK                         _______ _______ _______ _____ _____    ______ ____
ROOT
ATOM      1  C   UNL     1       3.431   5.213  18.278  0.00  0.00    +0.000 A 
ATOM      2  N   UNL     1       4.716   5.139  17.881  0.00  0.00    +0.000 NA
ATOM      3  C   UNL     1       5.457   4.213  18.492  0.00  0.00    +0.000 A 
ATOM      4  N   UNL     1       5.042   3.375  19.450  0.00  0.00    +0.000 NA
ATOM      5  C   UNL     1       3.762   3.471  19.828  0.00  0.00    +0.000 A 
ATOM      6  C   UNL     1       3.295   2.619  20.820  0.00  0.00    +0.000 A 
ATOM      7  C   UNL     1       1.970   2.658  21.263  0.00  0.00    +0.000 A 
ATOM      8  C   UNL     1       1.081   3.567  20.703  0.00  0.00    +0.000 A 
ATOM      9  C   UNL     1       1.526   4.436  19.707  0.00  0.00    +0.000 A 
ATOM     10  C   UNL     1       2.871   4.393  19.265  0.00  0.00    +0.000 A 
ENDROOT
BRANCH   1  11
ATOM     11  O   UNL     1       2.614   6.157  17.675  0.00  0.00    +0.000 OA
BRANCH  11  12
ATOM     12  C   UNL     1       3.148   7.481  17.771  0.00  0.00    +0.000 C 
BRANCH  12  17
ATOM     13 BR   UNL     1      -0.668  11.217  20.926  0.00  0.00    +0.000 Br
ATOM     14  C   UNL     1       0.483  10.069  19.961  0.00  0.00    +0.000 A 
ATOM     15  C   UNL     1       0.988   8.921  20.570  0.00  0.00    +0.000 A 
ATOM     16  C   UNL     1       1.839   8.075  19.856  0.00  0.00    +0.000 A 
ATOM     17  C   UNL     1       2.190   8.371  18.531  0.00  0.00    +0.000 A 
ATOM     18  C   UNL     1       1.676   9.532  17.934  0.00  0.00    +0.000 A 
ATOM     19  C   UNL     1       0.825  10.380  18.647  0.00  0.00    +0.000 A 
ENDBRANCH  12  17
ENDBRANCH  11  12
ENDBRANCH   1  11
TORSDOF 3
ENDMDL
MODEL 6
REMARK VINA RESULT:      -6.9      2.469      5.221
REMARK  Name = 
REMARK  3 active torsions:
REMARK  status: ('A' for Active; 'I' for Inactive)
REMARK    1  A    between atoms: C_5  and  C_6
REMARK    2  A    between atoms: C_6  and  O_7
REMARK    3  A    between atoms: O_7  and  C_8
REMARK                            x       y       z     vdW  Elec       q    Type
REMARK                         _______ _______ _______ _____ _____    ______ ____
ROOT
ATOM      1  C   UNL     1       5.097   4.066  16.893  0.00  0.00    +0.000 A 
ATOM      2  N   UNL     1       4.890   4.087  15.562  0.00  0.00    +0.000 NA
ATOM      3  C   UNL     1       5.633   4.955  14.875  0.00  0.00    +0.000 A 
ATOM      4  N   UNL     1       6.542   5.796  15.387  0.00  0.00    +0.000 NA
ATOM      5  C   UNL     1       6.726   5.757  16.712  0.00  0.00    +0.000 A 
ATOM      6  C   UNL     1       7.659   6.614  17.280  0.00  0.00    +0.000 A 
ATOM      7  C   UNL     1       7.908   6.627  18.655  0.00  0.00    +0.000 A 
ATOM      8  C   UNL     1       7.214   5.762  19.491  0.00  0.00    +0.000 A 
ATOM      9  C   UNL     1       6.269   4.893  18.946  0.00  0.00    +0.000 A 
ATOM     10  C   UNL     1       6.019   4.888  17.552  0.00  0.00    +0.000 A 
ENDROOT
BRANCH   1  11
ATOM     11  O   UNL     1       4.352   3.180  17.657  0.00  0.00    +0.000 OA
BRANCH  11  12
ATOM     12  C   UNL     1       2.945   3.411  17.542  0.00  0.00    +0.000 C 
BRANCH  12  17
ATOM     13 BR   UNL     1       1.424   8.202  21.175  0.00  0.00    +0.000 Br
ATOM     14  C   UNL     1       1.873   6.739  20.065  0.00  0.00    +0.000 A 
ATOM     15  C   UNL     1       1.814   5.441  20.571  0.00  0.00    +0.000 A 
ATOM     16  C   UNL     1       2.146   4.362  19.748  0.00  0.00    +0.000 A 
ATOM     17  C   UNL     1       2.539   4.574  18.420  0.00  0.00    +0.000 A 
ATOM     18  C   UNL     1       2.597   5.887  17.928  0.00  0.00    +0.000 A 
ATOM     19  C   UNL     1       2.264   6.967  18.748  0.00  0.00    +0.000 A 
ENDBRANCH  12  17
ENDBRANCH  11  12
ENDBRANCH   1  11
TORSDOF 3
ENDMDL
MODEL 7
REMARK VINA RESULT:      -6.9      2.505      5.124
REMARK  Name = 
REMARK  3 active torsions:
REMARK  status: ('A' for Active; 'I' for Inactive)
REMARK    1  A    between atoms: C_5  and  C_6
REMARK    2  A    between atoms: C_6  and  O_7
REMARK    3  A    between atoms: O_7  and  C_8
REMARK                            x       y       z     vdW  Elec       q    Type
REMARK                         _______ _______ _______ _____ _____    ______ ____
ROOT
ATOM      1  C   UNL     1       5.026   4.081  16.753  0.00  0.00    +0.000 A 
ATOM      2  N   UNL     1       4.891   4.117  15.414  0.00  0.00    +0.000 NA
ATOM      3  C   UNL     1       5.708   4.955  14.773  0.00  0.00    +0.000 A 
ATOM      4  N   UNL     1       6.625   5.752  15.338  0.00  0.00    +0.000 NA
ATOM      5  C   UNL     1       6.736   5.698  16.671  0.00  0.00    +0.000 A 
ATOM      6  C   UNL     1       7.675   6.510  17.293  0.00  0.00    +0.000 A 
ATOM      7  C   UNL     1       7.851   6.506  18.680  0.00  0.00    +0.000 A 
ATOM      8  C   UNL     1       7.075   5.669  19.472  0.00  0.00    +0.000 A 
ATOM      9  C   UNL     1       6.123   4.846  18.872  0.00  0.00    +0.000 A 
ATOM     10  C   UNL     1       5.947   4.858  17.466  0.00  0.00    +0.000 A 
ENDROOT
BRANCH   1  11
ATOM     11  O   UNL     1       4.203   3.226  17.471  0.00  0.00    +0.000 OA
BRANCH  11  12
ATOM     12  C   UNL     1       2.822   3.593  17.378  0.00  0.00    +0.000 C 
BRANCH  12  17
ATOM     13 BR   UNL     1       1.454   8.223  21.271  0.00  0.00    +0.000 Br
ATOM     14  C   UNL     1       1.886   6.814  20.087  0.00  0.00    +0.000 A 
ATOM     15  C   UNL     1       2.253   7.100  18.773  0.00  0.00    +0.000 A 
ATOM     16  C   UNL     1       2.572   6.058  17.900  0.00  0.00    +0.000 A 
ATOM     17  C   UNL     1       2.524   4.726  18.334  0.00  0.00    +0.000 A 
ATOM     18  C   UNL     1       2.149   4.455  19.659  0.00  0.00    +0.000 A 
ATOM     19  C   UNL     1       1.830   5.496  20.534  0.00  0.00    +0.000 A 
ENDBRANCH  12  17
ENDBRANCH  11  12
ENDBRANCH   1  11
TORSDOF 3
ENDMDL
MODEL 8
REMARK VINA RESULT:      -6.9      3.601      5.891
REMARK  Name = 
REMARK  3 active torsions:
REMARK  status: ('A' for Active; 'I' for Inactive)
REMARK    1  A    between atoms: C_5  and  C_6
REMARK    2  A    between atoms: C_6  and  O_7
REMARK    3  A    between atoms: O_7  and  C_8
REMARK                            x       y       z     vdW  Elec       q    Type
REMARK                         _______ _______ _______ _____ _____    ______ ____
ROOT
ATOM      1  C   UNL     1       3.165   5.790  18.697  0.00  0.00    +0.000 A 
ATOM      2  N   UNL     1       4.145   6.011  17.801  0.00  0.00    +0.000 NA
ATOM      3  C   UNL     1       4.432   4.989  16.994  0.00  0.00    +0.000 A 
ATOM      4  N   UNL     1       3.846   3.784  17.005  0.00  0.00    +0.000 NA
ATOM      5  C   UNL     1       2.877   3.590  17.908  0.00  0.00    +0.000 A 
ATOM      6  C   UNL     1       2.246   2.354  17.951  0.00  0.00    +0.000 A 
ATOM      7  C   UNL     1       1.224   2.079  18.863  0.00  0.00    +0.000 A 
ATOM      8  C   UNL     1       0.812   3.060  19.757  0.00  0.00    +0.000 A 
ATOM      9  C   UNL     1       1.432   4.309  19.736  0.00  0.00    +0.000 A 
ATOM     10  C   UNL     1       2.471   4.580  18.811  0.00  0.00    +0.000 A 
ENDROOT
BRANCH   1  11
ATOM     11  O   UNL     1       2.824   6.820  19.561  0.00  0.00    +0.000 OA
BRANCH  11  12
ATOM     12  C   UNL     1       2.191   7.911  18.886  0.00  0.00    +0.000 C 
BRANCH  12  17
ATOM     13 BR   UNL     1      -1.240  11.170  22.894  0.00  0.00    +0.000 Br
ATOM     14  C   UNL     1      -0.183  10.186  21.674  0.00  0.00    +0.000 A 
ATOM     15  C   UNL     1      -0.085  10.604  20.348  0.00  0.00    +0.000 A 
ATOM     16  C   UNL     1       0.697   9.875  19.448  0.00  0.00    +0.000 A 
ATOM     17  C   UNL     1       1.382   8.728  19.868  0.00  0.00    +0.000 A 
ATOM     18  C   UNL     1       1.270   8.319  21.206  0.00  0.00    +0.000 A 
ATOM     19  C   UNL     1       0.490   9.047  22.108  0.00  0.00    +0.000 A 
ENDBRANCH  12  17
ENDBRANCH  11  12
ENDBRANCH   1  11
TORSDOF 3
ENDMDL
MODEL 9
REMARK VINA RESULT:      -6.9      3.515      5.885
REMARK  Name = 
REMARK  3 active torsions:
REMARK  status: ('A' for Active; 'I' for Inactive)
REMARK    1  A    between atoms: C_5  and  C_6
REMARK    2  A    between atoms: C_6  and  O_7
REMARK    3  A    between atoms: O_7  and  C_8
REMARK                            x       y       z     vdW  Elec       q    Type
REMARK                         _______ _______ _______ _____ _____    ______ ____
ROOT
ATOM      1  C   UNL     1       3.289   5.793  18.523  0.00  0.00    +0.000 A 
ATOM      2  N   UNL     1       4.242   5.946  17.584  0.00  0.00    +0.000 NA
ATOM      3  C   UNL     1       4.463   4.886  16.807  0.00  0.00    +0.000 A 
ATOM      4  N   UNL     1       3.837   3.704  16.885  0.00  0.00    +0.000 NA
ATOM      5  C   UNL     1       2.897   3.578  17.828  0.00  0.00    +0.000 A 
ATOM      6  C   UNL     1       2.225   2.367  17.941  0.00  0.00    +0.000 A 
ATOM      7  C   UNL     1       1.229   2.162  18.899  0.00  0.00    +0.000 A 
ATOM      8  C   UNL     1       0.884   3.190  19.769  0.00  0.00    +0.000 A 
ATOM      9  C   UNL     1       1.546   4.414  19.678  0.00  0.00    +0.000 A 
ATOM     10  C   UNL     1       2.558   4.614  18.707  0.00  0.00    +0.000 A 
ENDROOT
BRANCH   1  11
ATOM     11  O   UNL     1       3.015   6.866  19.358  0.00  0.00    +0.000 OA
BRANCH  11  12
ATOM     12  C   UNL     1       2.269   7.894  18.699  0.00  0.00    +0.000 C 
BRANCH  12  17
ATOM     13 BR   UNL     1      -1.087  11.050  22.852  0.00  0.00    +0.000 Br
ATOM     14  C   UNL     1      -0.076  10.079  21.583  0.00  0.00    +0.000 A 
ATOM     15  C   UNL     1       0.538   8.883  21.954  0.00  0.00    +0.000 A 
ATOM     16  C   UNL     1       1.285   8.168  21.016  0.00  0.00    +0.000 A 
ATOM     17  C   UNL     1       1.423   8.643  19.704  0.00  0.00    +0.000 A 
ATOM     18  C   UNL     1       0.802   9.850  19.348  0.00  0.00    +0.000 A 
ATOM     19  C   UNL     1       0.054  10.567  20.286  0.00  0.00    +0.000 A 
ENDBRANCH  12  17
ENDBRANCH  11  12
ENDBRANCH   1  11
TORSDOF 3
ENDMDL
