MODEL 1
REMARK VINA RESULT:      -5.9      0.000      0.000
REMARK  Name = 
REMARK  9 active torsions:
REMARK  status: ('A' for Active; 'I' for Inactive)
REMARK    1  A    between atoms: C_2  and  C_3
REMARK    2  A    between atoms: C_3  and  C_4
REMARK    3  A    between atoms: C_4  and  C_5
REMARK    4  A    between atoms: C_5  and  C_6
REMARK    5  A    between atoms: C_6  and  C_7
REMARK    6  A    between atoms: C_7  and  C_8
REMARK    7  A    between atoms: C_8  and  O_9
REMARK    8  A    between atoms: O_9  and  C_10
REMARK    9  A    between atoms: C_10  and  C_11
REMARK                            x       y       z     vdW  Elec       q    Type
REMARK                         _______ _______ _______ _____ _____    ______ ____
ROOT
ATOM      1  C   UNL     1       6.822   3.820  15.663  0.00  0.00    +0.000 C 
ENDROOT
BRANCH   1   2
ATOM      2  C   UNL     1       6.755   4.673  14.404  0.00  0.00    +0.000 C 
BRANCH   2   3
ATOM      3  C   UNL     1       5.723   4.112  13.430  0.00  0.00    +0.000 C 
BRANCH   3   4
ATOM      4  C   UNL     1       6.386   3.491  12.203  0.00  0.00    +0.000 C 
BRANCH   4   5
ATOM      5  C   UNL     1       5.360   2.744  11.349  0.00  0.00    +0.000 C 
BRANCH   5   6
ATOM      6  C   UNL     1       3.951   3.291  11.578  0.00  0.00    +0.000 C 
BRANCH   6   8
ATOM      7  C   UNL     1       2.946   4.248   9.491  0.00  0.00    +0.000 C 
ATOM      8  C   UNL     1       3.130   3.217  10.324  0.00  0.00    +0.000 C 
ENDBRANCH   6   8
ENDBRANCH   5   6
ENDBRANCH   4   5
ENDBRANCH   3   4
ENDBRANCH   2   3
ENDBRANCH   1   2
BRANCH   1   9
ATOM      9  O   UNL     1       7.868   4.312  16.497  0.00  0.00    +0.000 OA
BRANCH   9  10
ATOM     10  C   UNL     1       7.346   4.795  17.737  0.00  0.00    +0.000 C 
BRANCH  10  11
ATOM     11  C   UNL     1       5.851   4.481  17.826  0.00  0.00    +0.000 C 
ATOM     12  C   UNL     1       4.990   5.723  18.003  0.00  0.00    +0.000 C 
ATOM     13  C   UNL     1       3.685   5.146  18.516  0.00  0.00    +0.000 C 
ATOM     14  C   UNL     1       4.093   3.895  19.282  0.00  0.00    +0.000 C 
ATOM     15  N   UNL     1       5.516   3.679  19.010  0.00  0.00    +0.000 NA
ATOM     16  H   UNL     1       5.706   2.694  18.842  0.00  0.00    +0.000 HD
ENDBRANCH  10  11
ENDBRANCH   9  10
ENDBRANCH   1   9
TORSDOF 9
ENDMDL
MODEL 2
REMARK VINA RESULT:      -5.8      1.595      2.380
REMARK  Name = 
REMARK  9 active torsions:
REMARK  status: ('A' for Active; 'I' for Inactive)
REMARK    1  A    between atoms: C_2  and  C_3
REMARK    2  A    between atoms: C_3  and  C_4
REMARK    3  A    between atoms: C_4  and  C_5
REMARK    4  A    between atoms: C_5  and  C_6
REMARK    5  A    between atoms: C_6  and  C_7
REMARK    6  A    between atoms: C_7  and  C_8
REMARK    7  A    between atoms: C_8  and  O_9
REMARK    8  A    between atoms: O_9  and  C_10
REMARK    9  A    between atoms: C_10  and  C_11
REMARK                            x       y       z     vdW  Elec       q    Type
REMARK                         _______ _______ _______ _____ _____    ______ ____
ROOT
ATOM      1  C   UNL     1       6.536   5.900  17.623  0.00  0.00    +0.000 C 
ENDROOT
BRANCH   1   2
ATOM      2  C   UNL     1       6.886   5.360  16.244  0.00  0.00    +0.000 C 
BRANCH   2   3
ATOM      3  C   UNL     1       5.705   5.513  15.291  0.00  0.00    +0.000 C 
BRANCH   3   4
ATOM      4  C   UNL     1       5.475   4.246  14.471  0.00  0.00    +0.000 C 
BRANCH   4   5
ATOM      5  C   UNL     1       6.607   4.038  13.463  0.00  0.00    +0.000 C 
BRANCH   5   6
ATOM      6  C   UNL     1       6.102   3.323  12.209  0.00  0.00    +0.000 C 
BRANCH   6   8
ATOM      7  C   UNL     1       3.921   3.194  10.979  0.00  0.00    +0.000 C 
ATOM      8  C   UNL     1       4.606   3.388  12.113  0.00  0.00    +0.000 C 
ENDBRANCH   6   8
ENDBRANCH   5   6
ENDBRANCH   4   5
ENDBRANCH   3   4
ENDBRANCH   2   3
ENDBRANCH   1   2
BRANCH   1   9
ATOM      9  O   UNL     1       6.643   4.843  18.573  0.00  0.00    +0.000 OA
BRANCH   9  10
ATOM     10  C   UNL     1       5.376   4.572  19.178  0.00  0.00    +0.000 C 
BRANCH  10  11
ATOM     11  C   UNL     1       4.602   3.565  18.325  0.00  0.00    +0.000 C 
ATOM     12  C   UNL     1       3.218   4.058  17.928  0.00  0.00    +0.000 C 
ATOM     13  C   UNL     1       2.515   2.776  17.527  0.00  0.00    +0.000 C 
ATOM     14  C   UNL     1       3.163   1.698  18.386  0.00  0.00    +0.000 C 
ATOM     15  N   UNL     1       4.309   2.322  19.052  0.00  0.00    +0.000 NA
ATOM     16  H   UNL     1       5.115   1.701  19.040  0.00  0.00    +0.000 HD
ENDBRANCH  10  11
ENDBRANCH   9  10
ENDBRANCH   1   9
TORSDOF 9
ENDMDL
MODEL 3
REMARK VINA RESULT:      -5.7      1.450      1.857
REMARK  Name = 
REMARK  9 active torsions:
REMARK  status: ('A' for Active; 'I' for Inactive)
REMARK    1  A    between atoms: C_2  and  C_3
REMARK    2  A    between atoms: C_3  and  C_4
REMARK    3  A    between atoms: C_4  and  C_5
REMARK    4  A    between atoms: C_5  and  C_6
REMARK    5  A    between atoms: C_6  and  C_7
REMARK    6  A    between atoms: C_7  and  C_8
REMARK    7  A    between atoms: C_8  and  O_9
REMARK    8  A    between atoms: O_9  and  C_10
REMARK    9  A    between atoms: C_10  and  C_11
REMARK                            x       y       z     vdW  Elec       q    Type
REMARK                         _______ _______ _______ _____ _____    ______ ____
ROOT
ATOM      1  C   UNL     1       6.126   5.148  16.138  0.00  0.00    +0.000 C 
ENDROOT
BRANCH   1   2
ATOM      2  C   UNL     1       6.110   5.202  14.617  0.00  0.00    +0.000 C 
BRANCH   2   3
ATOM      3  C   UNL     1       5.886   3.811  14.032  0.00  0.00    +0.000 C 
BRANCH   3   4
ATOM      4  C   UNL     1       6.498   3.680  12.641  0.00  0.00    +0.000 C 
BRANCH   4   5
ATOM      5  C   UNL     1       5.568   2.902  11.707  0.00  0.00    +0.000 C 
BRANCH   5   6
ATOM      6  C   UNL     1       4.126   3.398  11.829  0.00  0.00    +0.000 C 
BRANCH   6   8
ATOM      7  C   UNL     1       3.089   4.109   9.661  0.00  0.00    +0.000 C 
ATOM      8  C   UNL     1       3.361   3.157  10.560  0.00  0.00    +0.000 C 
ENDBRANCH   6   8
ENDBRANCH   5   6
ENDBRANCH   4   5
ENDBRANCH   3   4
ENDBRANCH   2   3
ENDBRANCH   1   2
BRANCH   1   9
ATOM      9  O   UNL     1       4.878   5.630  16.629  0.00  0.00    +0.000 OA
BRANCH   9  10
ATOM     10  C   UNL     1       4.657   5.194  17.973  0.00  0.00    +0.000 C 
BRANCH  10  11
ATOM     11  C   UNL     1       4.452   3.679  17.998  0.00  0.00    +0.000 C 
ATOM     12  C   UNL     1       2.985   3.277  18.054  0.00  0.00    +0.000 C 
ATOM     13  C   UNL     1       3.057   1.838  18.527  0.00  0.00    +0.000 C 
ATOM     14  C   UNL     1       4.313   1.779  19.387  0.00  0.00    +0.000 C 
ATOM     15  N   UNL     1       5.007   3.056  19.207  0.00  0.00    +0.000 NA
ATOM     16  H   UNL     1       6.010   2.912  19.108  0.00  0.00    +0.000 HD
ENDBRANCH  10  11
ENDBRANCH   9  10
ENDBRANCH   1   9
TORSDOF 9
ENDMDL
MODEL 4
REMARK VINA RESULT:      -5.6      3.837      6.477
REMARK  Name = 
REMARK  9 active torsions:
REMARK  status: ('A' for Active; 'I' for Inactive)
REMARK    1  A    between atoms: C_2  and  C_3
REMARK    2  A    between atoms: C_3  and  C_4
REMARK    3  A    between atoms: C_4  and  C_5
REMARK    4  A    between atoms: C_5  and  C_6
REMARK    5  A    between atoms: C_6  and  C_7
REMARK    6  A    between atoms: C_7  and  C_8
REMARK    7  A    between atoms: C_8  and  O_9
REMARK    8  A    between atoms: O_9  and  C_10
REMARK    9  A    between atoms: C_10  and  C_11
REMARK                            x       y       z     vdW  Elec       q    Type
REMARK                         _______ _______ _______ _____ _____    ______ ____
ROOT
ATOM      1  C   UNL     1       3.934   3.134  17.928  0.00  0.00    +0.000 C 
ENDROOT
BRANCH   1   2
ATOM      2  C   UNL     1       2.753   2.189  17.759  0.00  0.00    +0.000 C 
BRANCH   2   3
ATOM      3  C   UNL     1       1.473   2.830  18.286  0.00  0.00    +0.000 C 
BRANCH   3   4
ATOM      4  C   UNL     1       1.370   2.717  19.804  0.00  0.00    +0.000 C 
BRANCH   4   5
ATOM      5  C   UNL     1       0.958   4.053  20.423  0.00  0.00    +0.000 C 
BRANCH   5   6
ATOM      6  C   UNL     1       2.182   4.910  20.748  0.00  0.00    +0.000 C 
BRANCH   6   8
ATOM      7  C   UNL     1       2.914   6.500  18.953  0.00  0.00    +0.000 C 
ATOM      8  C   UNL     1       2.141   6.215  20.008  0.00  0.00    +0.000 C 
ENDBRANCH   6   8
ENDBRANCH   5   6
ENDBRANCH   4   5
ENDBRANCH   3   4
ENDBRANCH   2   3
ENDBRANCH   1   2
BRANCH   1   9
ATOM      9  O   UNL     1       4.197   3.771  16.680  0.00  0.00    +0.000 OA
BRANCH   9  10
ATOM     10  C   UNL     1       5.599   3.984  16.502  0.00  0.00    +0.000 C 
BRANCH  10  11
ATOM     11  C   UNL     1       6.105   4.988  17.540  0.00  0.00    +0.000 C 
ATOM     12  C   UNL     1       6.700   6.242  16.916  0.00  0.00    +0.000 C 
ATOM     13  C   UNL     1       7.512   6.823  18.058  0.00  0.00    +0.000 C 
ATOM     14  C   UNL     1       7.945   5.613  18.874  0.00  0.00    +0.000 C 
ATOM     15  N   UNL     1       7.220   4.459  18.336  0.00  0.00    +0.000 NA
ATOM     16  H   UNL     1       6.875   3.867  19.088  0.00  0.00    +0.000 HD
ENDBRANCH  10  11
ENDBRANCH   9  10
ENDBRANCH   1   9
TORSDOF 9
ENDMDL
MODEL 5
REMARK VINA RESULT:      -5.6      4.111      6.754
REMARK  Name = 
REMARK  9 active torsions:
REMARK  status: ('A' for Active; 'I' for Inactive)
REMARK    1  A    between atoms: C_2  and  C_3
REMARK    2  A    between atoms: C_3  and  C_4
REMARK    3  A    between atoms: C_4  and  C_5
REMARK    4  A    between atoms: C_5  and  C_6
REMARK    5  A    between atoms: C_6  and  C_7
REMARK    6  A    between atoms: C_7  and  C_8
REMARK    7  A    between atoms: C_8  and  O_9
REMARK    8  A    between atoms: O_9  and  C_10
REMARK    9  A    between atoms: C_10  and  C_11
REMARK                            x       y       z     vdW  Elec       q    Type
REMARK                         _______ _______ _______ _____ _____    ______ ____
ROOT
ATOM      1  C   UNL     1       4.019   3.209  18.075  0.00  0.00    +0.000 C 
ENDROOT
BRANCH   1   2
ATOM      2  C   UNL     1       2.581   3.202  17.578  0.00  0.00    +0.000 C 
BRANCH   2   3
ATOM      3  C   UNL     1       1.742   2.206  18.373  0.00  0.00    +0.000 C 
BRANCH   3   4
ATOM      4  C   UNL     1       0.880   2.904  19.421  0.00  0.00    +0.000 C 
BRANCH   4   5
ATOM      5  C   UNL     1       1.474   2.731  20.819  0.00  0.00    +0.000 C 
BRANCH   5   6
ATOM      6  C   UNL     1       2.159   4.015  21.289  0.00  0.00    +0.000 C 
BRANCH   6   8
ATOM      7  C   UNL     1       2.341   6.118  19.937  0.00  0.00    +0.000 C 
ATOM      8  C   UNL     1       1.596   5.217  20.590  0.00  0.00    +0.000 C 
ENDBRANCH   6   8
ENDBRANCH   5   6
ENDBRANCH   4   5
ENDBRANCH   3   4
ENDBRANCH   2   3
ENDBRANCH   1   2
BRANCH   1   9
ATOM      9  O   UNL     1       4.607   4.470  17.766  0.00  0.00    +0.000 OA
BRANCH   9  10
ATOM     10  C   UNL     1       5.607   4.331  16.752  0.00  0.00    +0.000 C 
BRANCH  10  11
ATOM     11  C   UNL     1       6.820   5.195  17.103  0.00  0.00    +0.000 C 
ATOM     12  C   UNL     1       7.016   5.368  18.601  0.00  0.00    +0.000 C 
ATOM     13  C   UNL     1       7.930   6.576  18.676  0.00  0.00    +0.000 C 
ATOM     14  C   UNL     1       7.575   7.401  17.446  0.00  0.00    +0.000 C 
ATOM     15  N   UNL     1       6.679   6.578  16.630  0.00  0.00    +0.000 NA
ATOM     16  H   UNL     1       6.923   6.647  15.644  0.00  0.00    +0.000 HD
ENDBRANCH  10  11
ENDBRANCH   9  10
ENDBRANCH   1   9
TORSDOF 9
ENDMDL
MODEL 6
REMARK VINA RESULT:      -5.5      3.144      6.213
REMARK  Name = 
REMARK  9 active torsions:
REMARK  status: ('A' for Active; 'I' for Inactive)
REMARK    1  A    between atoms: C_2  and  C_3
REMARK    2  A    between atoms: C_3  and  C_4
REMARK    3  A    between atoms: C_4  and  C_5
REMARK    4  A    between atoms: C_5  and  C_6
REMARK    5  A    between atoms: C_6  and  C_7
REMARK    6  A    between atoms: C_7  and  C_8
REMARK    7  A    between atoms: C_8  and  O_9
REMARK    8  A    between atoms: O_9  and  C_10
REMARK    9  A    between atoms: C_10  and  C_11
REMARK                            x       y       z     vdW  Elec       q    Type
REMARK                         _______ _______ _______ _____ _____    ______ ____
ROOT
ATOM      1  C   UNL     1       4.952   4.557  19.179  0.00  0.00    +0.000 C 
ENDROOT
BRANCH   1   2
ATOM      2  C   UNL     1       4.482   3.150  18.838  0.00  0.00    +0.000 C 
BRANCH   2   3
ATOM      3  C   UNL     1       3.558   3.171  17.624  0.00  0.00    +0.000 C 
BRANCH   3   4
ATOM      4  C   UNL     1       2.091   3.069  18.032  0.00  0.00    +0.000 C 
BRANCH   4   5
ATOM      5  C   UNL     1       1.924   2.146  19.240  0.00  0.00    +0.000 C 
BRANCH   5   6
ATOM      6  C   UNL     1       1.180   2.853  20.374  0.00  0.00    +0.000 C 
BRANCH   6   8
ATOM      7  C   UNL     1       1.706   5.271  20.771  0.00  0.00    +0.000 C 
ATOM      8  C   UNL     1       1.043   4.322  20.100  0.00  0.00    +0.000 C 
ENDBRANCH   6   8
ENDBRANCH   5   6
ENDBRANCH   4   5
ENDBRANCH   3   4
ENDBRANCH   2   3
ENDBRANCH   1   2
BRANCH   1   9
ATOM      9  O   UNL     1       6.367   4.622  19.018  0.00  0.00    +0.000 OA
BRANCH   9  10
ATOM     10  C   UNL     1       6.757   5.869  18.437  0.00  0.00    +0.000 C 
BRANCH  10  11
ATOM     11  C   UNL     1       6.824   5.732  16.915  0.00  0.00    +0.000 C 
ATOM     12  C   UNL     1       5.470   5.895  16.242  0.00  0.00    +0.000 C 
ATOM     13  C   UNL     1       5.705   5.277  14.877  0.00  0.00    +0.000 C 
ATOM     14  C   UNL     1       6.762   4.208  15.118  0.00  0.00    +0.000 C 
ATOM     15  N   UNL     1       7.239   4.388  16.491  0.00  0.00    +0.000 NA
ATOM     16  H   UNL     1       8.252   4.294  16.537  0.00  0.00    +0.000 HD
ENDBRANCH  10  11
ENDBRANCH   9  10
ENDBRANCH   1   9
TORSDOF 9
ENDMDL
MODEL 7
REMARK VINA RESULT:      -5.5      4.223      6.671
REMARK  Name = 
REMARK  9 active torsions:
REMARK  status: ('A' for Active; 'I' for Inactive)
REMARK    1  A    between atoms: C_2  and  C_3
REMARK    2  A    between atoms: C_3  and  C_4
REMARK    3  A    between atoms: C_4  and  C_5
REMARK    4  A    between atoms: C_5  and  C_6
REMARK    5  A    between atoms: C_6  and  C_7
REMARK    6  A    between atoms: C_7  and  C_8
REMARK    7  A    between atoms: C_8  and  O_9
REMARK    8  A    between atoms: O_9  and  C_10
REMARK    9  A    between atoms: C_10  and  C_11
REMARK                            x       y       z     vdW  Elec       q    Type
REMARK                         _______ _______ _______ _____ _____    ______ ____
ROOT
ATOM      1  C   UNL     1       3.834   4.809  17.574  0.00  0.00    +0.000 C 
ENDROOT
BRANCH   1   2
ATOM      2  C   UNL     1       3.891   5.569  18.892  0.00  0.00    +0.000 C 
BRANCH   2   3
ATOM      3  C   UNL     1       2.489   5.969  19.342  0.00  0.00    +0.000 C 
BRANCH   3   4
ATOM      4  C   UNL     1       2.127   5.338  20.684  0.00  0.00    +0.000 C 
BRANCH   4   5
ATOM      5  C   UNL     1       0.932   4.394  20.536  0.00  0.00    +0.000 C 
BRANCH   5   6
ATOM      6  C   UNL     1       1.303   2.968  20.944  0.00  0.00    +0.000 C 
BRANCH   6   8
ATOM      7  C   UNL     1       1.315   2.223  18.551  0.00  0.00    +0.000 C 
ATOM      8  C   UNL     1       1.847   2.194  19.779  0.00  0.00    +0.000 C 
ENDBRANCH   6   8
ENDBRANCH   5   6
ENDBRANCH   4   5
ENDBRANCH   3   4
ENDBRANCH   2   3
ENDBRANCH   1   2
BRANCH   1   9
ATOM      9  O   UNL     1       4.796   5.363  16.681  0.00  0.00    +0.000 OA
BRANCH   9  10
ATOM     10  C   UNL     1       6.066   4.726  16.841  0.00  0.00    +0.000 C 
BRANCH  10  11
ATOM     11  C   UNL     1       7.148   5.782  17.073  0.00  0.00    +0.000 C 
ATOM     12  C   UNL     1       7.573   5.890  18.530  0.00  0.00    +0.000 C 
ATOM     13  C   UNL     1       8.255   7.244  18.574  0.00  0.00    +0.000 C 
ATOM     14  C   UNL     1       7.545   8.065  17.506  0.00  0.00    +0.000 C 
ATOM     15  N   UNL     1       6.680   7.141  16.768  0.00  0.00    +0.000 NA
ATOM     16  H   UNL     1       6.730   7.321  15.767  0.00  0.00    +0.000 HD
ENDBRANCH  10  11
ENDBRANCH   9  10
ENDBRANCH   1   9
TORSDOF 9
ENDMDL
MODEL 8
REMARK VINA RESULT:      -5.4      1.403      1.629
REMARK  Name = 
REMARK  9 active torsions:
REMARK  status: ('A' for Active; 'I' for Inactive)
REMARK    1  A    between atoms: C_2  and  C_3
REMARK    2  A    between atoms: C_3  and  C_4
REMARK    3  A    between atoms: C_4  and  C_5
REMARK    4  A    between atoms: C_5  and  C_6
REMARK    5  A    between atoms: C_6  and  C_7
REMARK    6  A    between atoms: C_7  and  C_8
REMARK    7  A    between atoms: C_8  and  O_9
REMARK    8  A    between atoms: O_9  and  C_10
REMARK    9  A    between atoms: C_10  and  C_11
REMARK                            x       y       z     vdW  Elec       q    Type
REMARK                         _______ _______ _______ _____ _____    ______ ____
ROOT
ATOM      1  C   UNL     1       5.748   5.301  15.231  0.00  0.00    +0.000 C 
ENDROOT
BRANCH   1   2
ATOM      2  C   UNL     1       6.461   4.283  14.352  0.00  0.00    +0.000 C 
BRANCH   2   3
ATOM      3  C   UNL     1       5.880   4.289  12.942  0.00  0.00    +0.000 C 
BRANCH   3   4
ATOM      4  C   UNL     1       6.310   3.058  12.150  0.00  0.00    +0.000 C 
BRANCH   4   5
ATOM      5  C   UNL     1       5.127   2.459  11.387  0.00  0.00    +0.000 C 
BRANCH   5   6
ATOM      6  C   UNL     1       3.932   3.413  11.389  0.00  0.00    +0.000 C 
BRANCH   6   8
ATOM      7  C   UNL     1       2.808   4.459   9.407  0.00  0.00    +0.000 C 
ATOM      8  C   UNL     1       3.201   3.370  10.079  0.00  0.00    +0.000 C 
ENDBRANCH   6   8
ENDBRANCH   5   6
ENDBRANCH   4   5
ENDBRANCH   3   4
ENDBRANCH   2   3
ENDBRANCH   1   2
BRANCH   1   9
ATOM      9  O   UNL     1       5.751   4.831  16.576  0.00  0.00    +0.000 OA
BRANCH   9  10
ATOM     10  C   UNL     1       4.753   3.824  16.766  0.00  0.00    +0.000 C 
BRANCH  10  11
ATOM     11  C   UNL     1       3.972   4.107  18.051  0.00  0.00    +0.000 C 
ATOM     12  C   UNL     1       2.523   4.491  17.795  0.00  0.00    +0.000 C 
ATOM     13  C   UNL     1       2.122   5.148  19.102  0.00  0.00    +0.000 C 
ATOM     14  C   UNL     1       3.411   5.759  19.635  0.00  0.00    +0.000 C 
ATOM     15  N   UNL     1       4.495   5.270  18.780  0.00  0.00    +0.000 NA
ATOM     16  H   UNL     1       5.305   5.008  19.338  0.00  0.00    +0.000 HD
ENDBRANCH  10  11
ENDBRANCH   9  10
ENDBRANCH   1   9
TORSDOF 9
ENDMDL
MODEL 9
REMARK VINA RESULT:      -5.4      3.891      6.599
REMARK  Name = 
REMARK  9 active torsions:
REMARK  status: ('A' for Active; 'I' for Inactive)
REMARK    1  A    between atoms: C_2  and  C_3
REMARK    2  A    between atoms: C_3  and  C_4
REMARK    3  A    between atoms: C_4  and  C_5
REMARK    4  A    between atoms: C_5  and  C_6
REMARK    5  A    between atoms: C_6  and  C_7
REMARK    6  A    between atoms: C_7  and  C_8
REMARK    7  A    between atoms: C_8  and  O_9
REMARK    8  A    between atoms: O_9  and  C_10
REMARK    9  A    between atoms: C_10  and  C_11
REMARK                            x       y       z     vdW  Elec       q    Type
REMARK                         _______ _______ _______ _____ _____    ______ ____
ROOT
ATOM      1  C   UNL     1       2.894   3.279  17.203  0.00  0.00    +0.000 C 
ENDROOT
BRANCH   1   2
ATOM      2  C   UNL     1       2.360   2.197  18.131  0.00  0.00    +0.000 C 
BRANCH   2   3
ATOM      3  C   UNL     1       0.985   2.583  18.670  0.00  0.00    +0.000 C 
BRANCH   3   4
ATOM      4  C   UNL     1       1.046   2.961  20.147  0.00  0.00    +0.000 C 
BRANCH   4   5
ATOM      5  C   UNL     1       1.112   4.480  20.318  0.00  0.00    +0.000 C 
BRANCH   5   6
ATOM      6  C   UNL     1       2.531   4.934  20.663  0.00  0.00    +0.000 C 
BRANCH   6   8
ATOM      7  C   UNL     1       2.324   6.415  18.651  0.00  0.00    +0.000 C 
ATOM      8  C   UNL     1       2.985   6.036  19.752  0.00  0.00    +0.000 C 
ENDBRANCH   6   8
ENDBRANCH   5   6
ENDBRANCH   4   5
ENDBRANCH   3   4
ENDBRANCH   2   3
ENDBRANCH   1   2
BRANCH   1   9
ATOM      9  O   UNL     1       4.256   3.537  17.533  0.00  0.00    +0.000 OA
BRANCH   9  10
ATOM     10  C   UNL     1       4.947   4.121  16.426  0.00  0.00    +0.000 C 
BRANCH  10  11
ATOM     11  C   UNL     1       6.244   4.771  16.912  0.00  0.00    +0.000 C 
ATOM     12  C   UNL     1       6.301   4.930  18.424  0.00  0.00    +0.000 C 
ATOM     13  C   UNL     1       7.394   5.967  18.604  0.00  0.00    +0.000 C 
ATOM     14  C   UNL     1       7.321   6.823  17.346  0.00  0.00    +0.000 C 
ATOM     15  N   UNL     1       6.393   6.152  16.433  0.00  0.00    +0.000 NA
ATOM     16  H   UNL     1       6.752   6.164  15.480  0.00  0.00    +0.000 HD
ENDBRANCH  10  11
ENDBRANCH   9  10
ENDBRANCH   1   9
TORSDOF 9
ENDMDL
