MODEL 1
REMARK VINA RESULT:      -8.9      0.000      0.000
REMARK  Name = 
REMARK  10 active torsions:
REMARK  status: ('A' for Active; 'I' for Inactive)
REMARK    1  A    between atoms: C_1  and  C_2
REMARK    2  A    between atoms: C_2  and  N_3
REMARK    3  A    between atoms: N_6  and  C_7
REMARK    4  A    between atoms: C_7  and  C_8
REMARK    5  A    between atoms: C_7  and  C_9
REMARK    6  A    between atoms: C_21  and  C_22
REMARK    7  A    between atoms: C_24  and  C_25
REMARK    8  A    between atoms: N_27  and  C_28
REMARK    9  A    between atoms: C_28  and  C_29
REMARK   10  A    between atoms: C_28  and  C_30
REMARK                            x       y       z     vdW  Elec       q    Type
REMARK                         _______ _______ _______ _____ _____    ______ ____
ROOT
ATOM      1  C   UNL     1       1.254   9.029  19.478  0.00  0.00    +0.000 A 
ATOM      2  C   UNL     1       2.174   8.129  18.908  0.00  0.00    +0.000 A 
ATOM      3  C   UNL     1       2.401   6.847  19.456  0.00  0.00    +0.000 A 
ATOM      4  C   UNL     1       1.739   6.500  20.649  0.00  0.00    +0.000 A 
ATOM      5  C   UNL     1       0.848   7.410  21.231  0.00  0.00    +0.000 A 
ATOM      6  C   UNL     1       0.591   8.635  20.637  0.00  0.00    +0.000 A 
ATOM      7  F   UNL     1      -0.311   9.445  21.210  0.00  0.00    +0.000 F 
ATOM      8  O   UNL     1       1.837   5.368  21.402  0.00  0.00    +0.000 OA
ATOM      9  C   UNL     1       2.216   4.097  20.884  0.00  0.00    +0.000 C 
ATOM     10  C   UNL     1       2.046   3.889  19.395  0.00  0.00    +0.000 C 
ATOM     11  N   UNL     1       3.109   4.577  18.694  0.00  0.00    +0.000 N 
ATOM     12  C   UNL     1       4.035   4.015  17.871  0.00  0.00    +0.000 A 
ATOM     13  C   UNL     1       4.648   5.090  17.267  0.00  0.00    +0.000 A 
ATOM     14  N   UNL     1       4.178   6.272  17.794  0.00  0.00    +0.000 NA
ATOM     15  C   UNL     1       3.266   5.942  18.688  0.00  0.00    +0.000 A 
ENDROOT
BRANCH  13  16
ATOM     16  C   UNL     1       5.622   4.967  16.150  0.00  0.00    +0.000 A 
ATOM     17  N   UNL     1       5.333   4.472  14.959  0.00  0.00    +0.000 NA
ATOM     18  C   UNL     1       6.518   4.564  14.279  0.00  0.00    +0.000 A 
ATOM     19  C   UNL     1       6.672   4.114  12.882  0.00  0.00    +0.000 C 
ATOM     20  N   UNL     1       7.522   5.115  14.966  0.00  0.00    +0.000 NA
ATOM     21  N   UNL     1       6.927   5.387  16.151  0.00  0.00    +0.000 N 
BRANCH  21  22
ATOM     22  C   UNL     1       7.647   6.116  17.185  0.00  0.00    +0.000 C 
ATOM     23  C   UNL     1       7.121   7.545  17.289  0.00  0.00    +0.000 C 
ATOM     24  C   UNL     1       7.600   5.411  18.546  0.00  0.00    +0.000 C 
ENDBRANCH  21  22
ENDBRANCH  13  16
BRANCH   1  25
ATOM     25  C   UNL     1       0.980  10.405  18.882  0.00  0.00    +0.000 C 
ATOM     26  C   UNL     1       2.106  10.733  17.884  0.00  0.00    +0.000 C 
BRANCH  25  30
ATOM     27  N   UNL     1      -0.054  14.008  18.512  0.00  0.00    +0.000 NA
ATOM     28  C   UNL     1       1.332  13.497  18.484  0.00  0.00    +0.000 C 
ATOM     29  C   UNL     1       1.714  12.617  19.702  0.00  0.00    +0.000 C 
ATOM     30  N   UNL     1       0.819  11.453  19.925  0.00  0.00    +0.000 NA
ATOM     31  C   UNL     1      -0.569  11.987  19.979  0.00  0.00    +0.000 C 
ATOM     32  C   UNL     1      -0.971  12.871  18.770  0.00  0.00    +0.000 C 
BRANCH  27  34
ATOM     33  C   UNL     1       0.268  16.434  19.094  0.00  0.00    +0.000 C 
ATOM     34  C   UNL     1      -0.273  15.070  19.508  0.00  0.00    +0.000 C 
ENDBRANCH  27  34
ENDBRANCH  25  30
ENDBRANCH   1  25
TORSDOF 5
ENDMDL
MODEL 2
REMARK VINA RESULT:      -8.1      0.905      1.108
REMARK  Name = 
REMARK  10 active torsions:
REMARK  status: ('A' for Active; 'I' for Inactive)
REMARK    1  A    between atoms: C_1  and  C_2
REMARK    2  A    between atoms: C_2  and  N_3
REMARK    3  A    between atoms: N_6  and  C_7
REMARK    4  A    between atoms: C_7  and  C_8
REMARK    5  A    between atoms: C_7  and  C_9
REMARK    6  A    between atoms: C_21  and  C_22
REMARK    7  A    between atoms: C_24  and  C_25
REMARK    8  A    between atoms: N_27  and  C_28
REMARK    9  A    between atoms: C_28  and  C_29
REMARK   10  A    between atoms: C_28  and  C_30
REMARK                            x       y       z     vdW  Elec       q    Type
REMARK                         _______ _______ _______ _____ _____    ______ ____
ROOT
ATOM      1  C   UNL     1       1.005   9.686  19.622  0.00  0.00    +0.000 A 
ATOM      2  C   UNL     1       1.930   8.756  19.111  0.00  0.00    +0.000 A 
ATOM      3  C   UNL     1       1.974   7.420  19.566  0.00  0.00    +0.000 A 
ATOM      4  C   UNL     1       1.113   7.039  20.613  0.00  0.00    +0.000 A 
ATOM      5  C   UNL     1       0.215   7.974  21.140  0.00  0.00    +0.000 A 
ATOM      6  C   UNL     1       0.145   9.261  20.630  0.00  0.00    +0.000 A 
ATOM      7  F   UNL     1      -0.770  10.100  21.138  0.00  0.00    +0.000 F 
ATOM      8  O   UNL     1       1.009   5.846  21.265  0.00  0.00    +0.000 OA
ATOM      9  C   UNL     1       1.365   4.592  20.693  0.00  0.00    +0.000 C 
ATOM     10  C   UNL     1       1.409   4.519  19.182  0.00  0.00    +0.000 C 
ATOM     11  N   UNL     1       2.616   5.164  18.710  0.00  0.00    +0.000 N 
ATOM     12  C   UNL     1       3.611   4.589  17.982  0.00  0.00    +0.000 A 
ATOM     13  C   UNL     1       4.389   5.650  17.575  0.00  0.00    +0.000 A 
ATOM     14  N   UNL     1       3.935   6.824  18.134  0.00  0.00    +0.000 NA
ATOM     15  C   UNL     1       2.875   6.506  18.852  0.00  0.00    +0.000 A 
ENDROOT
BRANCH  13  16
ATOM     16  C   UNL     1       5.509   5.531  16.605  0.00  0.00    +0.000 A 
ATOM     17  N   UNL     1       5.410   4.966  15.414  0.00  0.00    +0.000 NA
ATOM     18  C   UNL     1       6.669   5.093  14.893  0.00  0.00    +0.000 A 
ATOM     19  C   UNL     1       7.033   4.588  13.555  0.00  0.00    +0.000 C 
ATOM     20  N   UNL     1       7.542   5.732  15.676  0.00  0.00    +0.000 NA
ATOM     21  N   UNL     1       6.780   6.024  16.756  0.00  0.00    +0.000 N 
BRANCH  21  22
ATOM     22  C   UNL     1       7.317   6.840  17.836  0.00  0.00    +0.000 C 
ATOM     23  C   UNL     1       8.164   5.985  18.775  0.00  0.00    +0.000 C 
ATOM     24  C   UNL     1       8.110   8.048  17.324  0.00  0.00    +0.000 C 
ENDBRANCH  21  22
ENDBRANCH  13  16
BRANCH   1  25
ATOM     25  C   UNL     1       0.930  11.123  19.121  0.00  0.00    +0.000 C 
ATOM     26  C   UNL     1       1.999  11.313  18.030  0.00  0.00    +0.000 C 
BRANCH  25  30
ATOM     27  N   UNL     1       0.660  14.879  19.003  0.00  0.00    +0.000 NA
ATOM     28  C   UNL     1       1.902  14.095  18.849  0.00  0.00    +0.000 C 
ATOM     29  C   UNL     1       2.164  13.080  19.992  0.00  0.00    +0.000 C 
ATOM     30  N   UNL     1       1.058  12.115  20.223  0.00  0.00    +0.000 NA
ATOM     31  C   UNL     1      -0.179  12.921  20.404  0.00  0.00    +0.000 C 
ATOM     32  C   UNL     1      -0.459  13.943  19.271  0.00  0.00    +0.000 C 
BRANCH  27  34
ATOM     33  C   UNL     1       1.843  16.924  19.867  0.00  0.00    +0.000 C 
ATOM     34  C   UNL     1       0.732  15.899  20.062  0.00  0.00    +0.000 C 
ENDBRANCH  27  34
ENDBRANCH  25  30
ENDBRANCH   1  25
TORSDOF 5
ENDMDL
MODEL 3
REMARK VINA RESULT:      -8.1      1.463      2.059
REMARK  Name = 
REMARK  10 active torsions:
REMARK  status: ('A' for Active; 'I' for Inactive)
REMARK    1  A    between atoms: C_1  and  C_2
REMARK    2  A    between atoms: C_2  and  N_3
REMARK    3  A    between atoms: N_6  and  C_7
REMARK    4  A    between atoms: C_7  and  C_8
REMARK    5  A    between atoms: C_7  and  C_9
REMARK    6  A    between atoms: C_21  and  C_22
REMARK    7  A    between atoms: C_24  and  C_25
REMARK    8  A    between atoms: N_27  and  C_28
REMARK    9  A    between atoms: C_28  and  C_29
REMARK   10  A    between atoms: C_28  and  C_30
REMARK                            x       y       z     vdW  Elec       q    Type
REMARK                         _______ _______ _______ _____ _____    ______ ____
ROOT
ATOM      1  C   UNL     1       1.108   8.747  19.643  0.00  0.00    +0.000 A 
ATOM      2  C   UNL     1       2.078   7.923  19.041  0.00  0.00    +0.000 A 
ATOM      3  C   UNL     1       2.429   6.666  19.581  0.00  0.00    +0.000 A 
ATOM      4  C   UNL     1       1.840   6.270  20.798  0.00  0.00    +0.000 A 
ATOM      5  C   UNL     1       0.899   7.106  21.410  0.00  0.00    +0.000 A 
ATOM      6  C   UNL     1       0.521   8.304  20.825  0.00  0.00    +0.000 A 
ATOM      7  F   UNL     1      -0.423   9.039  21.430  0.00  0.00    +0.000 F 
ATOM      8  O   UNL     1       2.057   5.153  21.547  0.00  0.00    +0.000 OA
ATOM      9  C   UNL     1       2.520   3.915  21.017  0.00  0.00    +0.000 C 
ATOM     10  C   UNL     1       2.315   3.689  19.535  0.00  0.00    +0.000 C 
ATOM     11  N   UNL     1       3.293   4.459  18.796  0.00  0.00    +0.000 N 
ATOM     12  C   UNL     1       4.232   3.971  17.941  0.00  0.00    +0.000 A 
ATOM     13  C   UNL     1       4.732   5.090  17.314  0.00  0.00    +0.000 A 
ATOM     14  N   UNL     1       4.187   6.232  17.857  0.00  0.00    +0.000 NA
ATOM     15  C   UNL     1       3.337   5.832  18.784  0.00  0.00    +0.000 A 
ENDROOT
BRANCH  13  16
ATOM     16  C   UNL     1       5.673   5.044  16.164  0.00  0.00    +0.000 A 
ATOM     17  N   UNL     1       5.364   4.577  14.965  0.00  0.00    +0.000 NA
ATOM     18  C   UNL     1       6.521   4.739  14.252  0.00  0.00    +0.000 A 
ATOM     19  C   UNL     1       6.646   4.343  12.836  0.00  0.00    +0.000 C 
ATOM     20  N   UNL     1       7.525   5.308  14.924  0.00  0.00    +0.000 NA
ATOM     21  N   UNL     1       6.960   5.515  16.137  0.00  0.00    +0.000 N 
BRANCH  21  22
ATOM     22  C   UNL     1       7.685   6.238  17.172  0.00  0.00    +0.000 C 
ATOM     23  C   UNL     1       7.185   7.677  17.261  0.00  0.00    +0.000 C 
ATOM     24  C   UNL     1       7.614   5.544  18.537  0.00  0.00    +0.000 C 
ENDBRANCH  21  22
ENDBRANCH  13  16
BRANCH   1  25
ATOM     25  C   UNL     1       0.702  10.093  19.056  0.00  0.00    +0.000 C 
ATOM     26  C   UNL     1       1.739  11.144  19.491  0.00  0.00    +0.000 C 
BRANCH  25  30
ATOM     27  N   UNL     1      -2.067  11.431  16.881  0.00  0.00    +0.000 NA
ATOM     28  C   UNL     1      -1.079  12.242  17.621  0.00  0.00    +0.000 C 
ATOM     29  C   UNL     1      -0.978  11.904  19.132  0.00  0.00    +0.000 C 
ATOM     30  N   UNL     1      -0.687  10.476  19.425  0.00  0.00    +0.000 NA
ATOM     31  C   UNL     1      -1.707   9.676  18.695  0.00  0.00    +0.000 C 
ATOM     32  C   UNL     1      -1.825   9.999  17.183  0.00  0.00    +0.000 C 
BRANCH  27  34
ATOM     33  C   UNL     1      -4.492  10.857  16.538  0.00  0.00    +0.000 C 
ATOM     34  C   UNL     1      -3.465  11.781  17.182  0.00  0.00    +0.000 C 
ENDBRANCH  27  34
ENDBRANCH  25  30
ENDBRANCH   1  25
TORSDOF 5
ENDMDL
MODEL 4
REMARK VINA RESULT:      -7.8      5.830     10.109
REMARK  Name = 
REMARK  10 active torsions:
REMARK  status: ('A' for Active; 'I' for Inactive)
REMARK    1  A    between atoms: C_1  and  C_2
REMARK    2  A    between atoms: C_2  and  N_3
REMARK    3  A    between atoms: N_6  and  C_7
REMARK    4  A    between atoms: C_7  and  C_8
REMARK    5  A    between atoms: C_7  and  C_9
REMARK    6  A    between atoms: C_21  and  C_22
REMARK    7  A    between atoms: C_24  and  C_25
REMARK    8  A    between atoms: N_27  and  C_28
REMARK    9  A    between atoms: C_28  and  C_29
REMARK   10  A    between atoms: C_28  and  C_30
REMARK                            x       y       z     vdW  Elec       q    Type
REMARK                         _______ _______ _______ _____ _____    ______ ____
ROOT
ATOM      1  C   UNL     1       6.267  15.681  20.370  0.00  0.00    +0.000 A 
ATOM      2  C   UNL     1       5.059  14.972  20.514  0.00  0.00    +0.000 A 
ATOM      3  C   UNL     1       3.803  15.592  20.329  0.00  0.00    +0.000 A 
ATOM      4  C   UNL     1       3.769  16.975  20.065  0.00  0.00    +0.000 A 
ATOM      5  C   UNL     1       4.972  17.683  19.952  0.00  0.00    +0.000 A 
ATOM      6  C   UNL     1       6.193  17.039  20.072  0.00  0.00    +0.000 A 
ATOM      7  F   UNL     1       7.312  17.758  19.904  0.00  0.00    +0.000 F 
ATOM      8  O   UNL     1       2.701  17.806  19.914  0.00  0.00    +0.000 OA
ATOM      9  C   UNL     1       1.416  17.382  19.470  0.00  0.00    +0.000 C 
ATOM     10  C   UNL     1       1.358  16.082  18.697  0.00  0.00    +0.000 C 
ATOM     11  N   UNL     1       1.490  14.974  19.620  0.00  0.00    +0.000 N 
ATOM     12  C   UNL     1       0.586  13.978  19.828  0.00  0.00    +0.000 A 
ATOM     13  C   UNL     1       1.268  13.056  20.589  0.00  0.00    +0.000 A 
ATOM     14  N   UNL     1       2.516  13.533  20.923  0.00  0.00    +0.000 NA
ATOM     15  C   UNL     1       2.623  14.718  20.354  0.00  0.00    +0.000 A 
ENDROOT
BRANCH  13  16
ATOM     16  C   UNL     1       0.739  11.708  20.926  0.00  0.00    +0.000 A 
ATOM     17  N   UNL     1       0.395  11.323  22.143  0.00  0.00    +0.000 NA
ATOM     18  C   UNL     1      -0.030  10.035  21.963  0.00  0.00    +0.000 A 
ATOM     19  C   UNL     1      -0.511   9.191  23.075  0.00  0.00    +0.000 C 
ATOM     20  N   UNL     1      -0.001   9.601  20.701  0.00  0.00    +0.000 NA
ATOM     21  N   UNL     1       0.472  10.689  20.048  0.00  0.00    +0.000 N 
BRANCH  21  22
ATOM     22  C   UNL     1       0.555  10.696  18.594  0.00  0.00    +0.000 C 
ATOM     23  C   UNL     1       1.676   9.772  18.125  0.00  0.00    +0.000 C 
ATOM     24  C   UNL     1      -0.776  10.333  17.925  0.00  0.00    +0.000 C 
ENDBRANCH  21  22
ENDBRANCH  13  16
BRANCH   1  25
ATOM     25  C   UNL     1       7.628  15.019  20.543  0.00  0.00    +0.000 C 
ATOM     26  C   UNL     1       8.149  15.342  21.955  0.00  0.00    +0.000 C 
BRANCH  25  30
ATOM     27  N   UNL     1       9.712  12.841  18.283  0.00  0.00    +0.000 NA
ATOM     28  C   UNL     1      10.129  13.377  19.595  0.00  0.00    +0.000 C 
ATOM     29  C   UNL     1       9.963  14.912  19.741  0.00  0.00    +0.000 C 
ATOM     30  N   UNL     1       8.589  15.410  19.477  0.00  0.00    +0.000 NA
ATOM     31  C   UNL     1       8.196  14.886  18.141  0.00  0.00    +0.000 C 
ATOM     32  C   UNL     1       8.354  13.353  17.974  0.00  0.00    +0.000 C 
BRANCH  27  34
ATOM     33  C   UNL     1      12.092  12.808  17.468  0.00  0.00    +0.000 C 
ATOM     34  C   UNL     1      10.638  13.172  17.187  0.00  0.00    +0.000 C 
ENDBRANCH  27  34
ENDBRANCH  25  30
ENDBRANCH   1  25
TORSDOF 5
ENDMDL
MODEL 5
REMARK VINA RESULT:      -7.7      6.897     10.159
REMARK  Name = 
REMARK  10 active torsions:
REMARK  status: ('A' for Active; 'I' for Inactive)
REMARK    1  A    between atoms: C_1  and  C_2
REMARK    2  A    between atoms: C_2  and  N_3
REMARK    3  A    between atoms: N_6  and  C_7
REMARK    4  A    between atoms: C_7  and  C_8
REMARK    5  A    between atoms: C_7  and  C_9
REMARK    6  A    between atoms: C_21  and  C_22
REMARK    7  A    between atoms: C_24  and  C_25
REMARK    8  A    between atoms: N_27  and  C_28
REMARK    9  A    between atoms: C_28  and  C_29
REMARK   10  A    between atoms: C_28  and  C_30
REMARK                            x       y       z     vdW  Elec       q    Type
REMARK                         _______ _______ _______ _____ _____    ______ ____
ROOT
ATOM      1  C   UNL     1      -4.166  15.454  22.911  0.00  0.00    +0.000 A 
ATOM      2  C   UNL     1      -4.174  14.497  21.878  0.00  0.00    +0.000 A 
ATOM      3  C   UNL     1      -5.211  13.546  21.750  0.00  0.00    +0.000 A 
ATOM      4  C   UNL     1      -6.221  13.517  22.732  0.00  0.00    +0.000 A 
ATOM      5  C   UNL     1      -6.192  14.451  23.775  0.00  0.00    +0.000 A 
ATOM      6  C   UNL     1      -5.201  15.417  23.840  0.00  0.00    +0.000 A 
ATOM      7  F   UNL     1      -5.253  16.318  24.832  0.00  0.00    +0.000 F 
ATOM      8  O   UNL     1      -7.277  12.668  22.870  0.00  0.00    +0.000 OA
ATOM      9  C   UNL     1      -7.888  11.973  21.787  0.00  0.00    +0.000 C 
ATOM     10  C   UNL     1      -7.673  12.544  20.403  0.00  0.00    +0.000 C 
ATOM     11  N   UNL     1      -6.335  12.221  19.956  0.00  0.00    +0.000 N 
ATOM     12  C   UNL     1      -5.999  11.498  18.854  0.00  0.00    +0.000 A 
ATOM     13  C   UNL     1      -4.641  11.684  18.728  0.00  0.00    +0.000 A 
ATOM     14  N   UNL     1      -4.152  12.411  19.790  0.00  0.00    +0.000 NA
ATOM     15  C   UNL     1      -5.192  12.701  20.549  0.00  0.00    +0.000 A 
ENDROOT
BRANCH  13  16
ATOM     16  C   UNL     1      -3.847  11.221  17.559  0.00  0.00    +0.000 A 
ATOM     17  N   UNL     1      -4.354  10.967  16.365  0.00  0.00    +0.000 NA
ATOM     18  C   UNL     1      -3.266  10.582  15.630  0.00  0.00    +0.000 A 
ATOM     19  C   UNL     1      -3.360  10.190  14.210  0.00  0.00    +0.000 C 
ATOM     20  N   UNL     1      -2.103  10.609  16.286  0.00  0.00    +0.000 NA
ATOM     21  N   UNL     1      -2.489  11.040  17.510  0.00  0.00    +0.000 N 
BRANCH  21  22
ATOM     22  C   UNL     1      -1.495  11.329  18.535  0.00  0.00    +0.000 C 
ATOM     23  C   UNL     1      -0.431  10.236  18.562  0.00  0.00    +0.000 C 
ATOM     24  C   UNL     1      -0.861  12.714  18.366  0.00  0.00    +0.000 C 
ENDBRANCH  21  22
ENDBRANCH  13  16
BRANCH   1  25
ATOM     25  C   UNL     1      -3.067  16.501  23.044  0.00  0.00    +0.000 C 
ATOM     26  C   UNL     1      -2.978  17.282  21.721  0.00  0.00    +0.000 C 
BRANCH  25  30
ATOM     27  N   UNL     1      -1.148  16.892  26.262  0.00  0.00    +0.000 NA
ATOM     28  C   UNL     1      -0.999  17.733  25.058  0.00  0.00    +0.000 C 
ATOM     29  C   UNL     1      -0.740  16.939  23.751  0.00  0.00    +0.000 C 
ATOM     30  N   UNL     1      -1.764  15.907  23.445  0.00  0.00    +0.000 NA
ATOM     31  C   UNL     1      -1.881  15.051  24.657  0.00  0.00    +0.000 C 
ATOM     32  C   UNL     1      -2.140  15.826  25.975  0.00  0.00    +0.000 C 
BRANCH  27  34
ATOM     33  C   UNL     1       0.858  17.133  27.761  0.00  0.00    +0.000 C 
ATOM     34  C   UNL     1       0.115  16.294  26.727  0.00  0.00    +0.000 C 
ENDBRANCH  27  34
ENDBRANCH  25  30
ENDBRANCH   1  25
TORSDOF 5
ENDMDL
MODEL 6
REMARK VINA RESULT:      -7.5      6.221     11.275
REMARK  Name = 
REMARK  10 active torsions:
REMARK  status: ('A' for Active; 'I' for Inactive)
REMARK    1  A    between atoms: C_1  and  C_2
REMARK    2  A    between atoms: C_2  and  N_3
REMARK    3  A    between atoms: N_6  and  C_7
REMARK    4  A    between atoms: C_7  and  C_8
REMARK    5  A    between atoms: C_7  and  C_9
REMARK    6  A    between atoms: C_21  and  C_22
REMARK    7  A    between atoms: C_24  and  C_25
REMARK    8  A    between atoms: N_27  and  C_28
REMARK    9  A    between atoms: C_28  and  C_29
REMARK   10  A    between atoms: C_28  and  C_30
REMARK                            x       y       z     vdW  Elec       q    Type
REMARK                         _______ _______ _______ _____ _____    ______ ____
ROOT
ATOM      1  C   UNL     1      -1.509  11.126  18.739  0.00  0.00    +0.000 A 
ATOM      2  C   UNL     1      -2.432  11.947  19.414  0.00  0.00    +0.000 A 
ATOM      3  C   UNL     1      -3.814  11.913  19.122  0.00  0.00    +0.000 A 
ATOM      4  C   UNL     1      -4.258  11.085  18.072  0.00  0.00    +0.000 A 
ATOM      5  C   UNL     1      -3.332  10.293  17.383  0.00  0.00    +0.000 A 
ATOM      6  C   UNL     1      -1.991  10.294  17.734  0.00  0.00    +0.000 A 
ATOM      7  F   UNL     1      -1.159   9.476  17.073  0.00  0.00    +0.000 F 
ATOM      8  O   UNL     1      -5.510  10.926  17.559  0.00  0.00    +0.000 OA
ATOM      9  C   UNL     1      -6.708  11.152  18.295  0.00  0.00    +0.000 C 
ATOM     10  C   UNL     1      -6.600  11.105  19.803  0.00  0.00    +0.000 C 
ATOM     11  N   UNL     1      -5.989  12.330  20.274  0.00  0.00    +0.000 N 
ATOM     12  C   UNL     1      -6.539  13.236  21.127  0.00  0.00    +0.000 A 
ATOM     13  C   UNL     1      -5.494  14.069  21.457  0.00  0.00    +0.000 A 
ATOM     14  N   UNL     1      -4.368  13.739  20.737  0.00  0.00    +0.000 NA
ATOM     15  C   UNL     1      -4.695  12.699  19.993  0.00  0.00    +0.000 A 
ENDROOT
BRANCH  13  16
ATOM     16  C   UNL     1      -5.573  15.121  22.505  0.00  0.00    +0.000 A 
ATOM     17  N   UNL     1      -6.443  16.117  22.499  0.00  0.00    +0.000 NA
ATOM     18  C   UNL     1      -6.143  16.810  23.640  0.00  0.00    +0.000 A 
ATOM     19  C   UNL     1      -6.870  18.028  24.047  0.00  0.00    +0.000 C 
ATOM     20  N   UNL     1      -5.157  16.290  24.374  0.00  0.00    +0.000 NA
ATOM     21  N   UNL     1      -4.819  15.200  23.647  0.00  0.00    +0.000 N 
BRANCH  21  22
ATOM     22  C   UNL     1      -3.834  14.254  24.153  0.00  0.00    +0.000 C 
ATOM     23  C   UNL     1      -3.040  14.879  25.296  0.00  0.00    +0.000 C 
ATOM     24  C   UNL     1      -4.462  12.922  24.581  0.00  0.00    +0.000 C 
ENDBRANCH  21  22
ENDBRANCH  13  16
BRANCH   1  25
ATOM     25  C   UNL     1      -0.020  11.135  19.063  0.00  0.00    +0.000 C 
ATOM     26  C   UNL     1       0.357   9.763  19.650  0.00  0.00    +0.000 C 
BRANCH  25  30
ATOM     27  N   UNL     1       1.980  14.233  18.292  0.00  0.00    +0.000 NA
ATOM     28  C   UNL     1       2.523  12.953  18.791  0.00  0.00    +0.000 C 
ATOM     29  C   UNL     1       1.832  12.422  20.074  0.00  0.00    +0.000 C 
ATOM     30  N   UNL     1       0.359  12.261  19.957  0.00  0.00    +0.000 NA
ATOM     31  C   UNL     1      -0.175  13.566  19.481  0.00  0.00    +0.000 C 
ATOM     32  C   UNL     1       0.505  14.116  18.199  0.00  0.00    +0.000 C 
BRANCH  27  34
ATOM     33  C   UNL     1       2.191  16.737  18.415  0.00  0.00    +0.000 C 
ATOM     34  C   UNL     1       2.344  15.394  19.121  0.00  0.00    +0.000 C 
ENDBRANCH  27  34
ENDBRANCH  25  30
ENDBRANCH   1  25
TORSDOF 5
ENDMDL
MODEL 7
REMARK VINA RESULT:      -7.4      3.828      6.779
REMARK  Name = 
REMARK  10 active torsions:
REMARK  status: ('A' for Active; 'I' for Inactive)
REMARK    1  A    between atoms: C_1  and  C_2
REMARK    2  A    between atoms: C_2  and  N_3
REMARK    3  A    between atoms: N_6  and  C_7
REMARK    4  A    between atoms: C_7  and  C_8
REMARK    5  A    between atoms: C_7  and  C_9
REMARK    6  A    between atoms: C_21  and  C_22
REMARK    7  A    between atoms: C_24  and  C_25
REMARK    8  A    between atoms: N_27  and  C_28
REMARK    9  A    between atoms: C_28  and  C_29
REMARK   10  A    between atoms: C_28  and  C_30
REMARK                            x       y       z     vdW  Elec       q    Type
REMARK                         _______ _______ _______ _____ _____    ______ ____
ROOT
ATOM      1  C   UNL     1       1.844  15.263  18.966  0.00  0.00    +0.000 A 
ATOM      2  C   UNL     1       1.810  13.857  18.897  0.00  0.00    +0.000 A 
ATOM      3  C   UNL     1       0.611  13.131  19.076  0.00  0.00    +0.000 A 
ATOM      4  C   UNL     1      -0.561  13.840  19.404  0.00  0.00    +0.000 A 
ATOM      5  C   UNL     1      -0.516  15.235  19.501  0.00  0.00    +0.000 A 
ATOM      6  C   UNL     1       0.658  15.930  19.256  0.00  0.00    +0.000 A 
ATOM      7  F   UNL     1       0.630  17.270  19.313  0.00  0.00    +0.000 F 
ATOM      8  O   UNL     1      -1.810  13.374  19.687  0.00  0.00    +0.000 OA
ATOM      9  C   UNL     1      -2.328  12.138  19.205  0.00  0.00    +0.000 C 
ATOM     10  C   UNL     1      -1.666  11.555  17.975  0.00  0.00    +0.000 C 
ATOM     11  N   UNL     1      -0.398  10.965  18.351  0.00  0.00    +0.000 N 
ATOM     12  C   UNL     1      -0.032   9.664  18.201  0.00  0.00    +0.000 A 
ATOM     13  C   UNL     1       1.319   9.660  18.465  0.00  0.00    +0.000 A 
ATOM     14  N   UNL     1       1.735  10.907  18.870  0.00  0.00    +0.000 NA
ATOM     15  C   UNL     1       0.670  11.685  18.830  0.00  0.00    +0.000 A 
ENDROOT
BRANCH  13  16
ATOM     16  C   UNL     1       2.198   8.478  18.259  0.00  0.00    +0.000 A 
ATOM     17  N   UNL     1       3.145   8.403  17.339  0.00  0.00    +0.000 NA
ATOM     18  C   UNL     1       3.679   7.158  17.531  0.00  0.00    +0.000 A 
ATOM     19  C   UNL     1       4.784   6.628  16.708  0.00  0.00    +0.000 C 
ATOM     20  N   UNL     1       3.142   6.461  18.536  0.00  0.00    +0.000 NA
ATOM     21  N   UNL     1       2.213   7.328  19.004  0.00  0.00    +0.000 N 
BRANCH  21  22
ATOM     22  C   UNL     1       1.452   7.012  20.205  0.00  0.00    +0.000 C 
ATOM     23  C   UNL     1       1.803   5.612  20.700  0.00  0.00    +0.000 C 
ATOM     24  C   UNL     1       1.641   8.053  21.314  0.00  0.00    +0.000 C 
ENDBRANCH  21  22
ENDBRANCH  13  16
BRANCH   1  25
ATOM     25  C   UNL     1       3.125  16.060  18.750  0.00  0.00    +0.000 C 
ATOM     26  C   UNL     1       3.212  16.447  17.263  0.00  0.00    +0.000 C 
BRANCH  25  30
ATOM     27  N   UNL     1       6.158  17.368  20.562  0.00  0.00    +0.000 NA
ATOM     28  C   UNL     1       6.007  17.254  19.097  0.00  0.00    +0.000 C 
ATOM     29  C   UNL     1       5.583  15.846  18.606  0.00  0.00    +0.000 C 
ATOM     30  N   UNL     1       4.333  15.330  19.221  0.00  0.00    +0.000 NA
ATOM     31  C   UNL     1       4.513  15.424  20.695  0.00  0.00    +0.000 C 
ATOM     32  C   UNL     1       4.937  16.826  21.207  0.00  0.00    +0.000 C 
BRANCH  27  34
ATOM     33  C   UNL     1       7.513  16.788  22.601  0.00  0.00    +0.000 C 
ATOM     34  C   UNL     1       7.353  16.687  21.088  0.00  0.00    +0.000 C 
ENDBRANCH  27  34
ENDBRANCH  25  30
ENDBRANCH   1  25
TORSDOF 5
ENDMDL
MODEL 8
REMARK VINA RESULT:      -7.4      1.100      1.690
REMARK  Name = 
REMARK  10 active torsions:
REMARK  status: ('A' for Active; 'I' for Inactive)
REMARK    1  A    between atoms: C_1  and  C_2
REMARK    2  A    between atoms: C_2  and  N_3
REMARK    3  A    between atoms: N_6  and  C_7
REMARK    4  A    between atoms: C_7  and  C_8
REMARK    5  A    between atoms: C_7  and  C_9
REMARK    6  A    between atoms: C_21  and  C_22
REMARK    7  A    between atoms: C_24  and  C_25
REMARK    8  A    between atoms: N_27  and  C_28
REMARK    9  A    between atoms: C_28  and  C_29
REMARK   10  A    between atoms: C_28  and  C_30
REMARK                            x       y       z     vdW  Elec       q    Type
REMARK                         _______ _______ _______ _____ _____    ______ ____
ROOT
ATOM      1  C   UNL     1       1.255   8.116  20.464  0.00  0.00    +0.000 A 
ATOM      2  C   UNL     1       2.159   7.395  19.661  0.00  0.00    +0.000 A 
ATOM      3  C   UNL     1       2.110   5.987  19.561  0.00  0.00    +0.000 A 
ATOM      4  C   UNL     1       1.172   5.291  20.349  0.00  0.00    +0.000 A 
ATOM      5  C   UNL     1       0.294   6.009  21.169  0.00  0.00    +0.000 A 
ATOM      6  C   UNL     1       0.319   7.395  21.199  0.00  0.00    +0.000 A 
ATOM      7  F   UNL     1      -0.580   8.032  21.963  0.00  0.00    +0.000 F 
ATOM      8  O   UNL     1       0.971   3.949  20.481  0.00  0.00    +0.000 OA
ATOM      9  C   UNL     1       1.295   2.992  19.478  0.00  0.00    +0.000 C 
ATOM     10  C   UNL     1       1.420   3.506  18.061  0.00  0.00    +0.000 C 
ATOM     11  N   UNL     1       2.684   4.199  17.916  0.00  0.00    +0.000 N 
ATOM     12  C   UNL     1       3.688   3.883  17.054  0.00  0.00    +0.000 A 
ATOM     13  C   UNL     1       4.540   4.963  17.118  0.00  0.00    +0.000 A 
ATOM     14  N   UNL     1       4.116   5.857  18.075  0.00  0.00    +0.000 NA
ATOM     15  C   UNL     1       3.002   5.360  18.578  0.00  0.00    +0.000 A 
ENDROOT
BRANCH  13  16
ATOM     16  C   UNL     1       5.706   5.151  16.216  0.00  0.00    +0.000 A 
ATOM     17  N   UNL     1       5.766   4.710  14.970  0.00  0.00    +0.000 NA
ATOM     18  C   UNL     1       7.003   5.115  14.547  0.00  0.00    +0.000 A 
ATOM     19  C   UNL     1       7.514   4.831  13.191  0.00  0.00    +0.000 C 
ATOM     20  N   UNL     1       7.708   5.809  15.443  0.00  0.00    +0.000 NA
ATOM     21  N   UNL     1       6.857   5.842  16.496  0.00  0.00    +0.000 N 
BRANCH  21  22
ATOM     22  C   UNL     1       7.185   6.619  17.683  0.00  0.00    +0.000 C 
ATOM     23  C   UNL     1       7.929   5.750  18.693  0.00  0.00    +0.000 C 
ATOM     24  C   UNL     1       7.979   7.889  17.356  0.00  0.00    +0.000 C 
ENDBRANCH  21  22
ENDBRANCH  13  16
BRANCH   1  25
ATOM     25  C   UNL     1       1.282   9.636  20.560  0.00  0.00    +0.000 C 
ATOM     26  C   UNL     1       1.365  10.027  22.047  0.00  0.00    +0.000 C 
BRANCH  25  30
ATOM     27  N   UNL     1       0.746  13.243  19.613  0.00  0.00    +0.000 NA
ATOM     28  C   UNL     1       0.321  12.607  20.877  0.00  0.00    +0.000 C 
ATOM     29  C   UNL     1      -0.523  11.319  20.693  0.00  0.00    +0.000 C 
ATOM     30  N   UNL     1       0.129  10.269  19.867  0.00  0.00    +0.000 NA
ATOM     31  C   UNL     1       0.524  10.918  18.588  0.00  0.00    +0.000 C 
ATOM     32  C   UNL     1       1.368  12.209  18.750  0.00  0.00    +0.000 C 
BRANCH  27  34
ATOM     33  C   UNL     1      -0.160  15.416  18.726  0.00  0.00    +0.000 C 
ATOM     34  C   UNL     1      -0.349  13.912  18.890  0.00  0.00    +0.000 C 
ENDBRANCH  27  34
ENDBRANCH  25  30
ENDBRANCH   1  25
TORSDOF 5
ENDMDL
MODEL 9
REMARK VINA RESULT:      -7.3      5.932     10.213
REMARK  Name = 
REMARK  10 active torsions:
REMARK  status: ('A' for Active; 'I' for Inactive)
REMARK    1  A    between atoms: C_1  and  C_2
REMARK    2  A    between atoms: C_2  and  N_3
REMARK    3  A    between atoms: N_6  and  C_7
REMARK    4  A    between atoms: C_7  and  C_8
REMARK    5  A    between atoms: C_7  and  C_9
REMARK    6  A    between atoms: C_21  and  C_22
REMARK    7  A    between atoms: C_24  and  C_25
REMARK    8  A    between atoms: N_27  and  C_28
REMARK    9  A    between atoms: C_28  and  C_29
REMARK   10  A    between atoms: C_28  and  C_30
REMARK                            x       y       z     vdW  Elec       q    Type
REMARK                         _______ _______ _______ _____ _____    ______ ____
ROOT
ATOM      1  C   UNL     1       6.700  16.070  21.069  0.00  0.00    +0.000 A 
ATOM      2  C   UNL     1       5.561  15.320  20.719  0.00  0.00    +0.000 A 
ATOM      3  C   UNL     1       4.318  15.934  20.446  0.00  0.00    +0.000 A 
ATOM      4  C   UNL     1       4.210  17.329  20.604  0.00  0.00    +0.000 A 
ATOM      5  C   UNL     1       5.337  18.068  20.982  0.00  0.00    +0.000 A 
ATOM      6  C   UNL     1       6.562  17.450  21.179  0.00  0.00    +0.000 A 
ATOM      7  F   UNL     1       7.619  18.214  21.488  0.00  0.00    +0.000 F 
ATOM      8  O   UNL     1       3.122  18.138  20.469  0.00  0.00    +0.000 OA
ATOM      9  C   UNL     1       2.003  17.839  19.640  0.00  0.00    +0.000 C 
ATOM     10  C   UNL     1       2.229  16.842  18.525  0.00  0.00    +0.000 C 
ATOM     11  N   UNL     1       2.271  15.506  19.082  0.00  0.00    +0.000 N 
ATOM     12  C   UNL     1       1.442  14.473  18.775  0.00  0.00    +0.000 A 
ATOM     13  C   UNL     1       2.035  13.377  19.362  0.00  0.00    +0.000 A 
ATOM     14  N   UNL     1       3.135  13.759  20.096  0.00  0.00    +0.000 NA
ATOM     15  C   UNL     1       3.246  15.065  19.944  0.00  0.00    +0.000 A 
ENDROOT
BRANCH  13  16
ATOM     16  C   UNL     1       1.576  11.978  19.155  0.00  0.00    +0.000 A 
ATOM     17  N   UNL     1       2.138  11.124  18.317  0.00  0.00    +0.000 NA
ATOM     18  C   UNL     1       1.393   9.987  18.470  0.00  0.00    +0.000 A 
ATOM     19  C   UNL     1       1.661   8.750  17.712  0.00  0.00    +0.000 C 
ATOM     20  N   UNL     1       0.416  10.070  19.377  0.00  0.00    +0.000 NA
ATOM     21  N   UNL     1       0.561  11.341  19.821  0.00  0.00    +0.000 N 
BRANCH  21  22
ATOM     22  C   UNL     1      -0.248  11.830  20.928  0.00  0.00    +0.000 C 
ATOM     23  C   UNL     1      -1.626  12.256  20.429  0.00  0.00    +0.000 C 
ATOM     24  C   UNL     1      -0.365  10.811  22.068  0.00  0.00    +0.000 C 
ENDBRANCH  21  22
ENDBRANCH  13  16
BRANCH   1  25
ATOM     25  C   UNL     1       8.052  15.422  21.341  0.00  0.00    +0.000 C 
ATOM     26  C   UNL     1       8.386  15.604  22.832  0.00  0.00    +0.000 C 
BRANCH  25  30
ATOM     27  N   UNL     1      10.326  13.560  18.984  0.00  0.00    +0.000 NA
ATOM     28  C   UNL     1      10.614  13.874  20.398  0.00  0.00    +0.000 C 
ATOM     29  C   UNL     1      10.455  15.372  20.766  0.00  0.00    +0.000 C 
ATOM     30  N   UNL     1       9.121  15.945  20.449  0.00  0.00    +0.000 NA
ATOM     31  C   UNL     1       8.859  15.646  19.016  0.00  0.00    +0.000 C 
ATOM     32  C   UNL     1       9.014  14.152  18.626  0.00  0.00    +0.000 C 
BRANCH  27  34
ATOM     33  C   UNL     1      11.289  13.395  16.666  0.00  0.00    +0.000 C 
ATOM     34  C   UNL     1      11.363  14.029  18.050  0.00  0.00    +0.000 C 
ENDBRANCH  27  34
ENDBRANCH  25  30
ENDBRANCH   1  25
TORSDOF 5
ENDMDL
