MODEL 1
REMARK VINA RESULT:      -8.0      0.000      0.000
REMARK  Name = 
REMARK  8 active torsions:
REMARK  status: ('A' for Active; 'I' for Inactive)
REMARK    1  A    between atoms: N_1  and  C_2
REMARK    2  A    between atoms: C_2  and  C_3
REMARK    3  A    between atoms: C_5  and  O_6
REMARK    4  A    between atoms: O_6  and  C_7
REMARK    5  A    between atoms: C_11  and  C_12
REMARK    6  A    between atoms: N_14  and  C_15
REMARK    7  A    between atoms: C_15  and  C_16
REMARK    8  A    between atoms: C_23  and  C_24
REMARK                            x       y       z     vdW  Elec       q    Type
REMARK                         _______ _______ _______ _____ _____    ______ ____
ROOT
ATOM      1  C   UNL     1       1.790   8.617  18.916  0.00  0.00    +0.000 A 
ATOM      2  C   UNL     1       1.451   8.331  20.248  0.00  0.00    +0.000 A 
ATOM      3  C   UNL     1       1.656   7.058  20.769  0.00  0.00    +0.000 A 
ATOM      4  C   UNL     1       2.195   6.053  19.968  0.00  0.00    +0.000 A 
ATOM      5  C   UNL     1       2.547   6.303  18.624  0.00  0.00    +0.000 A 
ATOM      6  C   UNL     1       2.347   7.609  18.112  0.00  0.00    +0.000 A 
ENDROOT
BRANCH   5   7
ATOM      7  C   UNL     1       3.114   5.176  17.807  0.00  0.00    +0.000 C 
ATOM      8  O   UNL     1       2.367   4.256  17.494  0.00  0.00    +0.000 OA
ATOM      9  N   UNL     1       4.418   5.147  17.398  0.00  0.00    +0.000 N 
ATOM     10  H   UNL     1       5.063   5.904  17.650  0.00  0.00    +0.000 HD
BRANCH   9  11
ATOM     11  C   UNL     1       4.974   4.068  16.600  0.00  0.00    +0.000 C 
BRANCH  11  12
ATOM     12  C   UNL     1       6.002   4.605  15.658  0.00  0.00    +0.000 A 
ATOM     13  N   UNL     1       5.989   4.419  14.321  0.00  0.00    +0.000 NA
ATOM     14  N   UNL     1       7.063   5.047  13.873  0.00  0.00    +0.000 NA
ATOM     15  N   UNL     1       7.703   5.592  14.894  0.00  0.00    +0.000 N 
ATOM     16  N   UNL     1       7.068   5.338  16.027  0.00  0.00    +0.000 NA
ATOM     17  H   UNL     1       8.584   6.145  14.818  0.00  0.00    +0.000 HD
ENDBRANCH  11  12
ENDBRANCH   9  11
ENDBRANCH   5   7
BRANCH   1  18
ATOM     18  O   UNL     1       1.603   9.860  18.396  0.00  0.00    +0.000 OA
BRANCH  18  21
ATOM     19  C   UNL     1      -0.879  12.492  19.008  0.00  0.00    +0.000 A 
ATOM     20  C   UNL     1       0.343  11.794  19.015  0.00  0.00    +0.000 A 
ATOM     21  C   UNL     1       0.424  10.534  18.414  0.00  0.00    +0.000 A 
ATOM     22  N   UNL     1      -0.681   9.998  17.821  0.00  0.00    +0.000 NA
ATOM     23  C   UNL     1      -1.876  10.649  17.787  0.00  0.00    +0.000 A 
ATOM     24  C   UNL     1      -1.992  11.913  18.381  0.00  0.00    +0.000 A 
BRANCH  23  25
ATOM     25  C   UNL     1      -3.052  10.009  17.113  0.00  0.00    +0.000 C 
ATOM     26  F   UNL     1      -3.605   9.032  17.921  0.00  0.00    +0.000 F 
ATOM     27  F   UNL     1      -4.015  10.964  16.851  0.00  0.00    +0.000 F 
ATOM     28  F   UNL     1      -2.647   9.427  15.924  0.00  0.00    +0.000 F 
ENDBRANCH  23  25
BRANCH  19  29
ATOM     29  C   UNL     1      -0.988  13.849  19.670  0.00  0.00    +0.000 C 
BRANCH  29  30
ATOM     30  N   UNL     1      -0.527  14.933  18.798  0.00  0.00    +0.000 NA
ATOM     31  H   UNL     1      -0.434  14.589  17.815  0.00  0.00    +0.000 HD
ATOM     32  H   UNL     1      -1.188  15.744  18.814  0.00  0.00    +0.000 HD
ENDBRANCH  29  30
ENDBRANCH  19  29
ENDBRANCH  18  21
ENDBRANCH   1  18
TORSDOF 8
ENDMDL
MODEL 2
REMARK VINA RESULT:      -8.0      4.639      9.553
REMARK  Name = 
REMARK  8 active torsions:
REMARK  status: ('A' for Active; 'I' for Inactive)
REMARK    1  A    between atoms: N_1  and  C_2
REMARK    2  A    between atoms: C_2  and  C_3
REMARK    3  A    between atoms: C_5  and  O_6
REMARK    4  A    between atoms: O_6  and  C_7
REMARK    5  A    between atoms: C_11  and  C_12
REMARK    6  A    between atoms: N_14  and  C_15
REMARK    7  A    between atoms: C_15  and  C_16
REMARK    8  A    between atoms: C_23  and  C_24
REMARK                            x       y       z     vdW  Elec       q    Type
REMARK                         _______ _______ _______ _____ _____    ______ ____
ROOT
ATOM      1  C   UNL     1       2.764   4.235  18.670  0.00  0.00    +0.000 A 
ATOM      2  C   UNL     1       2.087   3.526  19.675  0.00  0.00    +0.000 A 
ATOM      3  C   UNL     1       1.333   4.202  20.627  0.00  0.00    +0.000 A 
ATOM      4  C   UNL     1       1.250   5.593  20.595  0.00  0.00    +0.000 A 
ATOM      5  C   UNL     1       1.917   6.340  19.600  0.00  0.00    +0.000 A 
ATOM      6  C   UNL     1       2.669   5.636  18.628  0.00  0.00    +0.000 A 
ENDROOT
BRANCH   5   7
ATOM      7  C   UNL     1       1.798   7.839  19.624  0.00  0.00    +0.000 C 
ATOM      8  O   UNL     1       2.211   8.466  18.656  0.00  0.00    +0.000 OA
ATOM      9  N   UNL     1       1.244   8.516  20.673  0.00  0.00    +0.000 N 
ATOM     10  H   UNL     1       0.893   8.013  21.496  0.00  0.00    +0.000 HD
BRANCH   9  11
ATOM     11  C   UNL     1       1.114   9.963  20.703  0.00  0.00    +0.000 C 
BRANCH  11  12
ATOM     12  C   UNL     1       0.201  10.373  21.811  0.00  0.00    +0.000 A 
ATOM     13  N   UNL     1      -0.010  11.649  22.198  0.00  0.00    +0.000 NA
ATOM     14  N   UNL     1      -0.872  11.570  23.198  0.00  0.00    +0.000 NA
ATOM     15  N   UNL     1      -1.172  10.300  23.411  0.00  0.00    +0.000 N 
ATOM     16  N   UNL     1      -0.522   9.521  22.562  0.00  0.00    +0.000 NA
ATOM     17  H   UNL     1      -1.831   9.959  24.144  0.00  0.00    +0.000 HD
ENDBRANCH  11  12
ENDBRANCH   9  11
ENDBRANCH   5   7
BRANCH   1  18
ATOM     18  O   UNL     1       3.499   3.587  17.727  0.00  0.00    +0.000 OA
BRANCH  18  21
ATOM     19  C   UNL     1       6.313   4.326  15.490  0.00  0.00    +0.000 A 
ATOM     20  C   UNL     1       5.052   3.886  15.935  0.00  0.00    +0.000 A 
ATOM     21  C   UNL     1       4.720   3.989  17.289  0.00  0.00    +0.000 A 
ATOM     22  N   UNL     1       5.619   4.524  18.165  0.00  0.00    +0.000 NA
ATOM     23  C   UNL     1       6.843   4.969  17.769  0.00  0.00    +0.000 A 
ATOM     24  C   UNL     1       7.208   4.879  16.419  0.00  0.00    +0.000 A 
BRANCH  23  25
ATOM     25  C   UNL     1       7.783   5.553  18.779  0.00  0.00    +0.000 C 
ATOM     26  F   UNL     1       8.230   6.796  18.368  0.00  0.00    +0.000 F 
ATOM     27  F   UNL     1       7.135   5.694  19.991  0.00  0.00    +0.000 F 
ATOM     28  F   UNL     1       8.875   4.717  18.937  0.00  0.00    +0.000 F 
ENDBRANCH  23  25
BRANCH  19  29
ATOM     29  C   UNL     1       6.694   4.204  14.031  0.00  0.00    +0.000 C 
BRANCH  29  30
ATOM     30  N   UNL     1       7.553   5.306  13.586  0.00  0.00    +0.000 NA
ATOM     31  H   UNL     1       7.650   6.017  14.346  0.00  0.00    +0.000 HD
ATOM     32  H   UNL     1       8.505   4.963  13.317  0.00  0.00    +0.000 HD
ENDBRANCH  29  30
ENDBRANCH  19  29
ENDBRANCH  18  21
ENDBRANCH   1  18
TORSDOF 8
ENDMDL
MODEL 3
REMARK VINA RESULT:      -8.0      2.583      3.292
REMARK  Name = 
REMARK  8 active torsions:
REMARK  status: ('A' for Active; 'I' for Inactive)
REMARK    1  A    between atoms: N_1  and  C_2
REMARK    2  A    between atoms: C_2  and  C_3
REMARK    3  A    between atoms: C_5  and  O_6
REMARK    4  A    between atoms: O_6  and  C_7
REMARK    5  A    between atoms: C_11  and  C_12
REMARK    6  A    between atoms: N_14  and  C_15
REMARK    7  A    between atoms: C_15  and  C_16
REMARK    8  A    between atoms: C_23  and  C_24
REMARK                            x       y       z     vdW  Elec       q    Type
REMARK                         _______ _______ _______ _____ _____    ______ ____
ROOT
ATOM      1  C   UNL     1       2.486   7.136  18.866  0.00  0.00    +0.000 A 
ATOM      2  C   UNL     1       2.092   6.592  20.099  0.00  0.00    +0.000 A 
ATOM      3  C   UNL     1       2.362   5.262  20.401  0.00  0.00    +0.000 A 
ATOM      4  C   UNL     1       3.022   4.455  19.475  0.00  0.00    +0.000 A 
ATOM      5  C   UNL     1       3.433   4.966  18.225  0.00  0.00    +0.000 A 
ATOM      6  C   UNL     1       3.164   6.327  17.939  0.00  0.00    +0.000 A 
ENDROOT
BRANCH   5   7
ATOM      7  C   UNL     1       4.131   4.044  17.265  0.00  0.00    +0.000 C 
ATOM      8  O   UNL     1       3.763   2.876  17.214  0.00  0.00    +0.000 OA
ATOM      9  N   UNL     1       5.145   4.462  16.449  0.00  0.00    +0.000 N 
ATOM     10  H   UNL     1       5.472   5.434  16.476  0.00  0.00    +0.000 HD
BRANCH   9  11
ATOM     11  C   UNL     1       5.820   3.583  15.510  0.00  0.00    +0.000 C 
BRANCH  11  12
ATOM     12  C   UNL     1       6.718   4.377  14.619  0.00  0.00    +0.000 A 
ATOM     13  N   UNL     1       7.637   5.266  15.053  0.00  0.00    +0.000 NA
ATOM     14  N   UNL     1       8.204   5.742  13.957  0.00  0.00    +0.000 NA
ATOM     15  N   UNL     1       7.653   5.167  12.901  0.00  0.00    +0.000 N 
ATOM     16  N   UNL     1       6.721   4.306  13.276  0.00  0.00    +0.000 NA
ATOM     17  H   UNL     1       7.917   5.363  11.912  0.00  0.00    +0.000 HD
ENDBRANCH  11  12
ENDBRANCH   9  11
ENDBRANCH   5   7
BRANCH   1  18
ATOM     18  O   UNL     1       2.236   8.437  18.561  0.00  0.00    +0.000 OA
BRANCH  18  21
ATOM     19  C   UNL     1      -0.671  10.655  18.865  0.00  0.00    +0.000 A 
ATOM     20  C   UNL     1       0.371   9.907  18.287  0.00  0.00    +0.000 A 
ATOM     21  C   UNL     1       1.239   9.179  19.108  0.00  0.00    +0.000 A 
ATOM     22  N   UNL     1       1.060   9.195  20.460  0.00  0.00    +0.000 NA
ATOM     23  C   UNL     1       0.056   9.899  21.052  0.00  0.00    +0.000 A 
ATOM     24  C   UNL     1      -0.830  10.640  20.259  0.00  0.00    +0.000 A 
BRANCH  23  25
ATOM     25  C   UNL     1      -0.092   9.870  22.543  0.00  0.00    +0.000 C 
ATOM     26  F   UNL     1      -0.455  11.116  23.021  0.00  0.00    +0.000 F 
ATOM     27  F   UNL     1      -1.068   8.958  22.896  0.00  0.00    +0.000 F 
ATOM     28  F   UNL     1       1.110   9.504  23.123  0.00  0.00    +0.000 F 
ENDBRANCH  23  25
BRANCH  19  29
ATOM     29  C   UNL     1      -1.608  11.462  17.991  0.00  0.00    +0.000 C 
BRANCH  29  30
ATOM     30  N   UNL     1      -1.040  12.761  17.618  0.00  0.00    +0.000 NA
ATOM     31  H   UNL     1      -1.480  13.522  18.184  0.00  0.00    +0.000 HD
ATOM     32  H   UNL     1      -0.004  12.781  17.766  0.00  0.00    +0.000 HD
ENDBRANCH  29  30
ENDBRANCH  19  29
ENDBRANCH  18  21
ENDBRANCH   1  18
TORSDOF 8
ENDMDL
MODEL 4
REMARK VINA RESULT:      -8.0      1.549      1.825
REMARK  Name = 
REMARK  8 active torsions:
REMARK  status: ('A' for Active; 'I' for Inactive)
REMARK    1  A    between atoms: N_1  and  C_2
REMARK    2  A    between atoms: C_2  and  C_3
REMARK    3  A    between atoms: C_5  and  O_6
REMARK    4  A    between atoms: O_6  and  C_7
REMARK    5  A    between atoms: C_11  and  C_12
REMARK    6  A    between atoms: N_14  and  C_15
REMARK    7  A    between atoms: C_15  and  C_16
REMARK    8  A    between atoms: C_23  and  C_24
REMARK                            x       y       z     vdW  Elec       q    Type
REMARK                         _______ _______ _______ _____ _____    ______ ____
ROOT
ATOM      1  C   UNL     1       2.282   7.490  18.907  0.00  0.00    +0.000 A 
ATOM      2  C   UNL     1       1.824   7.013  20.145  0.00  0.00    +0.000 A 
ATOM      3  C   UNL     1       2.033   5.688  20.510  0.00  0.00    +0.000 A 
ATOM      4  C   UNL     1       2.694   4.820  19.644  0.00  0.00    +0.000 A 
ATOM      5  C   UNL     1       3.169   5.262  18.391  0.00  0.00    +0.000 A 
ATOM      6  C   UNL     1       2.962   6.619  18.039  0.00  0.00    +0.000 A 
ENDROOT
BRANCH   5   7
ATOM      7  C   UNL     1       3.866   4.276  17.495  0.00  0.00    +0.000 C 
ATOM      8  O   UNL     1       3.411   3.141  17.421  0.00  0.00    +0.000 OA
ATOM      9  N   UNL     1       4.972   4.603  16.762  0.00  0.00    +0.000 N 
ATOM     10  H   UNL     1       5.373   5.547  16.809  0.00  0.00    +0.000 HD
BRANCH   9  11
ATOM     11  C   UNL     1       5.648   3.662  15.885  0.00  0.00    +0.000 C 
BRANCH  11  12
ATOM     12  C   UNL     1       6.545   4.394  14.941  0.00  0.00    +0.000 A 
ATOM     13  N   UNL     1       7.489   5.284  15.315  0.00  0.00    +0.000 NA
ATOM     14  N   UNL     1       8.044   5.695  14.187  0.00  0.00    +0.000 NA
ATOM     15  N   UNL     1       7.462   5.081  13.170  0.00  0.00    +0.000 N 
ATOM     16  N   UNL     1       6.521   4.259  13.603  0.00  0.00    +0.000 NA
ATOM     17  H   UNL     1       7.711   5.224  12.168  0.00  0.00    +0.000 HD
ENDBRANCH  11  12
ENDBRANCH   9  11
ENDBRANCH   5   7
BRANCH   1  18
ATOM     18  O   UNL     1       2.092   8.786  18.540  0.00  0.00    +0.000 OA
BRANCH  18  21
ATOM     19  C   UNL     1      -0.255  10.993  20.295  0.00  0.00    +0.000 A 
ATOM     20  C   UNL     1       0.893  10.227  20.023  0.00  0.00    +0.000 A 
ATOM     21  C   UNL     1       0.980   9.512  18.823  0.00  0.00    +0.000 A 
ATOM     22  N   UNL     1      -0.045   9.573  17.926  0.00  0.00    +0.000 NA
ATOM     23  C   UNL     1      -1.166  10.312  18.152  0.00  0.00    +0.000 A 
ATOM     24  C   UNL     1      -1.286  11.039  19.344  0.00  0.00    +0.000 A 
BRANCH  23  25
ATOM     25  C   UNL     1      -2.255  10.343  17.123  0.00  0.00    +0.000 C 
ATOM     26  F   UNL     1      -3.448   9.896  17.662  0.00  0.00    +0.000 F 
ATOM     27  F   UNL     1      -2.431  11.637  16.671  0.00  0.00    +0.000 F 
ATOM     28  F   UNL     1      -1.913   9.528  16.059  0.00  0.00    +0.000 F 
ENDBRANCH  23  25
BRANCH  19  29
ATOM     29  C   UNL     1      -0.373  11.758  21.596  0.00  0.00    +0.000 C 
BRANCH  29  30
ATOM     30  N   UNL     1      -0.054  10.927  22.761  0.00  0.00    +0.000 NA
ATOM     31  H   UNL     1       0.101  11.530  23.601  0.00  0.00    +0.000 HD
ATOM     32  H   UNL     1      -0.823  10.247  22.967  0.00  0.00    +0.000 HD
ENDBRANCH  29  30
ENDBRANCH  19  29
ENDBRANCH  18  21
ENDBRANCH   1  18
TORSDOF 8
ENDMDL
MODEL 5
REMARK VINA RESULT:      -7.9      0.466      1.105
REMARK  Name = 
REMARK  8 active torsions:
REMARK  status: ('A' for Active; 'I' for Inactive)
REMARK    1  A    between atoms: N_1  and  C_2
REMARK    2  A    between atoms: C_2  and  C_3
REMARK    3  A    between atoms: C_5  and  O_6
REMARK    4  A    between atoms: O_6  and  C_7
REMARK    5  A    between atoms: C_11  and  C_12
REMARK    6  A    between atoms: N_14  and  C_15
REMARK    7  A    between atoms: C_15  and  C_16
REMARK    8  A    between atoms: C_23  and  C_24
REMARK                            x       y       z     vdW  Elec       q    Type
REMARK                         _______ _______ _______ _____ _____    ______ ____
ROOT
ATOM      1  C   UNL     1       1.877   8.488  18.922  0.00  0.00    +0.000 A 
ATOM      2  C   UNL     1       1.543   8.177  20.250  0.00  0.00    +0.000 A 
ATOM      3  C   UNL     1       1.741   6.892  20.743  0.00  0.00    +0.000 A 
ATOM      4  C   UNL     1       2.267   5.900  19.918  0.00  0.00    +0.000 A 
ATOM      5  C   UNL     1       2.615   6.175  18.578  0.00  0.00    +0.000 A 
ATOM      6  C   UNL     1       2.422   7.493  18.095  0.00  0.00    +0.000 A 
ENDROOT
BRANCH   5   7
ATOM      7  C   UNL     1       3.168   5.060  17.734  0.00  0.00    +0.000 C 
ATOM      8  O   UNL     1       2.450   4.094  17.510  0.00  0.00    +0.000 OA
ATOM      9  N   UNL     1       4.429   5.093  17.208  0.00  0.00    +0.000 N 
ATOM     10  H   UNL     1       5.051   5.891  17.384  0.00  0.00    +0.000 HD
BRANCH   9  11
ATOM     11  C   UNL     1       4.972   4.027  16.383  0.00  0.00    +0.000 C 
BRANCH  11  12
ATOM     12  C   UNL     1       6.046   4.563  15.494  0.00  0.00    +0.000 A 
ATOM     13  N   UNL     1       6.990   5.447  15.880  0.00  0.00    +0.000 NA
ATOM     14  N   UNL     1       7.730   5.656  14.804  0.00  0.00    +0.000 NA
ATOM     15  N   UNL     1       7.255   4.930  13.805  0.00  0.00    +0.000 N 
ATOM     16  N   UNL     1       6.203   4.232  14.199  0.00  0.00    +0.000 NA
ATOM     17  H   UNL     1       7.654   4.910  12.842  0.00  0.00    +0.000 HD
ENDBRANCH  11  12
ENDBRANCH   9  11
ENDBRANCH   5   7
BRANCH   1  18
ATOM     18  O   UNL     1       1.697   9.743  18.429  0.00  0.00    +0.000 OA
BRANCH  18  21
ATOM     19  C   UNL     1      -0.756  12.371  19.159  0.00  0.00    +0.000 A 
ATOM     20  C   UNL     1       0.457  11.660  19.137  0.00  0.00    +0.000 A 
ATOM     21  C   UNL     1       0.526  10.429  18.476  0.00  0.00    +0.000 A 
ATOM     22  N   UNL     1      -0.582   9.935  17.852  0.00  0.00    +0.000 NA
ATOM     23  C   UNL     1      -1.770  10.601  17.846  0.00  0.00    +0.000 A 
ATOM     24  C   UNL     1      -1.873  11.836  18.500  0.00  0.00    +0.000 A 
BRANCH  23  25
ATOM     25  C   UNL     1      -2.950  10.009  17.137  0.00  0.00    +0.000 C 
ATOM     26  F   UNL     1      -3.909  10.975  16.896  0.00  0.00    +0.000 F 
ATOM     27  F   UNL     1      -2.546   9.474  15.929  0.00  0.00    +0.000 F 
ATOM     28  F   UNL     1      -3.508   9.011  17.916  0.00  0.00    +0.000 F 
ENDBRANCH  23  25
BRANCH  19  29
ATOM     29  C   UNL     1      -0.852  13.696  19.886  0.00  0.00    +0.000 C 
BRANCH  29  30
ATOM     30  N   UNL     1      -2.240  14.132  20.068  0.00  0.00    +0.000 NA
ATOM     31  H   UNL     1      -2.745  13.470  20.699  0.00  0.00    +0.000 HD
ATOM     32  H   UNL     1      -2.287  15.095  20.476  0.00  0.00    +0.000 HD
ENDBRANCH  29  30
ENDBRANCH  19  29
ENDBRANCH  18  21
ENDBRANCH   1  18
TORSDOF 8
ENDMDL
MODEL 6
REMARK VINA RESULT:      -7.9      4.204      9.155
REMARK  Name = 
REMARK  8 active torsions:
REMARK  status: ('A' for Active; 'I' for Inactive)
REMARK    1  A    between atoms: N_1  and  C_2
REMARK    2  A    between atoms: C_2  and  C_3
REMARK    3  A    between atoms: C_5  and  O_6
REMARK    4  A    between atoms: O_6  and  C_7
REMARK    5  A    between atoms: C_11  and  C_12
REMARK    6  A    between atoms: N_14  and  C_15
REMARK    7  A    between atoms: C_15  and  C_16
REMARK    8  A    between atoms: C_23  and  C_24
REMARK                            x       y       z     vdW  Elec       q    Type
REMARK                         _______ _______ _______ _____ _____    ______ ____
ROOT
ATOM      1  C   UNL     1       2.727   5.103  18.505  0.00  0.00    +0.000 A 
ATOM      2  C   UNL     1       2.402   4.228  19.554  0.00  0.00    +0.000 A 
ATOM      3  C   UNL     1       1.807   4.710  20.714  0.00  0.00    +0.000 A 
ATOM      4  C   UNL     1       1.537   6.071  20.847  0.00  0.00    +0.000 A 
ATOM      5  C   UNL     1       1.850   6.981  19.815  0.00  0.00    +0.000 A 
ATOM      6  C   UNL     1       2.441   6.472  18.633  0.00  0.00    +0.000 A 
ENDROOT
BRANCH   5   7
ATOM      7  C   UNL     1       1.544   8.438  20.022  0.00  0.00    +0.000 C 
ATOM      8  O   UNL     1       1.513   8.865  21.170  0.00  0.00    +0.000 OA
ATOM      9  N   UNL     1       1.310   9.295  18.984  0.00  0.00    +0.000 N 
ATOM     10  H   UNL     1       1.328   8.961  18.013  0.00  0.00    +0.000 HD
BRANCH   9  11
ATOM     11  C   UNL     1       1.023  10.707  19.170  0.00  0.00    +0.000 C 
BRANCH  11  12
ATOM     12  C   UNL     1      -0.304  11.044  18.572  0.00  0.00    +0.000 A 
ATOM     13  N   UNL     1      -1.073  10.180  17.877  0.00  0.00    +0.000 NA
ATOM     14  N   UNL     1      -2.144  10.872  17.527  0.00  0.00    +0.000 NA
ATOM     15  N   UNL     1      -2.031  12.106  17.990  0.00  0.00    +0.000 N 
ATOM     16  N   UNL     1      -0.894  12.251  18.650  0.00  0.00    +0.000 NA
ATOM     17  H   UNL     1      -2.740  12.859  17.855  0.00  0.00    +0.000 HD
ENDBRANCH  11  12
ENDBRANCH   9  11
ENDBRANCH   5   7
BRANCH   1  18
ATOM     18  O   UNL     1       3.301   4.644  17.361  0.00  0.00    +0.000 OA
BRANCH  18  21
ATOM     19  C   UNL     1       6.401   4.809  15.404  0.00  0.00    +0.000 A 
ATOM     20  C   UNL     1       5.041   4.636  15.722  0.00  0.00    +0.000 A 
ATOM     21  C   UNL     1       4.614   4.788  17.045  0.00  0.00    +0.000 A 
ATOM     22  N   UNL     1       5.520   5.111  18.013  0.00  0.00    +0.000 NA
ATOM     23  C   UNL     1       6.840   5.296  17.740  0.00  0.00    +0.000 A 
ATOM     24  C   UNL     1       7.302   5.150  16.424  0.00  0.00    +0.000 A 
BRANCH  23  25
ATOM     25  C   UNL     1       7.784   5.657  18.846  0.00  0.00    +0.000 C 
ATOM     26  F   UNL     1       8.354   6.897  18.617  0.00  0.00    +0.000 F 
ATOM     27  F   UNL     1       7.100   5.699  20.046  0.00  0.00    +0.000 F 
ATOM     28  F   UNL     1       8.791   4.712  18.926  0.00  0.00    +0.000 F 
ENDBRANCH  23  25
BRANCH  19  29
ATOM     29  C   UNL     1       6.882   4.630  13.980  0.00  0.00    +0.000 C 
BRANCH  29  30
ATOM     30  N   UNL     1       7.979   5.542  13.644  0.00  0.00    +0.000 NA
ATOM     31  H   UNL     1       8.357   5.316  12.696  0.00  0.00    +0.000 HD
ATOM     32  H   UNL     1       7.663   6.540  13.656  0.00  0.00    +0.000 HD
ENDBRANCH  29  30
ENDBRANCH  19  29
ENDBRANCH  18  21
ENDBRANCH   1  18
TORSDOF 8
ENDMDL
MODEL 7
REMARK VINA RESULT:      -7.9      4.444      8.996
REMARK  Name = 
REMARK  8 active torsions:
REMARK  status: ('A' for Active; 'I' for Inactive)
REMARK    1  A    between atoms: N_1  and  C_2
REMARK    2  A    between atoms: C_2  and  C_3
REMARK    3  A    between atoms: C_5  and  O_6
REMARK    4  A    between atoms: O_6  and  C_7
REMARK    5  A    between atoms: C_11  and  C_12
REMARK    6  A    between atoms: N_14  and  C_15
REMARK    7  A    between atoms: C_15  and  C_16
REMARK    8  A    between atoms: C_23  and  C_24
REMARK                            x       y       z     vdW  Elec       q    Type
REMARK                         _______ _______ _______ _____ _____    ______ ____
ROOT
ATOM      1  C   UNL     1       2.984   3.478  18.355  0.00  0.00    +0.000 A 
ATOM      2  C   UNL     1       2.382   2.459  19.110  0.00  0.00    +0.000 A 
ATOM      3  C   UNL     1       1.578   2.772  20.200  0.00  0.00    +0.000 A 
ATOM      4  C   UNL     1       1.369   4.103  20.555  0.00  0.00    +0.000 A 
ATOM      5  C   UNL     1       1.957   5.154  19.820  0.00  0.00    +0.000 A 
ATOM      6  C   UNL     1       2.762   4.820  18.703  0.00  0.00    +0.000 A 
ENDROOT
BRANCH   5   7
ATOM      7  C   UNL     1       1.703   6.570  20.258  0.00  0.00    +0.000 C 
ATOM      8  O   UNL     1       1.188   6.752  21.355  0.00  0.00    +0.000 OA
ATOM      9  N   UNL     1       2.031   7.649  19.486  0.00  0.00    +0.000 N 
ATOM     10  H   UNL     1       2.461   7.522  18.563  0.00  0.00    +0.000 HD
BRANCH   9  11
ATOM     11  C   UNL     1       1.800   9.021  19.903  0.00  0.00    +0.000 C 
BRANCH  11  12
ATOM     12  C   UNL     1       0.623   9.586  19.176  0.00  0.00    +0.000 A 
ATOM     13  N   UNL     1      -0.488  10.068  19.773  0.00  0.00    +0.000 NA
ATOM     14  N   UNL     1      -1.271  10.461  18.783  0.00  0.00    +0.000 NA
ATOM     15  N   UNL     1      -0.663  10.227  17.632  0.00  0.00    +0.000 N 
ATOM     16  N   UNL     1       0.525   9.683  17.837  0.00  0.00    +0.000 NA
ATOM     17  H   UNL     1      -1.062  10.444  16.693  0.00  0.00    +0.000 HD
ENDBRANCH  11  12
ENDBRANCH   9  11
ENDBRANCH   5   7
BRANCH   1  18
ATOM     18  O   UNL     1       3.767   3.186  17.281  0.00  0.00    +0.000 OA
BRANCH  18  21
ATOM     19  C   UNL     1       6.476   4.686  15.312  0.00  0.00    +0.000 A 
ATOM     20  C   UNL     1       5.295   3.989  15.627  0.00  0.00    +0.000 A 
ATOM     21  C   UNL     1       4.916   3.838  16.965  0.00  0.00    +0.000 A 
ATOM     22  N   UNL     1       5.692   4.375  17.950  0.00  0.00    +0.000 NA
ATOM     23  C   UNL     1       6.835   5.063  17.681  0.00  0.00    +0.000 A 
ATOM     24  C   UNL     1       7.244   5.231  16.351  0.00  0.00    +0.000 A 
BRANCH  23  25
ATOM     25  C   UNL     1       7.640   5.635  18.808  0.00  0.00    +0.000 C 
ATOM     26  F   UNL     1       8.071   6.913  18.501  0.00  0.00    +0.000 F 
ATOM     27  F   UNL     1       6.866   5.691  19.951  0.00  0.00    +0.000 F 
ATOM     28  F   UNL     1       8.746   4.837  19.042  0.00  0.00    +0.000 F 
ENDBRANCH  23  25
BRANCH  19  29
ATOM     29  C   UNL     1       6.909   4.842  13.870  0.00  0.00    +0.000 C 
BRANCH  29  30
ATOM     30  N   UNL     1       8.157   5.600  13.742  0.00  0.00    +0.000 NA
ATOM     31  H   UNL     1       7.954   6.625  13.712  0.00  0.00    +0.000 HD
ATOM     32  H   UNL     1       8.806   5.405  14.541  0.00  0.00    +0.000 HD
ENDBRANCH  29  30
ENDBRANCH  19  29
ENDBRANCH  18  21
ENDBRANCH   1  18
TORSDOF 8
ENDMDL
MODEL 8
REMARK VINA RESULT:      -7.8      4.447      9.886
REMARK  Name = 
REMARK  8 active torsions:
REMARK  status: ('A' for Active; 'I' for Inactive)
REMARK    1  A    between atoms: N_1  and  C_2
REMARK    2  A    between atoms: C_2  and  C_3
REMARK    3  A    between atoms: C_5  and  O_6
REMARK    4  A    between atoms: O_6  and  C_7
REMARK    5  A    between atoms: C_11  and  C_12
REMARK    6  A    between atoms: N_14  and  C_15
REMARK    7  A    between atoms: C_15  and  C_16
REMARK    8  A    between atoms: C_23  and  C_24
REMARK                            x       y       z     vdW  Elec       q    Type
REMARK                         _______ _______ _______ _____ _____    ______ ____
ROOT
ATOM      1  C   UNL     1       1.659   8.300  20.145  0.00  0.00    +0.000 A 
ATOM      2  C   UNL     1       1.409   8.814  18.863  0.00  0.00    +0.000 A 
ATOM      3  C   UNL     1       0.573   9.912  18.694  0.00  0.00    +0.000 A 
ATOM      4  C   UNL     1      -0.030  10.507  19.801  0.00  0.00    +0.000 A 
ATOM      5  C   UNL     1       0.196  10.019  21.105  0.00  0.00    +0.000 A 
ATOM      6  C   UNL     1       1.063   8.909  21.262  0.00  0.00    +0.000 A 
ENDROOT
BRANCH   5   7
ATOM      7  C   UNL     1      -0.491  10.697  22.257  0.00  0.00    +0.000 C 
ATOM      8  O   UNL     1      -0.552  10.100  23.326  0.00  0.00    +0.000 OA
ATOM      9  N   UNL     1      -1.038  11.945  22.157  0.00  0.00    +0.000 N 
ATOM     10  H   UNL     1      -1.002  12.463  21.271  0.00  0.00    +0.000 HD
BRANCH   9  11
ATOM     11  C   UNL     1      -1.696  12.614  23.265  0.00  0.00    +0.000 C 
BRANCH  11  12
ATOM     12  C   UNL     1      -3.179  12.506  23.122  0.00  0.00    +0.000 A 
ATOM     13  N   UNL     1      -4.035  12.301  24.145  0.00  0.00    +0.000 NA
ATOM     14  N   UNL     1      -5.236  12.267  23.592  0.00  0.00    +0.000 NA
ATOM     15  N   UNL     1      -5.115  12.443  22.287  0.00  0.00    +0.000 N 
ATOM     16  N   UNL     1      -3.843  12.598  21.956  0.00  0.00    +0.000 NA
ATOM     17  H   UNL     1      -5.910  12.459  21.612  0.00  0.00    +0.000 HD
ENDBRANCH  11  12
ENDBRANCH   9  11
ENDBRANCH   5   7
BRANCH   1  18
ATOM     18  O   UNL     1       2.481   7.232  20.326  0.00  0.00    +0.000 OA
BRANCH  18  21
ATOM     19  C   UNL     1       2.163   4.113  18.420  0.00  0.00    +0.000 A 
ATOM     20  C   UNL     1       1.937   5.097  19.400  0.00  0.00    +0.000 A 
ATOM     21  C   UNL     1       2.705   6.266  19.398  0.00  0.00    +0.000 A 
ATOM     22  N   UNL     1       3.660   6.443  18.440  0.00  0.00    +0.000 NA
ATOM     23  C   UNL     1       3.899   5.517  17.472  0.00  0.00    +0.000 A 
ATOM     24  C   UNL     1       3.148   4.334  17.446  0.00  0.00    +0.000 A 
BRANCH  23  25
ATOM     25  C   UNL     1       4.958   5.775  16.443  0.00  0.00    +0.000 C 
ATOM     26  F   UNL     1       4.715   6.964  15.780  0.00  0.00    +0.000 F 
ATOM     27  F   UNL     1       6.193   5.854  17.057  0.00  0.00    +0.000 F 
ATOM     28  F   UNL     1       4.970   4.745  15.520  0.00  0.00    +0.000 F 
ENDBRANCH  23  25
BRANCH  19  29
ATOM     29  C   UNL     1       1.353   2.834  18.419  0.00  0.00    +0.000 C 
BRANCH  29  30
ATOM     30  N   UNL     1       2.166   1.660  18.090  0.00  0.00    +0.000 NA
ATOM     31  H   UNL     1       1.591   0.790  18.169  0.00  0.00    +0.000 HD
ATOM     32  H   UNL     1       2.555   1.724  17.120  0.00  0.00    +0.000 HD
ENDBRANCH  29  30
ENDBRANCH  19  29
ENDBRANCH  18  21
ENDBRANCH   1  18
TORSDOF 8
ENDMDL
MODEL 9
REMARK VINA RESULT:      -7.8      2.725      3.353
REMARK  Name = 
REMARK  8 active torsions:
REMARK  status: ('A' for Active; 'I' for Inactive)
REMARK    1  A    between atoms: N_1  and  C_2
REMARK    2  A    between atoms: C_2  and  C_3
REMARK    3  A    between atoms: C_5  and  O_6
REMARK    4  A    between atoms: O_6  and  C_7
REMARK    5  A    between atoms: C_11  and  C_12
REMARK    6  A    between atoms: N_14  and  C_15
REMARK    7  A    between atoms: C_15  and  C_16
REMARK    8  A    between atoms: C_23  and  C_24
REMARK                            x       y       z     vdW  Elec       q    Type
REMARK                         _______ _______ _______ _____ _____    ______ ____
ROOT
ATOM      1  C   UNL     1       2.287   7.338  19.222  0.00  0.00    +0.000 A 
ATOM      2  C   UNL     1       1.559   6.663  20.216  0.00  0.00    +0.000 A 
ATOM      3  C   UNL     1       1.983   5.423  20.680  0.00  0.00    +0.000 A 
ATOM      4  C   UNL     1       3.132   4.835  20.154  0.00  0.00    +0.000 A 
ATOM      5  C   UNL     1       3.889   5.482  19.154  0.00  0.00    +0.000 A 
ATOM      6  C   UNL     1       3.453   6.753  18.703  0.00  0.00    +0.000 A 
ENDROOT
BRANCH   5   7
ATOM      7  C   UNL     1       5.113   4.793  18.618  0.00  0.00    +0.000 C 
ATOM      8  O   UNL     1       5.375   3.672  19.038  0.00  0.00    +0.000 OA
ATOM      9  N   UNL     1       5.930   5.365  17.684  0.00  0.00    +0.000 N 
ATOM     10  H   UNL     1       5.732   6.304  17.320  0.00  0.00    +0.000 HD
BRANCH   9  11
ATOM     11  C   UNL     1       7.110   4.706  17.152  0.00  0.00    +0.000 C 
BRANCH  11  12
ATOM     12  C   UNL     1       6.998   4.574  15.668  0.00  0.00    +0.000 A 
ATOM     13  N   UNL     1       7.621   5.375  14.778  0.00  0.00    +0.000 NA
ATOM     14  N   UNL     1       7.256   4.925  13.590  0.00  0.00    +0.000 NA
ATOM     15  N   UNL     1       6.445   3.892  13.750  0.00  0.00    +0.000 N 
ATOM     16  N   UNL     1       6.261   3.643  15.036  0.00  0.00    +0.000 NA
ATOM     17  H   UNL     1       6.011   3.350  12.972  0.00  0.00    +0.000 HD
ENDBRANCH  11  12
ENDBRANCH   9  11
ENDBRANCH   5   7
BRANCH   1  18
ATOM     18  O   UNL     1       1.889   8.555  18.765  0.00  0.00    +0.000 OA
BRANCH  18  21
ATOM     19  C   UNL     1      -0.793  11.010  19.258  0.00  0.00    +0.000 A 
ATOM     20  C   UNL     1       0.176  10.216  18.618  0.00  0.00    +0.000 A 
ATOM     21  C   UNL     1       0.965   9.343  19.374  0.00  0.00    +0.000 A 
ATOM     22  N   UNL     1       0.781   9.265  20.723  0.00  0.00    +0.000 NA
ATOM     23  C   UNL     1      -0.154  10.011  21.374  0.00  0.00    +0.000 A 
ATOM     24  C   UNL     1      -0.960  10.897  20.646  0.00  0.00    +0.000 A 
BRANCH  23  25
ATOM     25  C   UNL     1      -0.312   9.875  22.858  0.00  0.00    +0.000 C 
ATOM     26  F   UNL     1      -1.168   8.833  23.163  0.00  0.00    +0.000 F 
ATOM     27  F   UNL     1       0.917   9.622  23.435  0.00  0.00    +0.000 F 
ATOM     28  F   UNL     1      -0.832  11.046  23.380  0.00  0.00    +0.000 F 
ENDBRANCH  23  25
BRANCH  19  29
ATOM     29  C   UNL     1      -1.643  11.973  18.456  0.00  0.00    +0.000 C 
BRANCH  29  30
ATOM     30  N   UNL     1      -0.835  12.857  17.611  0.00  0.00    +0.000 NA
ATOM     31  H   UNL     1      -0.030  12.330  17.204  0.00  0.00    +0.000 HD
ATOM     32  H   UNL     1      -1.404  13.265  16.832  0.00  0.00    +0.000 HD
ENDBRANCH  29  30
ENDBRANCH  19  29
ENDBRANCH  18  21
ENDBRANCH   1  18
TORSDOF 8
ENDMDL
