MODEL 1
REMARK VINA RESULT:      -8.5      0.000      0.000
REMARK  Name = 
REMARK  5 active torsions:
REMARK  status: ('A' for Active; 'I' for Inactive)
REMARK    1  A    between atoms: C_1  and  C_2
REMARK    2  A    between atoms: N_4  and  C_5
REMARK    3  A    between atoms: C_5  and  C_6
REMARK    4  A    between atoms: C_6  and  C_7
REMARK    5  A    between atoms: C_10  and  N_11
REMARK                            x       y       z     vdW  Elec       q    Type
REMARK                         _______ _______ _______ _____ _____    ______ ____
ROOT
ATOM      1  C   UNL     1       2.670   8.133  18.234  0.00  0.00    +0.000 C 
ENDROOT
BRANCH   1   2
ATOM      2  C   UNL     1       1.424   8.851  18.788  0.00  0.00    +0.000 C 
ATOM      3  C   UNL     1       1.241   8.642  20.299  0.00  0.00    +0.000 C 
ATOM      4  C   UNL     1       0.004   9.361  20.823  0.00  0.00    +0.000 C 
ATOM      5  C   UNL     1       0.029  10.846  20.459  0.00  0.00    +0.000 C 
ATOM      6  C   UNL     1       0.240  11.071  18.960  0.00  0.00    +0.000 C 
ATOM      7  C   UNL     1       1.486  10.351  18.459  0.00  0.00    +0.000 C 
BRANCH   5   8
ATOM      8  N   UNL     1      -1.193  11.493  20.887  0.00  0.00    +0.000 N 
ATOM      9  C   UNL     1      -1.408  11.805  22.208  0.00  0.00    +0.000 C 
ATOM     10  O   UNL     1      -0.638  11.501  23.105  0.00  0.00    +0.000 OA
ATOM     11  N   UNL     1      -2.606  12.443  22.431  0.00  0.00    +0.000 N 
ATOM     12  C   UNL     1      -3.612  12.817  21.461  0.00  0.00    +0.000 C 
ATOM     13  C   UNL     1      -4.393  13.892  22.187  0.00  0.00    +0.000 C 
ATOM     14  C   UNL     1      -4.412  13.393  23.629  0.00  0.00    +0.000 C 
ATOM     15  C   UNL     1      -3.133  12.572  23.777  0.00  0.00    +0.000 C 
ATOM     16  H   UNL     1      -1.620  12.107  20.212  0.00  0.00    +0.000 HD
ENDBRANCH   5   8
ENDBRANCH   1   2
BRANCH   1  17
ATOM     17  C   UNL     1       2.633   6.623  18.514  0.00  0.00    +0.000 C 
BRANCH  17  21
ATOM     18  C   UNL     1       7.396   7.213  17.568  0.00  0.00    +0.000 C 
ATOM     19  C   UNL     1       6.323   6.115  17.471  0.00  0.00    +0.000 C 
ATOM     20  C   UNL     1       4.922   6.756  17.672  0.00  0.00    +0.000 C 
ATOM     21  N   UNL     1       3.891   5.882  18.276  0.00  0.00    +0.000 NA
ATOM     22  C   UNL     1       3.551   4.717  17.428  0.00  0.00    +0.000 C 
ATOM     23  C   UNL     1       4.684   3.710  17.224  0.00  0.00    +0.000 C 
ATOM     24  C   UNL     1       5.572   4.135  16.081  0.00  0.00    +0.000 A 
ATOM     25  C   UNL     1       5.540   3.400  14.885  0.00  0.00    +0.000 A 
ATOM     26  C   UNL     1       6.293   3.803  13.787  0.00  0.00    +0.000 A 
ATOM     27  C   UNL     1       7.084   4.941  13.883  0.00  0.00    +0.000 A 
ATOM     28 CL   UNL     1       8.009   5.451  12.522  0.00  0.00    +0.000 Cl
ATOM     29  C   UNL     1       7.124   5.684  15.064  0.00  0.00    +0.000 A 
ATOM     30  C   UNL     1       6.364   5.298  16.183  0.00  0.00    +0.000 A 
ENDBRANCH  17  21
ENDBRANCH   1  17
TORSDOF 4
ENDMDL
MODEL 2
REMARK VINA RESULT:      -8.2      1.203      1.244
REMARK  Name = 
REMARK  5 active torsions:
REMARK  status: ('A' for Active; 'I' for Inactive)
REMARK    1  A    between atoms: C_1  and  C_2
REMARK    2  A    between atoms: N_4  and  C_5
REMARK    3  A    between atoms: C_5  and  C_6
REMARK    4  A    between atoms: C_6  and  C_7
REMARK    5  A    between atoms: C_10  and  N_11
REMARK                            x       y       z     vdW  Elec       q    Type
REMARK                         _______ _______ _______ _____ _____    ______ ____
ROOT
ATOM      1  C   UNL     1       2.596   7.243  18.251  0.00  0.00    +0.000 C 
ENDROOT
BRANCH   1   2
ATOM      2  C   UNL     1       1.548   8.176  18.890  0.00  0.00    +0.000 C 
ATOM      3  C   UNL     1       1.595   8.157  20.425  0.00  0.00    +0.000 C 
ATOM      4  C   UNL     1       0.552   9.086  21.034  0.00  0.00    +0.000 C 
ATOM      5  C   UNL     1       0.684  10.506  20.484  0.00  0.00    +0.000 C 
ATOM      6  C   UNL     1       0.669  10.538  18.953  0.00  0.00    +0.000 C 
ATOM      7  C   UNL     1       1.724   9.610  18.367  0.00  0.00    +0.000 C 
BRANCH   5   8
ATOM      8  N   UNL     1      -0.369  11.351  21.005  0.00  0.00    +0.000 N 
ATOM      9  C   UNL     1      -0.093  12.596  21.518  0.00  0.00    +0.000 C 
ATOM     10  O   UNL     1       1.037  13.040  21.638  0.00  0.00    +0.000 OA
ATOM     11  N   UNL     1      -1.214  13.274  21.939  0.00  0.00    +0.000 N 
ATOM     12  C   UNL     1      -2.593  12.839  21.886  0.00  0.00    +0.000 C 
ATOM     13  C   UNL     1      -3.359  14.140  21.989  0.00  0.00    +0.000 C 
ATOM     14  C   UNL     1      -2.519  14.962  22.963  0.00  0.00    +0.000 C 
ATOM     15  C   UNL     1      -1.091  14.454  22.775  0.00  0.00    +0.000 C 
ATOM     16  H   UNL     1      -1.270  11.242  20.569  0.00  0.00    +0.000 HD
ENDBRANCH   5   8
ENDBRANCH   1   2
BRANCH   1  17
ATOM     17  C   UNL     1       2.981   6.088  19.187  0.00  0.00    +0.000 C 
BRANCH  17  21
ATOM     18  C   UNL     1       7.794   5.712  18.399  0.00  0.00    +0.000 C 
ATOM     19  C   UNL     1       6.492   5.019  17.965  0.00  0.00    +0.000 C 
ATOM     20  C   UNL     1       5.283   5.896  18.393  0.00  0.00    +0.000 C 
ATOM     21  N   UNL     1       4.030   5.168  18.694  0.00  0.00    +0.000 NA
ATOM     22  C   UNL     1       3.470   4.469  17.514  0.00  0.00    +0.000 C 
ATOM     23  C   UNL     1       4.329   3.328  16.967  0.00  0.00    +0.000 C 
ATOM     24  C   UNL     1       5.370   3.858  16.013  0.00  0.00    +0.000 A 
ATOM     25  C   UNL     1       5.238   3.586  14.641  0.00  0.00    +0.000 A 
ATOM     26  C   UNL     1       6.139   4.116  13.725  0.00  0.00    +0.000 A 
ATOM     27  C   UNL     1       7.179   4.918  14.176  0.00  0.00    +0.000 A 
ATOM     28 CL   UNL     1       8.291   5.587  13.044  0.00  0.00    +0.000 Cl
ATOM     29  C   UNL     1       7.322   5.201  15.536  0.00  0.00    +0.000 A 
ATOM     30  C   UNL     1       6.416   4.682  16.479  0.00  0.00    +0.000 A 
ENDBRANCH  17  21
ENDBRANCH   1  17
TORSDOF 4
ENDMDL
MODEL 3
REMARK VINA RESULT:      -8.2      6.813     10.007
REMARK  Name = 
REMARK  5 active torsions:
REMARK  status: ('A' for Active; 'I' for Inactive)
REMARK    1  A    between atoms: C_1  and  C_2
REMARK    2  A    between atoms: N_4  and  C_5
REMARK    3  A    between atoms: C_5  and  C_6
REMARK    4  A    between atoms: C_6  and  C_7
REMARK    5  A    between atoms: C_10  and  N_11
REMARK                            x       y       z     vdW  Elec       q    Type
REMARK                         _______ _______ _______ _____ _____    ______ ____
ROOT
ATOM      1  C   UNL     1       8.594   8.554  17.740  0.00  0.00    +0.000 C 
ENDROOT
BRANCH   1   2
ATOM      2  C   UNL     1       7.418   7.613  18.064  0.00  0.00    +0.000 C 
ATOM      3  C   UNL     1       6.641   7.182  16.811  0.00  0.00    +0.000 C 
ATOM      4  C   UNL     1       5.484   6.252  17.156  0.00  0.00    +0.000 C 
ATOM      5  C   UNL     1       5.963   5.046  17.964  0.00  0.00    +0.000 C 
ATOM      6  C   UNL     1       6.765   5.459  19.201  0.00  0.00    +0.000 C 
ATOM      7  C   UNL     1       7.920   6.380  18.832  0.00  0.00    +0.000 C 
BRANCH   5   8
ATOM      8  N   UNL     1       4.840   4.222  18.358  0.00  0.00    +0.000 N 
ATOM      9  C   UNL     1       3.854   4.710  19.182  0.00  0.00    +0.000 C 
ATOM     10  O   UNL     1       3.889   5.819  19.689  0.00  0.00    +0.000 OA
ATOM     11  N   UNL     1       2.849   3.803  19.428  0.00  0.00    +0.000 N 
ATOM     12  C   UNL     1       2.719   2.455  18.921  0.00  0.00    +0.000 C 
ATOM     13  C   UNL     1       1.243   2.172  19.096  0.00  0.00    +0.000 C 
ATOM     14  C   UNL     1       0.908   2.871  20.411  0.00  0.00    +0.000 C 
ATOM     15  C   UNL     1       1.899   4.031  20.501  0.00  0.00    +0.000 C 
ATOM     16  H   UNL     1       4.553   3.528  17.687  0.00  0.00    +0.000 HD
ENDBRANCH   5   8
ENDBRANCH   1   2
BRANCH   1  17
ATOM     17  C   UNL     1       8.359   9.973  18.280  0.00  0.00    +0.000 C 
BRANCH  17  21
ATOM     18  C   UNL     1       9.030  12.350  22.502  0.00  0.00    +0.000 C 
ATOM     19  C   UNL     1       9.813  12.025  21.219  0.00  0.00    +0.000 C 
ATOM     20  C   UNL     1       8.830  11.470  20.152  0.00  0.00    +0.000 C 
ATOM     21  N   UNL     1       9.402  10.511  19.181  0.00  0.00    +0.000 NA
ATOM     22  C   UNL     1      10.445  11.115  18.319  0.00  0.00    +0.000 C 
ATOM     23  C   UNL     1      11.713  11.561  19.049  0.00  0.00    +0.000 C 
ATOM     24  C   UNL     1      11.540  12.949  19.612  0.00  0.00    +0.000 A 
ATOM     25  C   UNL     1      12.249  14.013  19.031  0.00  0.00    +0.000 A 
ATOM     26  C   UNL     1      12.061  15.317  19.478  0.00  0.00    +0.000 A 
ATOM     27  C   UNL     1      11.167  15.561  20.513  0.00  0.00    +0.000 A 
ATOM     28 CL   UNL     1      10.923  17.174  21.062  0.00  0.00    +0.000 Cl
ATOM     29  C   UNL     1      10.452  14.515  21.099  0.00  0.00    +0.000 A 
ATOM     30  C   UNL     1      10.620  13.191  20.656  0.00  0.00    +0.000 A 
ENDBRANCH  17  21
ENDBRANCH   1  17
TORSDOF 4
ENDMDL
MODEL 4
REMARK VINA RESULT:      -8.2      1.473      1.901
REMARK  Name = 
REMARK  5 active torsions:
REMARK  status: ('A' for Active; 'I' for Inactive)
REMARK    1  A    between atoms: C_1  and  C_2
REMARK    2  A    between atoms: N_4  and  C_5
REMARK    3  A    between atoms: C_5  and  C_6
REMARK    4  A    between atoms: C_6  and  C_7
REMARK    5  A    between atoms: C_10  and  N_11
REMARK                            x       y       z     vdW  Elec       q    Type
REMARK                         _______ _______ _______ _____ _____    ______ ____
ROOT
ATOM      1  C   UNL     1       2.443   7.148  18.355  0.00  0.00    +0.000 C 
ENDROOT
BRANCH   1   2
ATOM      2  C   UNL     1       2.041   8.464  19.049  0.00  0.00    +0.000 C 
ATOM      3  C   UNL     1       1.169   9.361  18.157  0.00  0.00    +0.000 C 
ATOM      4  C   UNL     1       0.784  10.655  18.863  0.00  0.00    +0.000 C 
ATOM      5  C   UNL     1       0.112  10.375  20.208  0.00  0.00    +0.000 C 
ATOM      6  C   UNL     1       0.956   9.458  21.096  0.00  0.00    +0.000 C 
ATOM      7  C   UNL     1       1.322   8.168  20.374  0.00  0.00    +0.000 C 
BRANCH   5   8
ATOM      8  N   UNL     1      -0.166  11.615  20.903  0.00  0.00    +0.000 N 
ATOM      9  C   UNL     1      -1.346  12.291  20.706  0.00  0.00    +0.000 C 
ATOM     10  O   UNL     1      -2.193  11.947  19.898  0.00  0.00    +0.000 OA
ATOM     11  N   UNL     1      -1.456  13.430  21.469  0.00  0.00    +0.000 N 
ATOM     12  C   UNL     1      -0.508  13.959  22.425  0.00  0.00    +0.000 C 
ATOM     13  C   UNL     1      -1.365  14.872  23.276  0.00  0.00    +0.000 C 
ATOM     14  C   UNL     1      -2.337  15.477  22.266  0.00  0.00    +0.000 C 
ATOM     15  C   UNL     1      -2.478  14.418  21.175  0.00  0.00    +0.000 C 
ATOM     16  H   UNL     1       0.248  11.703  21.816  0.00  0.00    +0.000 HD
ENDBRANCH   5   8
ENDBRANCH   1   2
BRANCH   1  17
ATOM     17  C   UNL     1       2.969   6.109  19.358  0.00  0.00    +0.000 C 
BRANCH  17  21
ATOM     18  C   UNL     1       7.768   5.665  18.521  0.00  0.00    +0.000 C 
ATOM     19  C   UNL     1       6.452   4.991  18.099  0.00  0.00    +0.000 C 
ATOM     20  C   UNL     1       5.260   5.885  18.540  0.00  0.00    +0.000 C 
ATOM     21  N   UNL     1       4.000   5.175  18.853  0.00  0.00    +0.000 NA
ATOM     22  C   UNL     1       3.417   4.487  17.677  0.00  0.00    +0.000 C 
ATOM     23  C   UNL     1       4.254   3.334  17.120  0.00  0.00    +0.000 C 
ATOM     24  C   UNL     1       5.293   3.851  16.156  0.00  0.00    +0.000 A 
ATOM     25  C   UNL     1       5.143   3.583  14.786  0.00  0.00    +0.000 A 
ATOM     26  C   UNL     1       6.043   4.102  13.861  0.00  0.00    +0.000 A 
ATOM     27  C   UNL     1       7.100   4.888  14.303  0.00  0.00    +0.000 A 
ATOM     28 CL   UNL     1       8.209   5.542  13.161  0.00  0.00    +0.000 Cl
ATOM     29  C   UNL     1       7.260   5.166  15.662  0.00  0.00    +0.000 A 
ATOM     30  C   UNL     1       6.356   4.659  16.613  0.00  0.00    +0.000 A 
ENDBRANCH  17  21
ENDBRANCH   1  17
TORSDOF 4
ENDMDL
MODEL 5
REMARK VINA RESULT:      -8.2      3.257      4.976
REMARK  Name = 
REMARK  5 active torsions:
REMARK  status: ('A' for Active; 'I' for Inactive)
REMARK    1  A    between atoms: C_1  and  C_2
REMARK    2  A    between atoms: N_4  and  C_5
REMARK    3  A    between atoms: C_5  and  C_6
REMARK    4  A    between atoms: C_6  and  C_7
REMARK    5  A    between atoms: C_10  and  N_11
REMARK                            x       y       z     vdW  Elec       q    Type
REMARK                         _______ _______ _______ _____ _____    ______ ____
ROOT
ATOM      1  C   UNL     1      -0.347   9.739  17.868  0.00  0.00    +0.000 C 
ENDROOT
BRANCH   1   2
ATOM      2  C   UNL     1      -1.371  10.858  18.142  0.00  0.00    +0.000 C 
ATOM      3  C   UNL     1      -2.812  10.435  17.819  0.00  0.00    +0.000 C 
ATOM      4  C   UNL     1      -3.805  11.556  18.098  0.00  0.00    +0.000 C 
ATOM      5  C   UNL     1      -3.677  12.067  19.534  0.00  0.00    +0.000 C 
ATOM      6  C   UNL     1      -2.240  12.464  19.881  0.00  0.00    +0.000 C 
ATOM      7  C   UNL     1      -1.266  11.327  19.602  0.00  0.00    +0.000 C 
BRANCH   5   8
ATOM      8  N   UNL     1      -4.565  13.189  19.754  0.00  0.00    +0.000 N 
ATOM      9  C   UNL     1      -5.483  13.179  20.777  0.00  0.00    +0.000 C 
ATOM     10  O   UNL     1      -5.665  12.220  21.509  0.00  0.00    +0.000 OA
ATOM     11  N   UNL     1      -6.221  14.337  20.859  0.00  0.00    +0.000 N 
ATOM     12  C   UNL     1      -6.126  15.517  20.028  0.00  0.00    +0.000 C 
ATOM     13  C   UNL     1      -6.775  16.583  20.885  0.00  0.00    +0.000 C 
ATOM     14  C   UNL     1      -7.912  15.832  21.573  0.00  0.00    +0.000 C 
ATOM     15  C   UNL     1      -7.426  14.386  21.667  0.00  0.00    +0.000 C 
ATOM     16  H   UNL     1      -4.198  14.091  19.497  0.00  0.00    +0.000 HD
ENDBRANCH   5   8
ENDBRANCH   1   2
BRANCH   1  17
ATOM     17  C   UNL     1       1.086  10.177  18.208  0.00  0.00    +0.000 C 
BRANCH  17  21
ATOM     18  C   UNL     1       4.404   6.783  17.027  0.00  0.00    +0.000 C 
ATOM     19  C   UNL     1       3.475   7.135  18.201  0.00  0.00    +0.000 C 
ATOM     20  C   UNL     1       2.455   8.209  17.735  0.00  0.00    +0.000 C 
ATOM     21  N   UNL     1       1.969   9.137  18.781  0.00  0.00    +0.000 NA
ATOM     22  C   UNL     1       1.196   8.455  19.845  0.00  0.00    +0.000 C 
ATOM     23  C   UNL     1       1.997   7.469  20.698  0.00  0.00    +0.000 C 
ATOM     24  C   UNL     1       2.053   6.116  20.033  0.00  0.00    +0.000 A 
ATOM     25  C   UNL     1       1.329   5.052  20.594  0.00  0.00    +0.000 A 
ATOM     26  C   UNL     1       1.301   3.809  19.970  0.00  0.00    +0.000 A 
ATOM     27  C   UNL     1       2.001   3.625  18.785  0.00  0.00    +0.000 A 
ATOM     28 CL   UNL     1       1.959   2.091  18.002  0.00  0.00    +0.000 Cl
ATOM     29  C   UNL     1       2.722   4.674  18.213  0.00  0.00    +0.000 A 
ATOM     30  C   UNL     1       2.757   5.941  18.823  0.00  0.00    +0.000 A 
ENDBRANCH  17  21
ENDBRANCH   1  17
TORSDOF 4
ENDMDL
MODEL 6
REMARK VINA RESULT:      -8.0      1.386      1.833
REMARK  Name = 
REMARK  5 active torsions:
REMARK  status: ('A' for Active; 'I' for Inactive)
REMARK    1  A    between atoms: C_1  and  C_2
REMARK    2  A    between atoms: N_4  and  C_5
REMARK    3  A    between atoms: C_5  and  C_6
REMARK    4  A    between atoms: C_6  and  C_7
REMARK    5  A    between atoms: C_10  and  N_11
REMARK                            x       y       z     vdW  Elec       q    Type
REMARK                         _______ _______ _______ _____ _____    ______ ____
ROOT
ATOM      1  C   UNL     1       2.040   7.013  19.982  0.00  0.00    +0.000 C 
ENDROOT
BRANCH   1   2
ATOM      2  C   UNL     1       1.714   8.429  20.496  0.00  0.00    +0.000 C 
ATOM      3  C   UNL     1       1.005   9.293  19.442  0.00  0.00    +0.000 C 
ATOM      4  C   UNL     1       0.693  10.687  19.973  0.00  0.00    +0.000 C 
ATOM      5  C   UNL     1      -0.104  10.621  21.276  0.00  0.00    +0.000 C 
ATOM      6  C   UNL     1       0.577   9.738  22.326  0.00  0.00    +0.000 C 
ATOM      7  C   UNL     1       0.870   8.348  21.778  0.00  0.00    +0.000 C 
BRANCH   5   8
ATOM      8  N   UNL     1      -0.313  11.950  21.810  0.00  0.00    +0.000 N 
ATOM      9  C   UNL     1      -1.250  12.183  22.789  0.00  0.00    +0.000 C 
ATOM     10  O   UNL     1      -2.006  11.325  23.215  0.00  0.00    +0.000 OA
ATOM     11  N   UNL     1      -1.294  13.495  23.201  0.00  0.00    +0.000 N 
ATOM     12  C   UNL     1      -0.482  14.602  22.744  0.00  0.00    +0.000 C 
ATOM     13  C   UNL     1      -0.615  15.602  23.872  0.00  0.00    +0.000 C 
ATOM     14  C   UNL     1      -2.065  15.434  24.317  0.00  0.00    +0.000 C 
ATOM     15  C   UNL     1      -2.409  13.981  23.992  0.00  0.00    +0.000 C 
ATOM     16  H   UNL     1       0.498  12.546  21.823  0.00  0.00    +0.000 HD
ENDBRANCH   5   8
ENDBRANCH   1   2
BRANCH   1  17
ATOM     17  C   UNL     1       2.654   7.041  18.575  0.00  0.00    +0.000 C 
BRANCH  17  21
ATOM     18  C   UNL     1       7.444   7.317  17.621  0.00  0.00    +0.000 C 
ATOM     19  C   UNL     1       6.311   6.278  17.569  0.00  0.00    +0.000 C 
ATOM     20  C   UNL     1       4.948   7.006  17.736  0.00  0.00    +0.000 C 
ATOM     21  N   UNL     1       3.869   6.220  18.375  0.00  0.00    +0.000 NA
ATOM     22  C   UNL     1       3.464   5.039  17.577  0.00  0.00    +0.000 C 
ATOM     23  C   UNL     1       4.538   3.961  17.422  0.00  0.00    +0.000 C 
ATOM     24  C   UNL     1       5.451   4.284  16.265  0.00  0.00    +0.000 A 
ATOM     25  C   UNL     1       5.378   3.500  15.102  0.00  0.00    +0.000 A 
ATOM     26  C   UNL     1       6.154   3.811  13.990  0.00  0.00    +0.000 A 
ATOM     27  C   UNL     1       7.009   4.905  14.039  0.00  0.00    +0.000 A 
ATOM     28 CL   UNL     1       7.962   5.301  12.661  0.00  0.00    +0.000 Cl
ATOM     29  C   UNL     1       7.089   5.696  15.186  0.00  0.00    +0.000 A 
ATOM     30  C   UNL     1       6.307   5.404  16.318  0.00  0.00    +0.000 A 
ENDBRANCH  17  21
ENDBRANCH   1  17
TORSDOF 4
ENDMDL
MODEL 7
REMARK VINA RESULT:      -8.0      2.751      3.090
REMARK  Name = 
REMARK  5 active torsions:
REMARK  status: ('A' for Active; 'I' for Inactive)
REMARK    1  A    between atoms: C_1  and  C_2
REMARK    2  A    between atoms: N_4  and  C_5
REMARK    3  A    between atoms: C_5  and  C_6
REMARK    4  A    between atoms: C_6  and  C_7
REMARK    5  A    between atoms: C_10  and  N_11
REMARK                            x       y       z     vdW  Elec       q    Type
REMARK                         _______ _______ _______ _____ _____    ______ ____
ROOT
ATOM      1  C   UNL     1       2.185   6.528  18.695  0.00  0.00    +0.000 C 
ENDROOT
BRANCH   1   2
ATOM      2  C   UNL     1       2.188   8.043  18.978  0.00  0.00    +0.000 C 
ATOM      3  C   UNL     1       1.867   8.880  17.731  0.00  0.00    +0.000 C 
ATOM      4  C   UNL     1       1.876  10.373  18.035  0.00  0.00    +0.000 C 
ATOM      5  C   UNL     1       0.937  10.708  19.195  0.00  0.00    +0.000 C 
ATOM      6  C   UNL     1       1.225   9.860  20.436  0.00  0.00    +0.000 C 
ATOM      7  C   UNL     1       1.203   8.373  20.111  0.00  0.00    +0.000 C 
BRANCH   5   8
ATOM      8  N   UNL     1       1.025  12.115  19.528  0.00  0.00    +0.000 N 
ATOM      9  C   UNL     1       0.160  13.030  18.978  0.00  0.00    +0.000 C 
ATOM     10  O   UNL     1      -0.676  12.747  18.136  0.00  0.00    +0.000 OA
ATOM     11  N   UNL     1       0.367  14.314  19.428  0.00  0.00    +0.000 N 
ATOM     12  C   UNL     1       1.345  14.778  20.387  0.00  0.00    +0.000 C 
ATOM     13  C   UNL     1       0.767  16.100  20.843  0.00  0.00    +0.000 C 
ATOM     14  C   UNL     1       0.148  16.667  19.568  0.00  0.00    +0.000 C 
ATOM     15  C   UNL     1      -0.238  15.441  18.742  0.00  0.00    +0.000 C 
ATOM     16  H   UNL     1       1.361  12.322  20.454  0.00  0.00    +0.000 HD
ENDBRANCH   5   8
ENDBRANCH   1   2
BRANCH   1  17
ATOM     17  C   UNL     1       3.068   5.757  19.688  0.00  0.00    +0.000 C 
BRANCH  17  21
ATOM     18  C   UNL     1       7.842   5.511  18.650  0.00  0.00    +0.000 C 
ATOM     19  C   UNL     1       6.531   4.816  18.244  0.00  0.00    +0.000 C 
ATOM     20  C   UNL     1       5.331   5.648  18.774  0.00  0.00    +0.000 C 
ATOM     21  N   UNL     1       4.106   4.883  19.098  0.00  0.00    +0.000 NA
ATOM     22  C   UNL     1       3.500   4.234  17.913  0.00  0.00    +0.000 C 
ATOM     23  C   UNL     1       4.349   3.137  17.267  0.00  0.00    +0.000 C 
ATOM     24  C   UNL     1       5.333   3.734  16.292  0.00  0.00    +0.000 A 
ATOM     25  C   UNL     1       5.138   3.528  14.917  0.00  0.00    +0.000 A 
ATOM     26  C   UNL     1       5.984   4.120  13.985  0.00  0.00    +0.000 A 
ATOM     27  C   UNL     1       7.032   4.918  14.427  0.00  0.00    +0.000 A 
ATOM     28 CL   UNL     1       8.076   5.663  13.277  0.00  0.00    +0.000 Cl
ATOM     29  C   UNL     1       7.237   5.135  15.790  0.00  0.00    +0.000 A 
ATOM     30  C   UNL     1       6.388   4.553  16.748  0.00  0.00    +0.000 A 
ENDBRANCH  17  21
ENDBRANCH   1  17
TORSDOF 4
ENDMDL
MODEL 8
REMARK VINA RESULT:      -7.9      2.562      3.540
REMARK  Name = 
REMARK  5 active torsions:
REMARK  status: ('A' for Active; 'I' for Inactive)
REMARK    1  A    between atoms: C_1  and  C_2
REMARK    2  A    between atoms: N_4  and  C_5
REMARK    3  A    between atoms: C_5  and  C_6
REMARK    4  A    between atoms: C_6  and  C_7
REMARK    5  A    between atoms: C_10  and  N_11
REMARK                            x       y       z     vdW  Elec       q    Type
REMARK                         _______ _______ _______ _____ _____    ______ ____
ROOT
ATOM      1  C   UNL     1       1.340   8.528  20.606  0.00  0.00    +0.000 C 
ENDROOT
BRANCH   1   2
ATOM      2  C   UNL     1       0.231   9.446  21.156  0.00  0.00    +0.000 C 
ATOM      3  C   UNL     1       0.130   9.401  22.688  0.00  0.00    +0.000 C 
ATOM      4  C   UNL     1      -0.972  10.316  23.208  0.00  0.00    +0.000 C 
ATOM      5  C   UNL     1      -0.793  11.746  22.697  0.00  0.00    +0.000 C 
ATOM      6  C   UNL     1      -0.661  11.804  21.173  0.00  0.00    +0.000 C 
ATOM      7  C   UNL     1       0.450  10.890  20.676  0.00  0.00    +0.000 C 
BRANCH   5   8
ATOM      8  N   UNL     1      -1.896  12.580  23.128  0.00  0.00    +0.000 N 
ATOM      9  C   UNL     1      -1.691  13.879  23.527  0.00  0.00    +0.000 C 
ATOM     10  O   UNL     1      -0.587  14.390  23.616  0.00  0.00    +0.000 OA
ATOM     11  N   UNL     1      -2.852  14.533  23.873  0.00  0.00    +0.000 N 
ATOM     12  C   UNL     1      -4.205  14.023  23.848  0.00  0.00    +0.000 C 
ATOM     13  C   UNL     1      -5.038  15.286  23.823  0.00  0.00    +0.000 C 
ATOM     14  C   UNL     1      -4.256  16.237  24.725  0.00  0.00    +0.000 C 
ATOM     15  C   UNL     1      -2.800  15.789  24.598  0.00  0.00    +0.000 C 
ATOM     16  H   UNL     1      -2.784  12.383  22.697  0.00  0.00    +0.000 HD
ENDBRANCH   5   8
ENDBRANCH   1   2
BRANCH   1  17
ATOM     17  C   UNL     1       1.336   8.482  19.070  0.00  0.00    +0.000 C 
BRANCH  17  21
ATOM     18  C   UNL     1       3.410   4.129  19.897  0.00  0.00    +0.000 C 
ATOM     19  C   UNL     1       3.541   5.307  18.917  0.00  0.00    +0.000 C 
ATOM     20  C   UNL     1       2.730   6.514  19.463  0.00  0.00    +0.000 C 
ATOM     21  N   UNL     1       2.172   7.432  18.445  0.00  0.00    +0.000 NA
ATOM     22  C   UNL     1       3.216   8.126  17.657  0.00  0.00    +0.000 C 
ATOM     23  C   UNL     1       4.072   7.219  16.772  0.00  0.00    +0.000 C 
ATOM     24  C   UNL     1       5.219   6.636  17.562  0.00  0.00    +0.000 A 
ATOM     25  C   UNL     1       6.524   7.082  17.295  0.00  0.00    +0.000 A 
ATOM     26  C   UNL     1       7.597   6.619  18.050  0.00  0.00    +0.000 A 
ATOM     27  C   UNL     1       7.369   5.706  19.071  0.00  0.00    +0.000 A 
ATOM     28 CL   UNL     1       8.693   5.139  20.016  0.00  0.00    +0.000 Cl
ATOM     29  C   UNL     1       6.077   5.256  19.350  0.00  0.00    +0.000 A 
ATOM     30  C   UNL     1       4.977   5.717  18.605  0.00  0.00    +0.000 A 
ENDBRANCH  17  21
ENDBRANCH   1  17
TORSDOF 4
ENDMDL
MODEL 9
REMARK VINA RESULT:      -7.8      6.001      8.979
REMARK  Name = 
REMARK  5 active torsions:
REMARK  status: ('A' for Active; 'I' for Inactive)
REMARK    1  A    between atoms: C_1  and  C_2
REMARK    2  A    between atoms: N_4  and  C_5
REMARK    3  A    between atoms: C_5  and  C_6
REMARK    4  A    between atoms: C_6  and  C_7
REMARK    5  A    between atoms: C_10  and  N_11
REMARK                            x       y       z     vdW  Elec       q    Type
REMARK                         _______ _______ _______ _____ _____    ______ ____
ROOT
ATOM      1  C   UNL     1       7.897   7.830  18.190  0.00  0.00    +0.000 C 
ENDROOT
BRANCH   1   2
ATOM      2  C   UNL     1       8.591   9.203  18.085  0.00  0.00    +0.000 C 
ATOM      3  C   UNL     1       7.646  10.308  17.590  0.00  0.00    +0.000 C 
ATOM      4  C   UNL     1       8.353  11.655  17.495  0.00  0.00    +0.000 C 
ATOM      5  C   UNL     1       9.013  12.030  18.822  0.00  0.00    +0.000 C 
ATOM      6  C   UNL     1       9.935  10.925  19.343  0.00  0.00    +0.000 C 
ATOM      7  C   UNL     1       9.206   9.592  19.439  0.00  0.00    +0.000 C 
BRANCH   5   8
ATOM      8  N   UNL     1       9.754  13.267  18.688  0.00  0.00    +0.000 N 
ATOM      9  C   UNL     1       9.177  14.477  18.991  0.00  0.00    +0.000 C 
ATOM     10  O   UNL     1       8.008  14.604  19.317  0.00  0.00    +0.000 OA
ATOM     11  N   UNL     1      10.033  15.544  18.836  0.00  0.00    +0.000 N 
ATOM     12  C   UNL     1      11.418  15.523  18.420  0.00  0.00    +0.000 C 
ATOM     13  C   UNL     1      11.939  16.852  18.925  0.00  0.00    +0.000 C 
ATOM     14  C   UNL     1      10.757  17.793  18.709  0.00  0.00    +0.000 C 
ATOM     15  C   UNL     1       9.521  16.901  18.815  0.00  0.00    +0.000 C 
ATOM     16  H   UNL     1      10.746  13.198  18.841  0.00  0.00    +0.000 HD
ENDBRANCH   5   8
ENDBRANCH   1   2
BRANCH   1  17
ATOM     17  C   UNL     1       7.673   7.194  16.810  0.00  0.00    +0.000 C 
BRANCH  17  21
ATOM     18  C   UNL     1       2.962   7.985  17.862  0.00  0.00    +0.000 C 
ATOM     19  C   UNL     1       3.846   6.873  17.271  0.00  0.00    +0.000 C 
ATOM     20  C   UNL     1       5.338   7.223  17.526  0.00  0.00    +0.000 C 
ATOM     21  N   UNL     1       6.302   6.718  16.523  0.00  0.00    +0.000 NA
ATOM     22  C   UNL     1       6.362   5.239  16.473  0.00  0.00    +0.000 C 
ATOM     23  C   UNL     1       5.081   4.553  15.996  0.00  0.00    +0.000 C 
ATOM     24  C   UNL     1       4.124   4.358  17.146  0.00  0.00    +0.000 A 
ATOM     25  C   UNL     1       3.899   3.060  17.632  0.00  0.00    +0.000 A 
ATOM     26  C   UNL     1       3.078   2.850  18.734  0.00  0.00    +0.000 A 
ATOM     27  C   UNL     1       2.475   3.938  19.354  0.00  0.00    +0.000 A 
ATOM     28 CL   UNL     1       1.468   3.684  20.727  0.00  0.00    +0.000 Cl
ATOM     29  C   UNL     1       2.693   5.235  18.885  0.00  0.00    +0.000 A 
ATOM     30  C   UNL     1       3.526   5.470  17.777  0.00  0.00    +0.000 A 
ENDBRANCH  17  21
ENDBRANCH   1  17
TORSDOF 4
ENDMDL
