MODEL 1
REMARK VINA RESULT:      -8.0      0.000      0.000
REMARK  Name = 
REMARK  5 active torsions:
REMARK  status: ('A' for Active; 'I' for Inactive)
REMARK    1  A    between atoms: C_2  and  O_3
REMARK    2  A    between atoms: O_3  and  C_4
REMARK    3  A    between atoms: N_13  and  C_14
REMARK    4  A    between atoms: C_14  and  C_15
REMARK    5  A    between atoms: C_14  and  C_21
REMARK                            x       y       z     vdW  Elec       q    Type
REMARK                         _______ _______ _______ _____ _____    ______ ____
ROOT
ATOM      1  O   UNL     1       0.965   8.059  21.146  0.00  0.00    +0.000 OA
ATOM      2  C   UNL     1       1.405   8.384  20.050  0.00  0.00    +0.000 C 
ATOM      3  N   UNL     1       2.147   7.547  19.238  0.00  0.00    +0.000 N 
ATOM      4  C   UNL     1       2.680   7.944  17.932  0.00  0.00    +0.000 C 
ATOM      5  C   UNL     1       4.176   7.589  17.797  0.00  0.00    +0.000 C 
ATOM      6  N   UNL     1       4.516   6.180  18.146  0.00  0.00    +0.000 NA
ATOM      7  C   UNL     1       4.006   5.938  19.519  0.00  0.00    +0.000 C 
ATOM      8  C   UNL     1       2.500   6.209  19.704  0.00  0.00    +0.000 C 
ENDROOT
BRANCH   2   9
ATOM      9  O   UNL     1       1.248   9.642  19.477  0.00  0.00    +0.000 OA
BRANCH   9  10
ATOM     10  C   UNL     1       0.016  10.314  19.366  0.00  0.00    +0.000 A 
ATOM     11  C   UNL     1      -0.637  10.113  18.147  0.00  0.00    +0.000 A 
ATOM     12  C   UNL     1      -1.798  10.823  17.856  0.00  0.00    +0.000 A 
ATOM     13  C   UNL     1      -2.311  11.723  18.788  0.00  0.00    +0.000 A 
ATOM     14  C   UNL     1      -1.669  11.905  20.014  0.00  0.00    +0.000 A 
ATOM     15  C   UNL     1      -0.501  11.203  20.307  0.00  0.00    +0.000 A 
ENDBRANCH   9  10
ENDBRANCH   2   9
BRANCH   6  16
ATOM     16  C   UNL     1       3.977   5.218  17.137  0.00  0.00    +0.000 C 
BRANCH  16  17
ATOM     17  C   UNL     1       5.051   4.846  16.101  0.00  0.00    +0.000 A 
ATOM     18  C   UNL     1       6.409   5.153  16.308  0.00  0.00    +0.000 A 
ATOM     19  C   UNL     1       7.361   4.903  15.319  0.00  0.00    +0.000 A 
ATOM     20  C   UNL     1       6.970   4.369  14.095  0.00  0.00    +0.000 A 
ATOM     21  C   UNL     1       5.630   4.060  13.868  0.00  0.00    +0.000 A 
ATOM     22  C   UNL     1       4.678   4.286  14.867  0.00  0.00    +0.000 A 
ENDBRANCH  16  17
BRANCH  16  23
ATOM     23  C   UNL     1       3.302   3.977  17.740  0.00  0.00    +0.000 A 
ATOM     24  C   UNL     1       4.092   2.949  18.287  0.00  0.00    +0.000 A 
ATOM     25  C   UNL     1       3.507   1.818  18.863  0.00  0.00    +0.000 A 
ATOM     26  C   UNL     1       2.121   1.700  18.916  0.00  0.00    +0.000 A 
ATOM     27  C   UNL     1       1.321   2.698  18.364  0.00  0.00    +0.000 A 
ATOM     28  C   UNL     1       1.906   3.816  17.766  0.00  0.00    +0.000 A 
ENDBRANCH  16  23
ENDBRANCH   6  16
TORSDOF 5
ENDMDL
MODEL 2
REMARK VINA RESULT:      -7.9      0.319      1.323
REMARK  Name = 
REMARK  5 active torsions:
REMARK  status: ('A' for Active; 'I' for Inactive)
REMARK    1  A    between atoms: C_2  and  O_3
REMARK    2  A    between atoms: O_3  and  C_4
REMARK    3  A    between atoms: N_13  and  C_14
REMARK    4  A    between atoms: C_14  and  C_15
REMARK    5  A    between atoms: C_14  and  C_21
REMARK                            x       y       z     vdW  Elec       q    Type
REMARK                         _______ _______ _______ _____ _____    ______ ____
ROOT
ATOM      1  O   UNL     1       0.842   8.319  20.963  0.00  0.00    +0.000 OA
ATOM      2  C   UNL     1       1.324   8.610  19.875  0.00  0.00    +0.000 C 
ATOM      3  N   UNL     1       2.084   7.744  19.112  0.00  0.00    +0.000 N 
ATOM      4  C   UNL     1       2.667   8.101  17.816  0.00  0.00    +0.000 C 
ATOM      5  C   UNL     1       4.162   7.725  17.743  0.00  0.00    +0.000 C 
ATOM      6  N   UNL     1       4.473   6.322  18.140  0.00  0.00    +0.000 NA
ATOM      7  C   UNL     1       3.912   6.123  19.500  0.00  0.00    +0.000 C 
ATOM      8  C   UNL     1       2.404   6.415  19.624  0.00  0.00    +0.000 C 
ENDROOT
BRANCH   2   9
ATOM      9  O   UNL     1       1.203   9.855  19.265  0.00  0.00    +0.000 OA
BRANCH   9  10
ATOM     10  C   UNL     1      -0.017  10.411  18.834  0.00  0.00    +0.000 A 
ATOM     11  C   UNL     1      -0.499  11.435  19.655  0.00  0.00    +0.000 A 
ATOM     12  C   UNL     1      -1.758  11.980  19.418  0.00  0.00    +0.000 A 
ATOM     13  C   UNL     1      -2.526  11.510  18.354  0.00  0.00    +0.000 A 
ATOM     14  C   UNL     1      -2.032  10.503  17.523  0.00  0.00    +0.000 A 
ATOM     15  C   UNL     1      -0.776   9.948  17.762  0.00  0.00    +0.000 A 
ENDBRANCH   9  10
ENDBRANCH   2   9
BRANCH   6  16
ATOM     16  C   UNL     1       3.958   5.340  17.138  0.00  0.00    +0.000 C 
BRANCH  16  17
ATOM     17  C   UNL     1       5.016   5.043  16.063  0.00  0.00    +0.000 A 
ATOM     18  C   UNL     1       4.683   4.384  14.865  0.00  0.00    +0.000 A 
ATOM     19  C   UNL     1       5.668   4.028  13.942  0.00  0.00    +0.000 A 
ATOM     20  C   UNL     1       7.005   4.298  14.213  0.00  0.00    +0.000 A 
ATOM     21  C   UNL     1       7.358   4.947  15.394  0.00  0.00    +0.000 A 
ATOM     22  C   UNL     1       6.371   5.327  16.309  0.00  0.00    +0.000 A 
ENDBRANCH  16  17
BRANCH  16  23
ATOM     23  C   UNL     1       3.378   4.056  17.748  0.00  0.00    +0.000 A 
ATOM     24  C   UNL     1       4.234   3.136  18.383  0.00  0.00    +0.000 A 
ATOM     25  C   UNL     1       3.733   1.969  18.968  0.00  0.00    +0.000 A 
ATOM     26  C   UNL     1       2.367   1.707  18.940  0.00  0.00    +0.000 A 
ATOM     27  C   UNL     1       1.505   2.594  18.301  0.00  0.00    +0.000 A 
ATOM     28  C   UNL     1       2.008   3.747  17.695  0.00  0.00    +0.000 A 
ENDBRANCH  16  23
ENDBRANCH   6  16
TORSDOF 5
ENDMDL
MODEL 3
REMARK VINA RESULT:      -7.8      0.263      1.305
REMARK  Name = 
REMARK  5 active torsions:
REMARK  status: ('A' for Active; 'I' for Inactive)
REMARK    1  A    between atoms: C_2  and  O_3
REMARK    2  A    between atoms: O_3  and  C_4
REMARK    3  A    between atoms: N_13  and  C_14
REMARK    4  A    between atoms: C_14  and  C_15
REMARK    5  A    between atoms: C_14  and  C_21
REMARK                            x       y       z     vdW  Elec       q    Type
REMARK                         _______ _______ _______ _____ _____    ______ ____
ROOT
ATOM      1  O   UNL     1       1.020   8.172  21.103  0.00  0.00    +0.000 OA
ATOM      2  C   UNL     1       1.435   8.478  19.991  0.00  0.00    +0.000 C 
ATOM      3  N   UNL     1       2.188   7.638  19.193  0.00  0.00    +0.000 N 
ATOM      4  C   UNL     1       2.693   8.012  17.869  0.00  0.00    +0.000 C 
ATOM      5  C   UNL     1       4.195   7.691  17.722  0.00  0.00    +0.000 C 
ATOM      6  N   UNL     1       4.576   6.302  18.105  0.00  0.00    +0.000 NA
ATOM      7  C   UNL     1       4.091   6.086  19.491  0.00  0.00    +0.000 C 
ATOM      8  C   UNL     1       2.582   6.323  19.690  0.00  0.00    +0.000 C 
ENDROOT
BRANCH   2   9
ATOM      9  O   UNL     1       1.238   9.715  19.387  0.00  0.00    +0.000 OA
BRANCH   9  10
ATOM     10  C   UNL     1      -0.023  10.309  19.191  0.00  0.00    +0.000 A 
ATOM     11  C   UNL     1      -0.661   9.920  18.010  0.00  0.00    +0.000 A 
ATOM     12  C   UNL     1      -1.853  10.531  17.630  0.00  0.00    +0.000 A 
ATOM     13  C   UNL     1      -2.410  11.521  18.437  0.00  0.00    +0.000 A 
ATOM     14  C   UNL     1      -1.782  11.891  19.628  0.00  0.00    +0.000 A 
ATOM     15  C   UNL     1      -0.585  11.288  20.008  0.00  0.00    +0.000 A 
ENDBRANCH   9  10
ENDBRANCH   2   9
BRANCH   6  16
ATOM     16  C   UNL     1       4.048   5.298  17.130  0.00  0.00    +0.000 C 
BRANCH  16  17
ATOM     17  C   UNL     1       5.070   5.023  16.015  0.00  0.00    +0.000 A 
ATOM     18  C   UNL     1       4.704   4.357  14.830  0.00  0.00    +0.000 A 
ATOM     19  C   UNL     1       5.659   4.022  13.870  0.00  0.00    +0.000 A 
ATOM     20  C   UNL     1       7.000   4.319  14.088  0.00  0.00    +0.000 A 
ATOM     21  C   UNL     1       7.386   4.974  15.256  0.00  0.00    +0.000 A 
ATOM     22  C   UNL     1       6.427   5.334  16.208  0.00  0.00    +0.000 A 
ENDBRANCH  16  17
BRANCH  16  23
ATOM     23  C   UNL     1       3.530   4.003  17.772  0.00  0.00    +0.000 A 
ATOM     24  C   UNL     1       2.186   3.625  17.594  0.00  0.00    +0.000 A 
ATOM     25  C   UNL     1       1.690   2.441  18.147  0.00  0.00    +0.000 A 
ATOM     26  C   UNL     1       2.531   1.606  18.875  0.00  0.00    +0.000 A 
ATOM     27  C   UNL     1       3.860   1.970  19.078  0.00  0.00    +0.000 A 
ATOM     28  C   UNL     1       4.349   3.165  18.547  0.00  0.00    +0.000 A 
ENDBRANCH  16  23
ENDBRANCH   6  16
TORSDOF 5
ENDMDL
MODEL 4
REMARK VINA RESULT:      -7.8      3.161      8.106
REMARK  Name = 
REMARK  5 active torsions:
REMARK  status: ('A' for Active; 'I' for Inactive)
REMARK    1  A    between atoms: C_2  and  O_3
REMARK    2  A    between atoms: O_3  and  C_4
REMARK    3  A    between atoms: N_13  and  C_14
REMARK    4  A    between atoms: C_14  and  C_15
REMARK    5  A    between atoms: C_14  and  C_21
REMARK                            x       y       z     vdW  Elec       q    Type
REMARK                         _______ _______ _______ _____ _____    ______ ____
ROOT
ATOM      1  O   UNL     1       6.825   6.195  13.826  0.00  0.00    +0.000 OA
ATOM      2  C   UNL     1       6.334   5.216  14.375  0.00  0.00    +0.000 C 
ATOM      3  N   UNL     1       5.456   5.289  15.439  0.00  0.00    +0.000 N 
ATOM      4  C   UNL     1       4.880   4.115  16.100  0.00  0.00    +0.000 C 
ATOM      5  C   UNL     1       5.021   4.200  17.634  0.00  0.00    +0.000 C 
ATOM      6  N   UNL     1       4.546   5.480  18.234  0.00  0.00    +0.000 NA
ATOM      7  C   UNL     1       5.272   6.577  17.544  0.00  0.00    +0.000 C 
ATOM      8  C   UNL     1       5.115   6.588  16.011  0.00  0.00    +0.000 C 
ENDROOT
BRANCH   2   9
ATOM      9  O   UNL     1       6.608   3.897  14.029  0.00  0.00    +0.000 OA
BRANCH   9  10
ATOM     10  C   UNL     1       6.146   3.273  12.854  0.00  0.00    +0.000 A 
ATOM     11  C   UNL     1       4.871   3.683  12.453  0.00  0.00    +0.000 A 
ATOM     12  C   UNL     1       4.242   3.050  11.384  0.00  0.00    +0.000 A 
ATOM     13  C   UNL     1       4.894   2.018  10.711  0.00  0.00    +0.000 A 
ATOM     14  C   UNL     1       6.176   1.627  11.100  0.00  0.00    +0.000 A 
ATOM     15  C   UNL     1       6.806   2.251  12.175  0.00  0.00    +0.000 A 
ENDBRANCH   9  10
ENDBRANCH   2   9
BRANCH   6  16
ATOM     16  C   UNL     1       3.059   5.609  18.149  0.00  0.00    +0.000 C 
BRANCH  16  17
ATOM     17  C   UNL     1       2.363   4.460  18.895  0.00  0.00    +0.000 A 
ATOM     18  C   UNL     1       2.778   4.057  20.178  0.00  0.00    +0.000 A 
ATOM     19  C   UNL     1       2.207   2.948  20.804  0.00  0.00    +0.000 A 
ATOM     20  C   UNL     1       1.232   2.204  20.148  0.00  0.00    +0.000 A 
ATOM     21  C   UNL     1       0.809   2.582  18.876  0.00  0.00    +0.000 A 
ATOM     22  C   UNL     1       1.361   3.708  18.257  0.00  0.00    +0.000 A 
ENDBRANCH  16  17
BRANCH  16  23
ATOM     23  C   UNL     1       2.517   6.983  18.569  0.00  0.00    +0.000 A 
ATOM     24  C   UNL     1       2.419   8.016  17.618  0.00  0.00    +0.000 A 
ATOM     25  C   UNL     1       1.909   9.270  17.965  0.00  0.00    +0.000 A 
ATOM     26  C   UNL     1       1.475   9.511  19.265  0.00  0.00    +0.000 A 
ATOM     27  C   UNL     1       1.580   8.509  20.226  0.00  0.00    +0.000 A 
ATOM     28  C   UNL     1       2.113   7.264  19.886  0.00  0.00    +0.000 A 
ENDBRANCH  16  23
ENDBRANCH   6  16
TORSDOF 5
ENDMDL
MODEL 5
REMARK VINA RESULT:      -7.7      3.155      8.195
REMARK  Name = 
REMARK  5 active torsions:
REMARK  status: ('A' for Active; 'I' for Inactive)
REMARK    1  A    between atoms: C_2  and  O_3
REMARK    2  A    between atoms: O_3  and  C_4
REMARK    3  A    between atoms: N_13  and  C_14
REMARK    4  A    between atoms: C_14  and  C_15
REMARK    5  A    between atoms: C_14  and  C_21
REMARK                            x       y       z     vdW  Elec       q    Type
REMARK                         _______ _______ _______ _____ _____    ______ ____
ROOT
ATOM      1  O   UNL     1       6.685   6.221  13.907  0.00  0.00    +0.000 OA
ATOM      2  C   UNL     1       6.236   5.232  14.474  0.00  0.00    +0.000 C 
ATOM      3  N   UNL     1       5.383   5.287  15.560  0.00  0.00    +0.000 N 
ATOM      4  C   UNL     1       4.857   4.101  16.241  0.00  0.00    +0.000 C 
ATOM      5  C   UNL     1       5.032   4.201  17.771  0.00  0.00    +0.000 C 
ATOM      6  N   UNL     1       4.537   5.471  18.375  0.00  0.00    +0.000 NA
ATOM      7  C   UNL     1       5.213   6.583  17.661  0.00  0.00    +0.000 C 
ATOM      8  C   UNL     1       5.019   6.580  16.132  0.00  0.00    +0.000 C 
ENDROOT
BRANCH   2   9
ATOM      9  O   UNL     1       6.538   3.919  14.130  0.00  0.00    +0.000 OA
BRANCH   9  10
ATOM     10  C   UNL     1       6.155   3.308  12.920  0.00  0.00    +0.000 A 
ATOM     11  C   UNL     1       4.854   3.616  12.512  0.00  0.00    +0.000 A 
ATOM     12  C   UNL     1       4.304   2.976  11.405  0.00  0.00    +0.000 A 
ATOM     13  C   UNL     1       5.059   2.040  10.701  0.00  0.00    +0.000 A 
ATOM     14  C   UNL     1       6.366   1.752  11.097  0.00  0.00    +0.000 A 
ATOM     15  C   UNL     1       6.918   2.384  12.211  0.00  0.00    +0.000 A 
ENDBRANCH   9  10
ENDBRANCH   2   9
BRANCH   6  16
ATOM     16  C   UNL     1       3.045   5.557  18.326  0.00  0.00    +0.000 C 
BRANCH  16  17
ATOM     17  C   UNL     1       2.401   4.476  19.209  0.00  0.00    +0.000 A 
ATOM     18  C   UNL     1       1.352   3.666  18.735  0.00  0.00    +0.000 A 
ATOM     19  C   UNL     1       0.707   2.759  19.576  0.00  0.00    +0.000 A 
ATOM     20  C   UNL     1       1.078   2.665  20.913  0.00  0.00    +0.000 A 
ATOM     21  C   UNL     1       2.111   3.459  21.405  0.00  0.00    +0.000 A 
ATOM     22  C   UNL     1       2.776   4.351  20.558  0.00  0.00    +0.000 A 
ENDBRANCH  16  17
BRANCH  16  23
ATOM     23  C   UNL     1       2.480   6.955  18.619  0.00  0.00    +0.000 A 
ATOM     24  C   UNL     1       2.127   7.303  19.936  0.00  0.00    +0.000 A 
ATOM     25  C   UNL     1       1.632   8.574  20.239  0.00  0.00    +0.000 A 
ATOM     26  C   UNL     1       1.494   9.526  19.233  0.00  0.00    +0.000 A 
ATOM     27  C   UNL     1       1.820   9.196  17.920  0.00  0.00    +0.000 A 
ATOM     28  C   UNL     1       2.291   7.918  17.613  0.00  0.00    +0.000 A 
ENDBRANCH  16  23
ENDBRANCH   6  16
TORSDOF 5
ENDMDL
MODEL 6
REMARK VINA RESULT:      -7.6      0.335      1.608
REMARK  Name = 
REMARK  5 active torsions:
REMARK  status: ('A' for Active; 'I' for Inactive)
REMARK    1  A    between atoms: C_2  and  O_3
REMARK    2  A    between atoms: O_3  and  C_4
REMARK    3  A    between atoms: N_13  and  C_14
REMARK    4  A    between atoms: C_14  and  C_15
REMARK    5  A    between atoms: C_14  and  C_21
REMARK                            x       y       z     vdW  Elec       q    Type
REMARK                         _______ _______ _______ _____ _____    ______ ____
ROOT
ATOM      1  O   UNL     1       0.875   8.343  21.015  0.00  0.00    +0.000 OA
ATOM      2  C   UNL     1       1.379   8.621  19.933  0.00  0.00    +0.000 C 
ATOM      3  N   UNL     1       2.124   7.734  19.180  0.00  0.00    +0.000 N 
ATOM      4  C   UNL     1       2.735   8.074  17.892  0.00  0.00    +0.000 C 
ATOM      5  C   UNL     1       4.219   7.657  17.838  0.00  0.00    +0.000 C 
ATOM      6  N   UNL     1       4.485   6.245  18.239  0.00  0.00    +0.000 NA
ATOM      7  C   UNL     1       3.901   6.061  19.591  0.00  0.00    +0.000 C 
ATOM      8  C   UNL     1       2.401   6.396  19.696  0.00  0.00    +0.000 C 
ENDROOT
BRANCH   2   9
ATOM      9  O   UNL     1       1.301   9.868  19.322  0.00  0.00    +0.000 OA
BRANCH   9  10
ATOM     10  C   UNL     1       0.141  10.666  19.295  0.00  0.00    +0.000 A 
ATOM     11  C   UNL     1       0.053  11.582  20.348  0.00  0.00    +0.000 A 
ATOM     12  C   UNL     1      -1.102  12.340  20.514  0.00  0.00    +0.000 A 
ATOM     13  C   UNL     1      -2.163  12.190  19.622  0.00  0.00    +0.000 A 
ATOM     14  C   UNL     1      -2.063  11.291  18.559  0.00  0.00    +0.000 A 
ATOM     15  C   UNL     1      -0.911  10.523  18.393  0.00  0.00    +0.000 A 
ENDBRANCH   9  10
ENDBRANCH   2   9
BRANCH   6  16
ATOM     16  C   UNL     1       3.956   5.278  17.229  0.00  0.00    +0.000 C 
BRANCH  16  17
ATOM     17  C   UNL     1       5.009   4.977  16.150  0.00  0.00    +0.000 A 
ATOM     18  C   UNL     1       4.653   4.400  14.916  0.00  0.00    +0.000 A 
ATOM     19  C   UNL     1       5.627   4.037  13.985  0.00  0.00    +0.000 A 
ATOM     20  C   UNL     1       6.974   4.216  14.281  0.00  0.00    +0.000 A 
ATOM     21  C   UNL     1       7.349   4.782  15.498  0.00  0.00    +0.000 A 
ATOM     22  C   UNL     1       6.374   5.171  16.422  0.00  0.00    +0.000 A 
ENDBRANCH  16  17
BRANCH  16  23
ATOM     23  C   UNL     1       3.361   3.996  17.830  0.00  0.00    +0.000 A 
ATOM     24  C   UNL     1       1.969   3.792  17.801  0.00  0.00    +0.000 A 
ATOM     25  C   UNL     1       1.399   2.626  18.319  0.00  0.00    +0.000 A 
ATOM     26  C   UNL     1       2.211   1.636  18.864  0.00  0.00    +0.000 A 
ATOM     27  C   UNL     1       3.590   1.826  18.920  0.00  0.00    +0.000 A 
ATOM     28  C   UNL     1       4.157   3.002  18.424  0.00  0.00    +0.000 A 
ENDBRANCH  16  23
ENDBRANCH   6  16
TORSDOF 5
ENDMDL
MODEL 7
REMARK VINA RESULT:      -7.6      0.528      1.089
REMARK  Name = 
REMARK  5 active torsions:
REMARK  status: ('A' for Active; 'I' for Inactive)
REMARK    1  A    between atoms: C_2  and  O_3
REMARK    2  A    between atoms: O_3  and  C_4
REMARK    3  A    between atoms: N_13  and  C_14
REMARK    4  A    between atoms: C_14  and  C_15
REMARK    5  A    between atoms: C_14  and  C_21
REMARK                            x       y       z     vdW  Elec       q    Type
REMARK                         _______ _______ _______ _____ _____    ______ ____
ROOT
ATOM      1  O   UNL     1       0.907   8.328  21.009  0.00  0.00    +0.000 OA
ATOM      2  C   UNL     1       1.414   8.601  19.927  0.00  0.00    +0.000 C 
ATOM      3  N   UNL     1       2.142   7.705  19.169  0.00  0.00    +0.000 N 
ATOM      4  C   UNL     1       2.757   8.040  17.882  0.00  0.00    +0.000 C 
ATOM      5  C   UNL     1       4.234   7.597  17.824  0.00  0.00    +0.000 C 
ATOM      6  N   UNL     1       4.476   6.180  18.219  0.00  0.00    +0.000 NA
ATOM      7  C   UNL     1       3.891   6.000  19.571  0.00  0.00    +0.000 C 
ATOM      8  C   UNL     1       2.396   6.360  19.679  0.00  0.00    +0.000 C 
ENDROOT
BRANCH   2   9
ATOM      9  O   UNL     1       1.356   9.852  19.322  0.00  0.00    +0.000 OA
BRANCH   9  10
ATOM     10  C   UNL     1       0.353  10.808  19.572  0.00  0.00    +0.000 A 
ATOM     11  C   UNL     1       0.703  11.767  20.527  0.00  0.00    +0.000 A 
ATOM     12  C   UNL     1      -0.244  12.690  20.963  0.00  0.00    +0.000 A 
ATOM     13  C   UNL     1      -1.533  12.661  20.435  0.00  0.00    +0.000 A 
ATOM     14  C   UNL     1      -1.873  11.716  19.465  0.00  0.00    +0.000 A 
ATOM     15  C   UNL     1      -0.931  10.784  19.031  0.00  0.00    +0.000 A 
ENDBRANCH   9  10
ENDBRANCH   2   9
BRANCH   6  16
ATOM     16  C   UNL     1       3.928   5.226  17.205  0.00  0.00    +0.000 C 
BRANCH  16  17
ATOM     17  C   UNL     1       5.002   4.842  16.174  0.00  0.00    +0.000 A 
ATOM     18  C   UNL     1       6.370   5.066  16.418  0.00  0.00    +0.000 A 
ATOM     19  C   UNL     1       7.327   4.808  15.436  0.00  0.00    +0.000 A 
ATOM     20  C   UNL     1       6.933   4.348  14.184  0.00  0.00    +0.000 A 
ATOM     21  C   UNL     1       5.584   4.123  13.919  0.00  0.00    +0.000 A 
ATOM     22  C   UNL     1       4.625   4.356  14.910  0.00  0.00    +0.000 A 
ENDBRANCH  16  17
BRANCH  16  23
ATOM     23  C   UNL     1       3.235   3.994  17.804  0.00  0.00    +0.000 A 
ATOM     24  C   UNL     1       4.009   2.957  18.358  0.00  0.00    +0.000 A 
ATOM     25  C   UNL     1       3.407   1.833  18.931  0.00  0.00    +0.000 A 
ATOM     26  C   UNL     1       2.020   1.731  18.973  0.00  0.00    +0.000 A 
ATOM     27  C   UNL     1       1.235   2.737  18.414  0.00  0.00    +0.000 A 
ATOM     28  C   UNL     1       1.837   3.848  17.819  0.00  0.00    +0.000 A 
ENDBRANCH  16  23
ENDBRANCH   6  16
TORSDOF 5
ENDMDL
MODEL 8
REMARK VINA RESULT:      -7.4      0.588      1.251
REMARK  Name = 
REMARK  5 active torsions:
REMARK  status: ('A' for Active; 'I' for Inactive)
REMARK    1  A    between atoms: C_2  and  O_3
REMARK    2  A    between atoms: O_3  and  C_4
REMARK    3  A    between atoms: N_13  and  C_14
REMARK    4  A    between atoms: C_14  and  C_15
REMARK    5  A    between atoms: C_14  and  C_21
REMARK                            x       y       z     vdW  Elec       q    Type
REMARK                         _______ _______ _______ _____ _____    ______ ____
ROOT
ATOM      1  O   UNL     1       0.842   8.186  21.086  0.00  0.00    +0.000 OA
ATOM      2  C   UNL     1       1.333   8.507  20.010  0.00  0.00    +0.000 C 
ATOM      3  N   UNL     1       2.089   7.659  19.224  0.00  0.00    +0.000 N 
ATOM      4  C   UNL     1       2.684   8.051  17.944  0.00  0.00    +0.000 C 
ATOM      5  C   UNL     1       4.175   7.663  17.868  0.00  0.00    +0.000 C 
ATOM      6  N   UNL     1       4.469   6.244  18.221  0.00  0.00    +0.000 NA
ATOM      7  C   UNL     1       3.898   6.007  19.571  0.00  0.00    +0.000 C 
ATOM      8  C   UNL     1       2.393   6.311  19.695  0.00  0.00    +0.000 C 
ENDROOT
BRANCH   2   9
ATOM      9  O   UNL     1       1.228   9.772  19.440  0.00  0.00    +0.000 OA
BRANCH   9  10
ATOM     10  C   UNL     1       0.407  10.801  19.940  0.00  0.00    +0.000 A 
ATOM     11  C   UNL     1      -0.904  10.773  19.455  0.00  0.00    +0.000 A 
ATOM     12  C   UNL     1      -1.781  11.808  19.766  0.00  0.00    +0.000 A 
ATOM     13  C   UNL     1      -1.351  12.862  20.570  0.00  0.00    +0.000 A 
ATOM     14  C   UNL     1      -0.049  12.875  21.071  0.00  0.00    +0.000 A 
ATOM     15  C   UNL     1       0.837  11.846  20.755  0.00  0.00    +0.000 A 
ENDBRANCH   9  10
ENDBRANCH   2   9
BRANCH   6  16
ATOM     16  C   UNL     1       3.951   5.300  17.184  0.00  0.00    +0.000 C 
BRANCH  16  17
ATOM     17  C   UNL     1       5.013   5.026  16.108  0.00  0.00    +0.000 A 
ATOM     18  C   UNL     1       4.682   4.407  14.888  0.00  0.00    +0.000 A 
ATOM     19  C   UNL     1       5.669   4.070  13.961  0.00  0.00    +0.000 A 
ATOM     20  C   UNL     1       7.007   4.320  14.247  0.00  0.00    +0.000 A 
ATOM     21  C   UNL     1       7.358   4.930  15.450  0.00  0.00    +0.000 A 
ATOM     22  C   UNL     1       6.369   5.291  16.370  0.00  0.00    +0.000 A 
ENDBRANCH  16  17
BRANCH  16  23
ATOM     23  C   UNL     1       3.353   4.004  17.750  0.00  0.00    +0.000 A 
ATOM     24  C   UNL     1       4.195   3.058  18.366  0.00  0.00    +0.000 A 
ATOM     25  C   UNL     1       3.678   1.878  18.909  0.00  0.00    +0.000 A 
ATOM     26  C   UNL     1       2.310   1.629  18.860  0.00  0.00    +0.000 A 
ATOM     27  C   UNL     1       1.462   2.542  18.239  0.00  0.00    +0.000 A 
ATOM     28  C   UNL     1       1.981   3.709  17.673  0.00  0.00    +0.000 A 
ENDBRANCH  16  23
ENDBRANCH   6  16
TORSDOF 5
ENDMDL
MODEL 9
REMARK VINA RESULT:      -7.4      2.936      7.776
REMARK  Name = 
REMARK  5 active torsions:
REMARK  status: ('A' for Active; 'I' for Inactive)
REMARK    1  A    between atoms: C_2  and  O_3
REMARK    2  A    between atoms: O_3  and  C_4
REMARK    3  A    between atoms: N_13  and  C_14
REMARK    4  A    between atoms: C_14  and  C_15
REMARK    5  A    between atoms: C_14  and  C_21
REMARK                            x       y       z     vdW  Elec       q    Type
REMARK                         _______ _______ _______ _____ _____    ______ ____
ROOT
ATOM      1  O   UNL     1       7.728   7.160  16.214  0.00  0.00    +0.000 OA
ATOM      2  C   UNL     1       7.127   6.093  16.243  0.00  0.00    +0.000 C 
ATOM      3  N   UNL     1       5.977   5.876  16.977  0.00  0.00    +0.000 N 
ATOM      4  C   UNL     1       5.267   4.594  17.017  0.00  0.00    +0.000 C 
ATOM      5  C   UNL     1       4.955   4.162  18.465  0.00  0.00    +0.000 C 
ATOM      6  N   UNL     1       4.292   5.205  19.298  0.00  0.00    +0.000 NA
ATOM      7  C   UNL     1       5.155   6.412  19.249  0.00  0.00    +0.000 C 
ATOM      8  C   UNL     1       5.449   6.937  17.830  0.00  0.00    +0.000 C 
ENDROOT
BRANCH   2   9
ATOM      9  O   UNL     1       7.525   4.944  15.568  0.00  0.00    +0.000 OA
BRANCH   9  10
ATOM     10  C   UNL     1       7.238   4.679  14.215  0.00  0.00    +0.000 A 
ATOM     11  C   UNL     1       6.244   3.716  14.020  0.00  0.00    +0.000 A 
ATOM     12  C   UNL     1       5.957   3.265  12.735  0.00  0.00    +0.000 A 
ATOM     13  C   UNL     1       6.654   3.787  11.647  0.00  0.00    +0.000 A 
ATOM     14  C   UNL     1       7.630   4.765  11.843  0.00  0.00    +0.000 A 
ATOM     15  C   UNL     1       7.928   5.213  13.129  0.00  0.00    +0.000 A 
ENDBRANCH   9  10
ENDBRANCH   2   9
BRANCH   6  16
ATOM     16  C   UNL     1       2.890   5.461  18.846  0.00  0.00    +0.000 C 
BRANCH  16  17
ATOM     17  C   UNL     1       1.969   4.289  19.218  0.00  0.00    +0.000 A 
ATOM     18  C   UNL     1       1.811   3.871  20.552  0.00  0.00    +0.000 A 
ATOM     19  C   UNL     1       1.053   2.743  20.869  0.00  0.00    +0.000 A 
ATOM     20  C   UNL     1       0.463   1.995  19.855  0.00  0.00    +0.000 A 
ATOM     21  C   UNL     1       0.608   2.388  18.527  0.00  0.00    +0.000 A 
ATOM     22  C   UNL     1       1.347   3.532  18.209  0.00  0.00    +0.000 A 
ENDBRANCH  16  17
BRANCH  16  23
ATOM     23  C   UNL     1       2.316   6.813  19.296  0.00  0.00    +0.000 A 
ATOM     24  C   UNL     1       2.155   7.850  18.358  0.00  0.00    +0.000 A 
ATOM     25  C   UNL     1       1.614   9.083  18.732  0.00  0.00    +0.000 A 
ATOM     26  C   UNL     1       1.212   9.298  20.046  0.00  0.00    +0.000 A 
ATOM     27  C   UNL     1       1.379   8.292  20.994  0.00  0.00    +0.000 A 
ATOM     28  C   UNL     1       1.943   7.068  20.626  0.00  0.00    +0.000 A 
ENDBRANCH  16  23
ENDBRANCH   6  16
TORSDOF 5
ENDMDL
