MODEL 1
REMARK VINA RESULT:      -6.4      0.000      0.000
REMARK  Name = 
REMARK  13 active torsions:
REMARK  status: ('A' for Active; 'I' for Inactive)
REMARK    1  A    between atoms: C_1  and  C_2
REMARK    2  A    between atoms: C_2  and  C_3
REMARK    3  A    between atoms: C_3  and  C_4
REMARK    4  A    between atoms: C_4  and  C_5
REMARK    5  A    between atoms: C_5  and  C_6
REMARK    6  A    between atoms: C_5  and  C_7
REMARK    7  A    between atoms: C_12  and  C_13
REMARK    8  A    between atoms: C_13  and  C_14
REMARK    9  A    between atoms: C_23  and  C_24
REMARK   10  A    between atoms: C_28  and  C_29
REMARK   11  A    between atoms: C_29  and  C_30
REMARK   12  A    between atoms: C_30  and  C_31
REMARK   13  A    between atoms: C_30  and  C_32
REMARK                            x       y       z     vdW  Elec       q    Type
REMARK                         _______ _______ _______ _____ _____    ______ ____
ROOT
ATOM      1  C   UNL     1       0.744  11.661  19.894  0.00  0.00    +0.000 C 
ATOM      2  C   UNL     1       0.628  11.011  21.290  0.00  0.00    +0.000 C 
ATOM      3  C   UNL     1      -0.734  11.379  21.829  0.00  0.00    +0.000 C 
ATOM      4  O   UNL     1      -1.762  10.833  21.443  0.00  0.00    +0.000 OA
ATOM      5  N   UNL     1      -0.740  12.483  22.611  0.00  0.00    +0.000 N 
ATOM      6  C   UNL     1      -1.939  13.320  22.727  0.00  0.00    +0.000 C 
ATOM      7  C   UNL     1      -1.307  14.631  23.185  0.00  0.00    +0.000 C 
ATOM      8  O   UNL     1      -0.622  14.685  24.208  0.00  0.00    +0.000 OA
ATOM      9  N   UNL     1      -1.333  15.606  22.221  0.00  0.00    +0.000 N 
ATOM     10  C   UNL     1      -0.246  16.540  21.944  0.00  0.00    +0.000 C 
ATOM     11  C   UNL     1       0.872  16.641  22.975  0.00  0.00    +0.000 C 
ATOM     12  C   UNL     1       0.299  16.171  20.542  0.00  0.00    +0.000 C 
ATOM     13  O   UNL     1      -0.092  16.759  19.535  0.00  0.00    +0.000 OA
ATOM     14  N   UNL     1       1.143  15.077  20.468  0.00  0.00    +0.000 N 
ATOM     15  C   UNL     1       1.986  14.831  19.278  0.00  0.00    +0.000 C 
ATOM     16  C   UNL     1       2.124  13.342  18.900  0.00  0.00    +0.000 C 
ATOM     17  O   UNL     1       2.537  12.948  17.817  0.00  0.00    +0.000 OA
ATOM     18  O   UNL     1       1.925  12.502  19.954  0.00  0.00    +0.000 OA
ATOM     19  H   UNL     1       0.077  12.747  23.149  0.00  0.00    +0.000 HD
ATOM     20  H   UNL     1      -2.017  15.519  21.474  0.00  0.00    +0.000 HD
ATOM     21  H   UNL     1       1.349  14.547  21.304  0.00  0.00    +0.000 HD
ENDROOT
BRANCH   1  22
ATOM     22  C   UNL     1       0.720  10.617  18.737  0.00  0.00    +0.000 C 
ATOM     23  C   UNL     1      -0.721  10.412  18.231  0.00  0.00    +0.000 C 
BRANCH  22  24
ATOM     24  C   UNL     1       1.404   9.287  19.122  0.00  0.00    +0.000 C 
BRANCH  24  25
ATOM     25  C   UNL     1       2.239   8.702  17.982  0.00  0.00    +0.000 C 
BRANCH  25  27
ATOM     26  C   UNL     1       2.408   6.857  19.645  0.00  0.00    +0.000 C 
ATOM     27  C   UNL     1       2.521   7.215  18.171  0.00  0.00    +0.000 C 
ENDBRANCH  25  27
ENDBRANCH  24  25
ENDBRANCH  22  24
ENDBRANCH   1  22
BRANCH   6  28
ATOM     28  C   UNL     1      -2.989  12.762  23.677  0.00  0.00    +0.000 C 
BRANCH  28  29
ATOM     29  C   UNL     1      -4.394  12.810  23.125  0.00  0.00    +0.000 A 
ATOM     30  C   UNL     1      -5.512  12.900  23.969  0.00  0.00    +0.000 A 
ATOM     31  C   UNL     1      -6.794  13.031  23.429  0.00  0.00    +0.000 A 
ATOM     32  C   UNL     1      -6.974  13.051  22.047  0.00  0.00    +0.000 A 
ATOM     33  C   UNL     1      -5.874  12.924  21.202  0.00  0.00    +0.000 A 
ATOM     34  C   UNL     1      -4.593  12.801  21.738  0.00  0.00    +0.000 A 
ENDBRANCH  28  29
ENDBRANCH   6  28
BRANCH  15  35
ATOM     35  C   UNL     1       3.370  15.450  19.558  0.00  0.00    +0.000 C 
BRANCH  35  36
ATOM     36  C   UNL     1       4.108  16.097  18.369  0.00  0.00    +0.000 C 
ATOM     37  C   UNL     1       5.144  15.173  17.731  0.00  0.00    +0.000 C 
ATOM     38  C   UNL     1       3.089  16.529  17.309  0.00  0.00    +0.000 C 
ENDBRANCH  35  36
ENDBRANCH  15  35
TORSDOF 8
ENDMDL
MODEL 2
REMARK VINA RESULT:      -6.3      0.326      1.042
REMARK  Name = 
REMARK  13 active torsions:
REMARK  status: ('A' for Active; 'I' for Inactive)
REMARK    1  A    between atoms: C_1  and  C_2
REMARK    2  A    between atoms: C_2  and  C_3
REMARK    3  A    between atoms: C_3  and  C_4
REMARK    4  A    between atoms: C_4  and  C_5
REMARK    5  A    between atoms: C_5  and  C_6
REMARK    6  A    between atoms: C_5  and  C_7
REMARK    7  A    between atoms: C_12  and  C_13
REMARK    8  A    between atoms: C_13  and  C_14
REMARK    9  A    between atoms: C_23  and  C_24
REMARK   10  A    between atoms: C_28  and  C_29
REMARK   11  A    between atoms: C_29  and  C_30
REMARK   12  A    between atoms: C_30  and  C_31
REMARK   13  A    between atoms: C_30  and  C_32
REMARK                            x       y       z     vdW  Elec       q    Type
REMARK                         _______ _______ _______ _____ _____    ______ ____
ROOT
ATOM      1  C   UNL     1       0.653  11.758  19.874  0.00  0.00    +0.000 C 
ATOM      2  C   UNL     1       0.585  11.109  21.273  0.00  0.00    +0.000 C 
ATOM      3  C   UNL     1      -0.764  11.461  21.852  0.00  0.00    +0.000 C 
ATOM      4  O   UNL     1      -1.798  10.903  21.496  0.00  0.00    +0.000 OA
ATOM      5  N   UNL     1      -0.761  12.565  22.633  0.00  0.00    +0.000 N 
ATOM      6  C   UNL     1      -1.965  13.388  22.784  0.00  0.00    +0.000 C 
ATOM      7  C   UNL     1      -1.335  14.707  23.223  0.00  0.00    +0.000 C 
ATOM      8  O   UNL     1      -0.621  14.770  24.226  0.00  0.00    +0.000 OA
ATOM      9  N   UNL     1      -1.400  15.682  22.260  0.00  0.00    +0.000 N 
ATOM     10  C   UNL     1      -0.332  16.628  21.951  0.00  0.00    +0.000 C 
ATOM     11  C   UNL     1       0.814  16.742  22.948  0.00  0.00    +0.000 C 
ATOM     12  C   UNL     1       0.175  16.263  20.533  0.00  0.00    +0.000 C 
ATOM     13  O   UNL     1      -0.252  16.847  19.538  0.00  0.00    +0.000 OA
ATOM     14  N   UNL     1       1.029  15.180  20.434  0.00  0.00    +0.000 N 
ATOM     15  C   UNL     1       1.839  14.942  19.220  0.00  0.00    +0.000 C 
ATOM     16  C   UNL     1       1.983  13.455  18.839  0.00  0.00    +0.000 C 
ATOM     17  O   UNL     1       2.368  13.065  17.744  0.00  0.00    +0.000 OA
ATOM     18  O   UNL     1       1.825  12.613  19.899  0.00  0.00    +0.000 OA
ATOM     19  H   UNL     1       0.070  12.839  23.147  0.00  0.00    +0.000 HD
ATOM     20  H   UNL     1      -2.105  15.586  21.533  0.00  0.00    +0.000 HD
ATOM     21  H   UNL     1       1.266  14.652  21.264  0.00  0.00    +0.000 HD
ENDROOT
BRANCH   1  22
ATOM     22  C   UNL     1       0.606  10.713  18.719  0.00  0.00    +0.000 C 
ATOM     23  C   UNL     1      -0.847  10.488  18.259  0.00  0.00    +0.000 C 
BRANCH  22  24
ATOM     24  C   UNL     1       1.320   9.394  19.082  0.00  0.00    +0.000 C 
BRANCH  24  25
ATOM     25  C   UNL     1       1.909   8.686  17.860  0.00  0.00    +0.000 C 
BRANCH  25  27
ATOM     26  C   UNL     1       2.339   6.976  19.617  0.00  0.00    +0.000 C 
ATOM     27  C   UNL     1       2.750   7.472  18.239  0.00  0.00    +0.000 C 
ENDBRANCH  25  27
ENDBRANCH  24  25
ENDBRANCH  22  24
ENDBRANCH   1  22
BRANCH   6  28
ATOM     28  C   UNL     1      -2.979  12.820  23.765  0.00  0.00    +0.000 C 
BRANCH  28  29
ATOM     29  C   UNL     1      -4.398  12.830  23.246  0.00  0.00    +0.000 A 
ATOM     30  C   UNL     1      -4.678  12.831  21.871  0.00  0.00    +0.000 A 
ATOM     31  C   UNL     1      -5.998  12.751  21.420  0.00  0.00    +0.000 A 
ATOM     32  C   UNL     1      -7.049  12.692  22.334  0.00  0.00    +0.000 A 
ATOM     33  C   UNL     1      -6.783  12.728  23.700  0.00  0.00    +0.000 A 
ATOM     34  C   UNL     1      -5.466  12.800  24.153  0.00  0.00    +0.000 A 
ENDBRANCH  28  29
ENDBRANCH   6  28
BRANCH  15  35
ATOM     35  C   UNL     1       3.224  15.577  19.459  0.00  0.00    +0.000 C 
BRANCH  35  36
ATOM     36  C   UNL     1       4.010  16.044  18.218  0.00  0.00    +0.000 C 
ATOM     37  C   UNL     1       3.160  16.846  17.235  0.00  0.00    +0.000 C 
ATOM     38  C   UNL     1       5.210  16.888  18.661  0.00  0.00    +0.000 C 
ENDBRANCH  35  36
ENDBRANCH  15  35
TORSDOF 8
ENDMDL
MODEL 3
REMARK VINA RESULT:      -6.2      1.356      1.659
REMARK  Name = 
REMARK  13 active torsions:
REMARK  status: ('A' for Active; 'I' for Inactive)
REMARK    1  A    between atoms: C_1  and  C_2
REMARK    2  A    between atoms: C_2  and  C_3
REMARK    3  A    between atoms: C_3  and  C_4
REMARK    4  A    between atoms: C_4  and  C_5
REMARK    5  A    between atoms: C_5  and  C_6
REMARK    6  A    between atoms: C_5  and  C_7
REMARK    7  A    between atoms: C_12  and  C_13
REMARK    8  A    between atoms: C_13  and  C_14
REMARK    9  A    between atoms: C_23  and  C_24
REMARK   10  A    between atoms: C_28  and  C_29
REMARK   11  A    between atoms: C_29  and  C_30
REMARK   12  A    between atoms: C_30  and  C_31
REMARK   13  A    between atoms: C_30  and  C_32
REMARK                            x       y       z     vdW  Elec       q    Type
REMARK                         _______ _______ _______ _____ _____    ______ ____
ROOT
ATOM      1  C   UNL     1      -0.165  12.270  20.571  0.00  0.00    +0.000 C 
ATOM      2  C   UNL     1      -0.293  11.698  22.000  0.00  0.00    +0.000 C 
ATOM      3  C   UNL     1      -1.481  12.380  22.637  0.00  0.00    +0.000 C 
ATOM      4  O   UNL     1      -2.638  12.072  22.364  0.00  0.00    +0.000 OA
ATOM      5  N   UNL     1      -1.167  13.475  23.365  0.00  0.00    +0.000 N 
ATOM      6  C   UNL     1      -2.132  14.564  23.545  0.00  0.00    +0.000 C 
ATOM      7  C   UNL     1      -1.182  15.709  23.888  0.00  0.00    +0.000 C 
ATOM      8  O   UNL     1      -0.410  15.631  24.846  0.00  0.00    +0.000 OA
ATOM      9  N   UNL     1      -1.078  16.640  22.887  0.00  0.00    +0.000 N 
ATOM     10  C   UNL     1       0.160  17.296  22.477  0.00  0.00    +0.000 C 
ATOM     11  C   UNL     1       1.363  17.165  23.402  0.00  0.00    +0.000 C 
ATOM     12  C   UNL     1       0.474  16.778  21.051  0.00  0.00    +0.000 C 
ATOM     13  O   UNL     1       0.133  17.415  20.056  0.00  0.00    +0.000 OA
ATOM     14  N   UNL     1       1.041  15.520  20.954  0.00  0.00    +0.000 N 
ATOM     15  C   UNL     1       1.692  15.059  19.709  0.00  0.00    +0.000 C 
ATOM     16  C   UNL     1       1.457  13.569  19.388  0.00  0.00    +0.000 C 
ATOM     17  O   UNL     1       1.668  13.065  18.292  0.00  0.00    +0.000 OA
ATOM     18  O   UNL     1       1.174  12.822  20.492  0.00  0.00    +0.000 OA
ATOM     19  H   UNL     1      -0.264  13.559  23.819  0.00  0.00    +0.000 HD
ATOM     20  H   UNL     1      -1.832  16.693  22.206  0.00  0.00    +0.000 HD
ATOM     21  H   UNL     1       1.200  14.976  21.792  0.00  0.00    +0.000 HD
ENDROOT
BRANCH   1  22
ATOM     22  C   UNL     1      -0.531  11.231  19.469  0.00  0.00    +0.000 C 
ATOM     23  C   UNL     1      -1.956  11.489  18.942  0.00  0.00    +0.000 C 
BRANCH  22  24
ATOM     24  C   UNL     1      -0.331   9.773  19.936  0.00  0.00    +0.000 C 
BRANCH  24  25
ATOM     25  C   UNL     1       1.083   9.256  19.663  0.00  0.00    +0.000 C 
BRANCH  25  27
ATOM     26  C   UNL     1       2.481   8.325  17.825  0.00  0.00    +0.000 C 
ATOM     27  C   UNL     1       1.488   9.414  18.201  0.00  0.00    +0.000 C 
ENDBRANCH  25  27
ENDBRANCH  24  25
ENDBRANCH  22  24
ENDBRANCH   1  22
BRANCH   6  28
ATOM     28  C   UNL     1      -3.186  14.284  24.606  0.00  0.00    +0.000 C 
BRANCH  28  29
ATOM     29  C   UNL     1      -4.591  14.632  24.174  0.00  0.00    +0.000 A 
ATOM     30  C   UNL     1      -5.023  15.964  24.084  0.00  0.00    +0.000 A 
ATOM     31  C   UNL     1      -6.300  16.260  23.597  0.00  0.00    +0.000 A 
ATOM     32  C   UNL     1      -7.161  15.231  23.218  0.00  0.00    +0.000 A 
ATOM     33  C   UNL     1      -6.753  13.905  23.339  0.00  0.00    +0.000 A 
ATOM     34  C   UNL     1      -5.478  13.607  23.817  0.00  0.00    +0.000 A 
ENDBRANCH  28  29
ENDBRANCH   6  28
BRANCH  15  35
ATOM     35  C   UNL     1       3.200  15.354  19.841  0.00  0.00    +0.000 C 
BRANCH  35  36
ATOM     36  C   UNL     1       3.907  15.978  18.622  0.00  0.00    +0.000 C 
ATOM     37  C   UNL     1       4.733  14.971  17.825  0.00  0.00    +0.000 C 
ATOM     38  C   UNL     1       2.865  16.624  17.703  0.00  0.00    +0.000 C 
ENDBRANCH  35  36
ENDBRANCH  15  35
TORSDOF 8
ENDMDL
MODEL 4
REMARK VINA RESULT:      -6.1      0.715      1.297
REMARK  Name = 
REMARK  13 active torsions:
REMARK  status: ('A' for Active; 'I' for Inactive)
REMARK    1  A    between atoms: C_1  and  C_2
REMARK    2  A    between atoms: C_2  and  C_3
REMARK    3  A    between atoms: C_3  and  C_4
REMARK    4  A    between atoms: C_4  and  C_5
REMARK    5  A    between atoms: C_5  and  C_6
REMARK    6  A    between atoms: C_5  and  C_7
REMARK    7  A    between atoms: C_12  and  C_13
REMARK    8  A    between atoms: C_13  and  C_14
REMARK    9  A    between atoms: C_23  and  C_24
REMARK   10  A    between atoms: C_28  and  C_29
REMARK   11  A    between atoms: C_29  and  C_30
REMARK   12  A    between atoms: C_30  and  C_31
REMARK   13  A    between atoms: C_30  and  C_32
REMARK                            x       y       z     vdW  Elec       q    Type
REMARK                         _______ _______ _______ _____ _____    ______ ____
ROOT
ATOM      1  C   UNL     1       0.741  11.784  19.780  0.00  0.00    +0.000 C 
ATOM      2  C   UNL     1       0.732  11.170  21.198  0.00  0.00    +0.000 C 
ATOM      3  C   UNL     1      -0.615  11.489  21.801  0.00  0.00    +0.000 C 
ATOM      4  O   UNL     1      -1.636  10.885  21.486  0.00  0.00    +0.000 OA
ATOM      5  N   UNL     1      -0.633  12.613  22.553  0.00  0.00    +0.000 N 
ATOM      6  C   UNL     1      -1.862  13.397  22.712  0.00  0.00    +0.000 C 
ATOM      7  C   UNL     1      -1.270  14.749  23.101  0.00  0.00    +0.000 C 
ATOM      8  O   UNL     1      -0.535  14.864  24.083  0.00  0.00    +0.000 OA
ATOM      9  N   UNL     1      -1.394  15.694  22.114  0.00  0.00    +0.000 N 
ATOM     10  C   UNL     1      -0.369  16.669  21.754  0.00  0.00    +0.000 C 
ATOM     11  C   UNL     1       0.796  16.850  22.719  0.00  0.00    +0.000 C 
ATOM     12  C   UNL     1       0.116  16.285  20.334  0.00  0.00    +0.000 C 
ATOM     13  O   UNL     1      -0.356  16.825  19.336  0.00  0.00    +0.000 OA
ATOM     14  N   UNL     1       1.006  15.230  20.242  0.00  0.00    +0.000 N 
ATOM     15  C   UNL     1       1.795  14.989  19.015  0.00  0.00    +0.000 C 
ATOM     16  C   UNL     1       1.984  13.498  18.669  0.00  0.00    +0.000 C 
ATOM     17  O   UNL     1       2.356  13.093  17.575  0.00  0.00    +0.000 OA
ATOM     18  O   UNL     1       1.882  12.680  19.753  0.00  0.00    +0.000 OA
ATOM     19  H   UNL     1       0.199  12.930  23.038  0.00  0.00    +0.000 HD
ATOM     20  H   UNL     1      -2.113  15.554  21.409  0.00  0.00    +0.000 HD
ATOM     21  H   UNL     1       1.283  14.733  21.079  0.00  0.00    +0.000 HD
ENDROOT
BRANCH   1  22
ATOM     22  C   UNL     1       0.705  10.707  18.654  0.00  0.00    +0.000 C 
ATOM     23  C   UNL     1      -0.747  10.452  18.204  0.00  0.00    +0.000 C 
BRANCH  22  24
ATOM     24  C   UNL     1       1.435   9.406  19.052  0.00  0.00    +0.000 C 
BRANCH  24  25
ATOM     25  C   UNL     1       1.838   8.562  17.841  0.00  0.00    +0.000 C 
BRANCH  25  27
ATOM     26  C   UNL     1       2.463   6.180  18.210  0.00  0.00    +0.000 C 
ATOM     27  C   UNL     1       2.986   7.608  18.153  0.00  0.00    +0.000 C 
ENDBRANCH  25  27
ENDBRANCH  24  25
ENDBRANCH  22  24
ENDBRANCH   1  22
BRANCH   6  28
ATOM     28  C   UNL     1      -2.831  12.819  23.733  0.00  0.00    +0.000 C 
BRANCH  28  29
ATOM     29  C   UNL     1      -4.270  12.820  23.274  0.00  0.00    +0.000 A 
ATOM     30  C   UNL     1      -4.607  12.813  21.911  0.00  0.00    +0.000 A 
ATOM     31  C   UNL     1      -5.944  12.725  21.516  0.00  0.00    +0.000 A 
ATOM     32  C   UNL     1      -6.956  12.666  22.473  0.00  0.00    +0.000 A 
ATOM     33  C   UNL     1      -6.633  12.711  23.827  0.00  0.00    +0.000 A 
ATOM     34  C   UNL     1      -5.299  12.791  24.225  0.00  0.00    +0.000 A 
ENDBRANCH  28  29
ENDBRANCH   6  28
BRANCH  15  35
ATOM     35  C   UNL     1       3.161  15.679  19.202  0.00  0.00    +0.000 C 
BRANCH  35  36
ATOM     36  C   UNL     1       3.708  15.786  20.638  0.00  0.00    +0.000 C 
ATOM     37  C   UNL     1       4.901  14.868  20.898  0.00  0.00    +0.000 C 
ATOM     38  C   UNL     1       4.110  17.237  20.926  0.00  0.00    +0.000 C 
ENDBRANCH  35  36
ENDBRANCH  15  35
TORSDOF 8
ENDMDL
MODEL 5
REMARK VINA RESULT:      -6.1      2.973      7.469
REMARK  Name = 
REMARK  13 active torsions:
REMARK  status: ('A' for Active; 'I' for Inactive)
REMARK    1  A    between atoms: C_1  and  C_2
REMARK    2  A    between atoms: C_2  and  C_3
REMARK    3  A    between atoms: C_3  and  C_4
REMARK    4  A    between atoms: C_4  and  C_5
REMARK    5  A    between atoms: C_5  and  C_6
REMARK    6  A    between atoms: C_5  and  C_7
REMARK    7  A    between atoms: C_12  and  C_13
REMARK    8  A    between atoms: C_13  and  C_14
REMARK    9  A    between atoms: C_23  and  C_24
REMARK   10  A    between atoms: C_28  and  C_29
REMARK   11  A    between atoms: C_29  and  C_30
REMARK   12  A    between atoms: C_30  and  C_31
REMARK   13  A    between atoms: C_30  and  C_32
REMARK                            x       y       z     vdW  Elec       q    Type
REMARK                         _______ _______ _______ _____ _____    ______ ____
ROOT
ATOM      1  C   UNL     1      -3.449  11.524  18.458  0.00  0.00    +0.000 C 
ATOM      2  C   UNL     1      -2.174  12.001  17.728  0.00  0.00    +0.000 C 
ATOM      3  C   UNL     1      -1.030  11.177  18.268  0.00  0.00    +0.000 C 
ATOM      4  O   UNL     1      -0.841  10.013  17.927  0.00  0.00    +0.000 OA
ATOM      5  N   UNL     1      -0.365  11.757  19.293  0.00  0.00    +0.000 N 
ATOM      6  C   UNL     1       0.325  10.946  20.301  0.00  0.00    +0.000 C 
ATOM      7  C   UNL     1       0.387  11.945  21.453  0.00  0.00    +0.000 C 
ATOM      8  O   UNL     1       0.928  13.044  21.315  0.00  0.00    +0.000 OA
ATOM      9  N   UNL     1      -0.447  11.620  22.492  0.00  0.00    +0.000 N 
ATOM     10  C   UNL     1      -1.243  12.574  23.257  0.00  0.00    +0.000 C 
ATOM     11  C   UNL     1      -0.915  14.053  23.094  0.00  0.00    +0.000 C 
ATOM     12  C   UNL     1      -2.725  12.275  22.916  0.00  0.00    +0.000 C 
ATOM     13  O   UNL     1      -3.407  11.549  23.637  0.00  0.00    +0.000 OA
ATOM     14  N   UNL     1      -3.198  12.760  21.710  0.00  0.00    +0.000 N 
ATOM     15  C   UNL     1      -4.647  12.842  21.425  0.00  0.00    +0.000 C 
ATOM     16  C   UNL     1      -5.023  12.505  19.968  0.00  0.00    +0.000 C 
ATOM     17  O   UNL     1      -6.162  12.248  19.599  0.00  0.00    +0.000 OA
ATOM     18  O   UNL     1      -4.001  12.708  19.091  0.00  0.00    +0.000 OA
ATOM     19  H   UNL     1      -0.313  12.766  19.379  0.00  0.00    +0.000 HD
ATOM     20  H   UNL     1      -0.748  10.652  22.576  0.00  0.00    +0.000 HD
ATOM     21  H   UNL     1      -2.572  13.254  21.089  0.00  0.00    +0.000 HD
ENDROOT
BRANCH   1  22
ATOM     22  C   UNL     1      -4.424  10.743  17.526  0.00  0.00    +0.000 C 
ATOM     23  C   UNL     1      -4.456   9.252  17.915  0.00  0.00    +0.000 C 
BRANCH  22  24
ATOM     24  C   UNL     1      -4.112  10.955  16.029  0.00  0.00    +0.000 C 
BRANCH  24  25
ATOM     25  C   UNL     1      -3.309   9.800  15.426  0.00  0.00    +0.000 C 
BRANCH  25  27
ATOM     26  C   UNL     1      -4.237   9.849  13.116  0.00  0.00    +0.000 C 
ATOM     27  C   UNL     1      -2.980  10.027  13.954  0.00  0.00    +0.000 C 
ENDBRANCH  25  27
ENDBRANCH  24  25
ENDBRANCH  22  24
ENDBRANCH   1  22
BRANCH   6  28
ATOM     28  C   UNL     1       1.681  10.425  19.848  0.00  0.00    +0.000 C 
BRANCH  28  29
ATOM     29  C   UNL     1       1.751   8.919  19.743  0.00  0.00    +0.000 A 
ATOM     30  C   UNL     1       2.193   8.284  18.573  0.00  0.00    +0.000 A 
ATOM     31  C   UNL     1       2.331   6.893  18.536  0.00  0.00    +0.000 A 
ATOM     32  C   UNL     1       2.007   6.126  19.654  0.00  0.00    +0.000 A 
ATOM     33  C   UNL     1       1.531   6.746  20.806  0.00  0.00    +0.000 A 
ATOM     34  C   UNL     1       1.401   8.134  20.850  0.00  0.00    +0.000 A 
ENDBRANCH  28  29
ENDBRANCH   6  28
BRANCH  15  35
ATOM     35  C   UNL     1      -5.108  14.268  21.788  0.00  0.00    +0.000 C 
BRANCH  35  36
ATOM     36  C   UNL     1      -6.169  14.406  22.897  0.00  0.00    +0.000 C 
ATOM     37  C   UNL     1      -7.394  15.207  22.460  0.00  0.00    +0.000 C 
ATOM     38  C   UNL     1      -6.610  13.013  23.360  0.00  0.00    +0.000 C 
ENDBRANCH  35  36
ENDBRANCH  15  35
TORSDOF 8
ENDMDL
MODEL 6
REMARK VINA RESULT:      -6.1      1.467      6.829
REMARK  Name = 
REMARK  13 active torsions:
REMARK  status: ('A' for Active; 'I' for Inactive)
REMARK    1  A    between atoms: C_1  and  C_2
REMARK    2  A    between atoms: C_2  and  C_3
REMARK    3  A    between atoms: C_3  and  C_4
REMARK    4  A    between atoms: C_4  and  C_5
REMARK    5  A    between atoms: C_5  and  C_6
REMARK    6  A    between atoms: C_5  and  C_7
REMARK    7  A    between atoms: C_12  and  C_13
REMARK    8  A    between atoms: C_13  and  C_14
REMARK    9  A    between atoms: C_23  and  C_24
REMARK   10  A    between atoms: C_28  and  C_29
REMARK   11  A    between atoms: C_29  and  C_30
REMARK   12  A    between atoms: C_30  and  C_31
REMARK   13  A    between atoms: C_30  and  C_32
REMARK                            x       y       z     vdW  Elec       q    Type
REMARK                         _______ _______ _______ _____ _____    ______ ____
ROOT
ATOM      1  C   UNL     1      -0.887  12.069  20.567  0.00  0.00    +0.000 C 
ATOM      2  C   UNL     1      -1.195  12.646  19.168  0.00  0.00    +0.000 C 
ATOM      3  C   UNL     1      -0.146  13.695  18.889  0.00  0.00    +0.000 C 
ATOM      4  O   UNL     1       1.002  13.406  18.564  0.00  0.00    +0.000 OA
ATOM      5  N   UNL     1      -0.518  14.952  19.221  0.00  0.00    +0.000 N 
ATOM      6  C   UNL     1       0.478  15.963  19.591  0.00  0.00    +0.000 C 
ATOM      7  C   UNL     1      -0.400  16.926  20.385  0.00  0.00    +0.000 C 
ATOM      8  O   UNL     1      -1.397  17.445  19.879  0.00  0.00    +0.000 OA
ATOM      9  N   UNL     1      -0.140  16.905  21.732  0.00  0.00    +0.000 N 
ATOM     10  C   UNL     1      -1.152  16.970  22.782  0.00  0.00    +0.000 C 
ATOM     11  C   UNL     1      -2.561  17.384  22.374  0.00  0.00    +0.000 C 
ATOM     12  C   UNL     1      -1.140  15.589  23.484  0.00  0.00    +0.000 C 
ATOM     13  O   UNL     1      -0.487  15.405  24.509  0.00  0.00    +0.000 OA
ATOM     14  N   UNL     1      -1.794  14.555  22.838  0.00  0.00    +0.000 N 
ATOM     15  C   UNL     1      -2.147  13.304  23.543  0.00  0.00    +0.000 C 
ATOM     16  C   UNL     1      -1.999  12.032  22.684  0.00  0.00    +0.000 C 
ATOM     17  O   UNL     1      -1.972  10.897  23.143  0.00  0.00    +0.000 OA
ATOM     18  O   UNL     1      -2.093  12.276  21.347  0.00  0.00    +0.000 OA
ATOM     19  H   UNL     1      -1.493  15.230  19.204  0.00  0.00    +0.000 HD
ATOM     20  H   UNL     1       0.765  16.555  22.037  0.00  0.00    +0.000 HD
ATOM     21  H   UNL     1      -2.223  14.719  21.937  0.00  0.00    +0.000 HD
ENDROOT
BRANCH   1  22
ATOM     22  C   UNL     1      -0.362  10.602  20.515  0.00  0.00    +0.000 C 
ATOM     23  C   UNL     1       0.932  10.467  21.341  0.00  0.00    +0.000 C 
BRANCH  22  24
ATOM     24  C   UNL     1      -0.197  10.081  19.072  0.00  0.00    +0.000 C 
BRANCH  24  25
ATOM     25  C   UNL     1       1.262  10.076  18.610  0.00  0.00    +0.000 C 
BRANCH  25  27
ATOM     26  C   UNL     1       2.282   7.808  18.732  0.00  0.00    +0.000 C 
ATOM     27  C   UNL     1       1.616   8.823  17.816  0.00  0.00    +0.000 C 
ENDBRANCH  25  27
ENDBRANCH  24  25
ENDBRANCH  22  24
ENDBRANCH   1  22
BRANCH   6  28
ATOM     28  C   UNL     1       1.185  16.594  18.401  0.00  0.00    +0.000 C 
BRANCH  28  29
ATOM     29  C   UNL     1       2.691  16.473  18.455  0.00  0.00    +0.000 A 
ATOM     30  C   UNL     1       3.443  17.106  19.456  0.00  0.00    +0.000 A 
ATOM     31  C   UNL     1       4.824  16.906  19.533  0.00  0.00    +0.000 A 
ATOM     32  C   UNL     1       5.467  16.093  18.601  0.00  0.00    +0.000 A 
ATOM     33  C   UNL     1       4.734  15.492  17.581  0.00  0.00    +0.000 A 
ATOM     34  C   UNL     1       3.355  15.683  17.507  0.00  0.00    +0.000 A 
ENDBRANCH  28  29
ENDBRANCH   6  28
BRANCH  15  35
ATOM     35  C   UNL     1      -3.597  13.452  24.047  0.00  0.00    +0.000 C 
BRANCH  35  36
ATOM     36  C   UNL     1      -4.615  14.099  23.088  0.00  0.00    +0.000 C 
ATOM     37  C   UNL     1      -5.610  13.097  22.502  0.00  0.00    +0.000 C 
ATOM     38  C   UNL     1      -5.380  15.204  23.824  0.00  0.00    +0.000 C 
ENDBRANCH  35  36
ENDBRANCH  15  35
TORSDOF 8
ENDMDL
MODEL 7
REMARK VINA RESULT:      -6.0      2.988      7.324
REMARK  Name = 
REMARK  13 active torsions:
REMARK  status: ('A' for Active; 'I' for Inactive)
REMARK    1  A    between atoms: C_1  and  C_2
REMARK    2  A    between atoms: C_2  and  C_3
REMARK    3  A    between atoms: C_3  and  C_4
REMARK    4  A    between atoms: C_4  and  C_5
REMARK    5  A    between atoms: C_5  and  C_6
REMARK    6  A    between atoms: C_5  and  C_7
REMARK    7  A    between atoms: C_12  and  C_13
REMARK    8  A    between atoms: C_13  and  C_14
REMARK    9  A    between atoms: C_23  and  C_24
REMARK   10  A    between atoms: C_28  and  C_29
REMARK   11  A    between atoms: C_29  and  C_30
REMARK   12  A    between atoms: C_30  and  C_31
REMARK   13  A    between atoms: C_30  and  C_32
REMARK                            x       y       z     vdW  Elec       q    Type
REMARK                         _______ _______ _______ _____ _____    ______ ____
ROOT
ATOM      1  C   UNL     1      -3.400  11.485  18.392  0.00  0.00    +0.000 C 
ATOM      2  C   UNL     1      -2.120  11.921  17.645  0.00  0.00    +0.000 C 
ATOM      3  C   UNL     1      -0.992  11.074  18.184  0.00  0.00    +0.000 C 
ATOM      4  O   UNL     1      -0.836   9.902  17.855  0.00  0.00    +0.000 OA
ATOM      5  N   UNL     1      -0.304  11.648  19.196  0.00  0.00    +0.000 N 
ATOM      6  C   UNL     1       0.376  10.831  20.207  0.00  0.00    +0.000 C 
ATOM      7  C   UNL     1       0.473  11.842  21.347  0.00  0.00    +0.000 C 
ATOM      8  O   UNL     1       1.041  12.925  21.191  0.00  0.00    +0.000 OA
ATOM      9  N   UNL     1      -0.359  11.549  22.397  0.00  0.00    +0.000 N 
ATOM     10  C   UNL     1      -1.124  12.532  23.158  0.00  0.00    +0.000 C 
ATOM     11  C   UNL     1      -0.759  14.001  22.975  0.00  0.00    +0.000 C 
ATOM     12  C   UNL     1      -2.616  12.268  22.834  0.00  0.00    +0.000 C 
ATOM     13  O   UNL     1      -3.309  11.568  23.570  0.00  0.00    +0.000 OA
ATOM     14  N   UNL     1      -3.088  12.750  21.626  0.00  0.00    +0.000 N 
ATOM     15  C   UNL     1      -4.536  12.866  21.353  0.00  0.00    +0.000 C 
ATOM     16  C   UNL     1      -4.934  12.523  19.904  0.00  0.00    +0.000 C 
ATOM     17  O   UNL     1      -6.083  12.290  19.548  0.00  0.00    +0.000 OA
ATOM     18  O   UNL     1      -3.916  12.689  19.015  0.00  0.00    +0.000 OA
ATOM     19  H   UNL     1      -0.225  12.656  19.269  0.00  0.00    +0.000 HD
ATOM     20  H   UNL     1      -0.684  10.591  22.495  0.00  0.00    +0.000 HD
ATOM     21  H   UNL     1      -2.455  13.222  20.994  0.00  0.00    +0.000 HD
ENDROOT
BRANCH   1  22
ATOM     22  C   UNL     1      -4.403  10.718  17.478  0.00  0.00    +0.000 C 
ATOM     23  C   UNL     1      -4.433   9.223  17.853  0.00  0.00    +0.000 C 
BRANCH  22  24
ATOM     24  C   UNL     1      -4.128  10.943  15.975  0.00  0.00    +0.000 C 
BRANCH  24  25
ATOM     25  C   UNL     1      -3.460   9.737  15.311  0.00  0.00    +0.000 C 
BRANCH  25  27
ATOM     26  C   UNL     1      -4.183   9.815  12.930  0.00  0.00    +0.000 C 
ATOM     27  C   UNL     1      -3.016  10.032  13.882  0.00  0.00    +0.000 C 
ENDBRANCH  25  27
ENDBRANCH  24  25
ENDBRANCH  22  24
ENDBRANCH   1  22
BRANCH   6  28
ATOM     28  C   UNL     1       1.714  10.271  19.748  0.00  0.00    +0.000 C 
BRANCH  28  29
ATOM     29  C   UNL     1       1.797   8.764  19.815  0.00  0.00    +0.000 A 
ATOM     30  C   UNL     1       1.359   8.054  20.944  0.00  0.00    +0.000 A 
ATOM     31  C   UNL     1       1.367   6.656  20.943  0.00  0.00    +0.000 A 
ATOM     32  C   UNL     1       1.831   5.958  19.829  0.00  0.00    +0.000 A 
ATOM     33  C   UNL     1       2.303   6.655  18.721  0.00  0.00    +0.000 A 
ATOM     34  C   UNL     1       2.289   8.049  18.715  0.00  0.00    +0.000 A 
ENDBRANCH  28  29
ENDBRANCH   6  28
BRANCH  15  35
ATOM     35  C   UNL     1      -4.958  14.308  21.704  0.00  0.00    +0.000 C 
BRANCH  35  36
ATOM     36  C   UNL     1      -5.669  14.527  23.054  0.00  0.00    +0.000 C 
ATOM     37  C   UNL     1      -6.296  13.253  23.617  0.00  0.00    +0.000 C 
ATOM     38  C   UNL     1      -4.673  15.097  24.070  0.00  0.00    +0.000 C 
ENDBRANCH  35  36
ENDBRANCH  15  35
TORSDOF 8
ENDMDL
MODEL 8
REMARK VINA RESULT:      -6.0      3.108      8.720
REMARK  Name = 
REMARK  13 active torsions:
REMARK  status: ('A' for Active; 'I' for Inactive)
REMARK    1  A    between atoms: C_1  and  C_2
REMARK    2  A    between atoms: C_2  and  C_3
REMARK    3  A    between atoms: C_3  and  C_4
REMARK    4  A    between atoms: C_4  and  C_5
REMARK    5  A    between atoms: C_5  and  C_6
REMARK    6  A    between atoms: C_5  and  C_7
REMARK    7  A    between atoms: C_12  and  C_13
REMARK    8  A    between atoms: C_13  and  C_14
REMARK    9  A    between atoms: C_23  and  C_24
REMARK   10  A    between atoms: C_28  and  C_29
REMARK   11  A    between atoms: C_29  and  C_30
REMARK   12  A    between atoms: C_30  and  C_31
REMARK   13  A    between atoms: C_30  and  C_32
REMARK                            x       y       z     vdW  Elec       q    Type
REMARK                         _______ _______ _______ _____ _____    ______ ____
ROOT
ATOM      1  C   UNL     1      -4.350  13.891  21.239  0.00  0.00    +0.000 C 
ATOM      2  C   UNL     1      -3.250  13.252  22.114  0.00  0.00    +0.000 C 
ATOM      3  C   UNL     1      -1.945  13.438  21.377  0.00  0.00    +0.000 C 
ATOM      4  O   UNL     1      -1.356  14.515  21.347  0.00  0.00    +0.000 OA
ATOM      5  N   UNL     1      -1.594  12.389  20.599  0.00  0.00    +0.000 N 
ATOM      6  C   UNL     1      -0.758  12.578  19.409  0.00  0.00    +0.000 C 
ATOM      7  C   UNL     1      -1.123  11.321  18.624  0.00  0.00    +0.000 C 
ATOM      8  O   UNL     1      -0.965  10.199  19.108  0.00  0.00    +0.000 OA
ATOM      9  N   UNL     1      -1.884  11.583  17.513  0.00  0.00    +0.000 N 
ATOM     10  C   UNL     1      -3.010  10.772  17.059  0.00  0.00    +0.000 C 
ATOM     11  C   UNL     1      -3.175   9.390  17.679  0.00  0.00    +0.000 C 
ATOM     12  C   UNL     1      -4.277  11.642  17.252  0.00  0.00    +0.000 C 
ATOM     13  O   UNL     1      -4.738  12.305  16.324  0.00  0.00    +0.000 OA
ATOM     14  N   UNL     1      -4.785  11.731  18.536  0.00  0.00    +0.000 N 
ATOM     15  C   UNL     1      -6.151  12.233  18.794  0.00  0.00    +0.000 C 
ATOM     16  C   UNL     1      -6.276  13.097  20.065  0.00  0.00    +0.000 C 
ATOM     17  O   UNL     1      -7.233  13.822  20.306  0.00  0.00    +0.000 OA
ATOM     18  O   UNL     1      -5.311  12.832  20.989  0.00  0.00    +0.000 OA
ATOM     19  H   UNL     1      -1.885  11.446  20.831  0.00  0.00    +0.000 HD
ATOM     20  H   UNL     1      -1.855  12.523  17.126  0.00  0.00    +0.000 HD
ATOM     21  H   UNL     1      -4.308  11.263  19.296  0.00  0.00    +0.000 HD
ENDROOT
BRANCH   1  22
ATOM     22  C   UNL     1      -4.934  15.196  21.859  0.00  0.00    +0.000 C 
ATOM     23  C   UNL     1      -4.146  16.423  21.360  0.00  0.00    +0.000 C 
BRANCH  22  24
ATOM     24  C   UNL     1      -5.020  15.137  23.399  0.00  0.00    +0.000 C 
BRANCH  24  25
ATOM     25  C   UNL     1      -4.369  16.347  24.072  0.00  0.00    +0.000 C 
BRANCH  25  27
ATOM     26  C   UNL     1      -1.991  15.783  24.550  0.00  0.00    +0.000 C 
ATOM     27  C   UNL     1      -3.376  15.944  25.158  0.00  0.00    +0.000 C 
ENDBRANCH  25  27
ENDBRANCH  24  25
ENDBRANCH  22  24
ENDBRANCH   1  22
BRANCH   6  28
ATOM     28  C   UNL     1       0.726  12.719  19.715  0.00  0.00    +0.000 C 
BRANCH  28  29
ATOM     29  C   UNL     1       1.354  13.958  19.121  0.00  0.00    +0.000 A 
ATOM     30  C   UNL     1       2.620  13.923  18.518  0.00  0.00    +0.000 A 
ATOM     31  C   UNL     1       3.138  15.064  17.899  0.00  0.00    +0.000 A 
ATOM     32  C   UNL     1       2.409  16.252  17.896  0.00  0.00    +0.000 A 
ATOM     33  C   UNL     1       1.168  16.306  18.525  0.00  0.00    +0.000 A 
ATOM     34  C   UNL     1       0.645  15.167  19.137  0.00  0.00    +0.000 A 
ENDBRANCH  28  29
ENDBRANCH   6  28
BRANCH  15  35
ATOM     35  C   UNL     1      -7.085  11.008  18.876  0.00  0.00    +0.000 C 
BRANCH  35  36
ATOM     36  C   UNL     1      -6.912  10.069  20.086  0.00  0.00    +0.000 C 
ATOM     37  C   UNL     1      -7.915  10.341  21.206  0.00  0.00    +0.000 C 
ATOM     38  C   UNL     1      -7.044   8.613  19.626  0.00  0.00    +0.000 C 
ENDBRANCH  35  36
ENDBRANCH  15  35
TORSDOF 8
ENDMDL
MODEL 9
REMARK VINA RESULT:      -6.0      1.287      6.961
REMARK  Name = 
REMARK  13 active torsions:
REMARK  status: ('A' for Active; 'I' for Inactive)
REMARK    1  A    between atoms: C_1  and  C_2
REMARK    2  A    between atoms: C_2  and  C_3
REMARK    3  A    between atoms: C_3  and  C_4
REMARK    4  A    between atoms: C_4  and  C_5
REMARK    5  A    between atoms: C_5  and  C_6
REMARK    6  A    between atoms: C_5  and  C_7
REMARK    7  A    between atoms: C_12  and  C_13
REMARK    8  A    between atoms: C_13  and  C_14
REMARK    9  A    between atoms: C_23  and  C_24
REMARK   10  A    between atoms: C_28  and  C_29
REMARK   11  A    between atoms: C_29  and  C_30
REMARK   12  A    between atoms: C_30  and  C_31
REMARK   13  A    between atoms: C_30  and  C_32
REMARK                            x       y       z     vdW  Elec       q    Type
REMARK                         _______ _______ _______ _____ _____    ______ ____
ROOT
ATOM      1  C   UNL     1       0.027  11.164  20.698  0.00  0.00    +0.000 C 
ATOM      2  C   UNL     1      -0.077  11.409  19.177  0.00  0.00    +0.000 C 
ATOM      3  C   UNL     1       1.051  12.345  18.809  0.00  0.00    +0.000 C 
ATOM      4  O   UNL     1       2.214  11.965  18.711  0.00  0.00    +0.000 OA
ATOM      5  N   UNL     1       0.704  13.652  18.797  0.00  0.00    +0.000 N 
ATOM      6  C   UNL     1       1.696  14.699  19.058  0.00  0.00    +0.000 C 
ATOM      7  C   UNL     1       0.777  15.838  19.492  0.00  0.00    +0.000 C 
ATOM      8  O   UNL     1      -0.123  16.247  18.755  0.00  0.00    +0.000 OA
ATOM      9  N   UNL     1       0.867  16.121  20.831  0.00  0.00    +0.000 N 
ATOM     10  C   UNL     1      -0.263  16.447  21.696  0.00  0.00    +0.000 C 
ATOM     11  C   UNL     1      -1.588  16.785  21.023  0.00  0.00    +0.000 C 
ATOM     12  C   UNL     1      -0.408  15.264  22.687  0.00  0.00    +0.000 C 
ATOM     13  O   UNL     1       0.104  15.307  23.804  0.00  0.00    +0.000 OA
ATOM     14  N   UNL     1      -1.028  14.123  22.210  0.00  0.00    +0.000 N 
ATOM     15  C   UNL     1      -1.528  13.075  23.126  0.00  0.00    +0.000 C 
ATOM     16  C   UNL     1      -1.339  11.638  22.603  0.00  0.00    +0.000 C 
ATOM     17  O   UNL     1      -1.426  10.638  23.305  0.00  0.00    +0.000 OA
ATOM     18  O   UNL     1      -1.255  11.569  21.245  0.00  0.00    +0.000 OA
ATOM     19  H   UNL     1      -0.246  13.939  18.589  0.00  0.00    +0.000 HD
ATOM     20  H   UNL     1       1.708  15.832  21.323  0.00  0.00    +0.000 HD
ATOM     21  H   UNL     1      -1.333  14.084  21.246  0.00  0.00    +0.000 HD
ENDROOT
BRANCH   1  22
ATOM     22  C   UNL     1       0.479   9.714  21.047  0.00  0.00    +0.000 C 
ATOM     23  C   UNL     1       1.581   9.742  22.125  0.00  0.00    +0.000 C 
BRANCH  22  24
ATOM     24  C   UNL     1       0.896   8.905  19.800  0.00  0.00    +0.000 C 
BRANCH  24  25
ATOM     25  C   UNL     1       1.823   7.735  20.139  0.00  0.00    +0.000 C 
BRANCH  25  27
ATOM     26  C   UNL     1       2.506   8.240  17.799  0.00  0.00    +0.000 C 
ATOM     27  C   UNL     1       2.567   7.210  18.916  0.00  0.00    +0.000 C 
ENDBRANCH  25  27
ENDBRANCH  24  25
ENDBRANCH  22  24
ENDBRANCH   1  22
BRANCH   6  28
ATOM     28  C   UNL     1       2.576  15.025  17.860  0.00  0.00    +0.000 C 
BRANCH  28  29
ATOM     29  C   UNL     1       3.991  15.405  18.231  0.00  0.00    +0.000 A 
ATOM     30  C   UNL     1       5.082  14.588  17.898  0.00  0.00    +0.000 A 
ATOM     31  C   UNL     1       6.386  15.007  18.175  0.00  0.00    +0.000 A 
ATOM     32  C   UNL     1       6.611  16.230  18.804  0.00  0.00    +0.000 A 
ATOM     33  C   UNL     1       5.532  17.029  19.172  0.00  0.00    +0.000 A 
ATOM     34  C   UNL     1       4.230  16.618  18.890  0.00  0.00    +0.000 A 
ENDBRANCH  28  29
ENDBRANCH   6  28
BRANCH  15  35
ATOM     35  C   UNL     1      -3.020  13.365  23.388  0.00  0.00    +0.000 C 
BRANCH  35  36
ATOM     36  C   UNL     1      -3.865  13.849  22.194  0.00  0.00    +0.000 C 
ATOM     37  C   UNL     1      -4.847  12.794  21.686  0.00  0.00    +0.000 C 
ATOM     38  C   UNL     1      -4.636  15.113  22.591  0.00  0.00    +0.000 C 
ENDBRANCH  35  36
ENDBRANCH  15  35
TORSDOF 8
ENDMDL
