MODEL 1
REMARK VINA RESULT:      -8.8      0.000      0.000
REMARK  Name = 
REMARK  3 active torsions:
REMARK  status: ('A' for Active; 'I' for Inactive)
REMARK    1  A    between atoms: C_7  and  C_8
REMARK    2  A    between atoms: C_16  and  N_17
REMARK    3  A    between atoms: N_17  and  C_18
REMARK                            x       y       z     vdW  Elec       q    Type
REMARK                         _______ _______ _______ _____ _____    ______ ____
ROOT
ATOM      1  C   UNL     1       4.041   6.416  17.859  0.00  0.00    +0.000 A 
ATOM      2  N   UNL     1       3.578   7.556  17.257  0.00  0.00    +0.000 NA
ATOM      3  C   UNL     1       2.739   8.087  18.106  0.00  0.00    +0.000 A 
ATOM      4  C   UNL     1       2.071   9.342  18.044  0.00  0.00    +0.000 A 
ATOM      5  C   UNL     1       1.248   9.713  19.043  0.00  0.00    +0.000 A 
ATOM      6  C   UNL     1       1.023   8.841  20.183  0.00  0.00    +0.000 A 
ATOM      7  C   UNL     1       1.678   7.666  20.261  0.00  0.00    +0.000 A 
ATOM      8  N   UNL     1       2.542   7.275  19.228  0.00  0.00    +0.000 N 
ATOM      9  C   UNL     1       3.386   6.161  19.073  0.00  0.00    +0.000 A 
ENDROOT
BRANCH   1  16
ATOM     10 CL   UNL     1       5.542   3.895  13.616  0.00  0.00    +0.000 Cl
ATOM     11  C   UNL     1       5.843   4.442  15.219  0.00  0.00    +0.000 A 
ATOM     12  C   UNL     1       7.051   4.141  15.837  0.00  0.00    +0.000 A 
ATOM     13  C   UNL     1       7.280   4.574  17.142  0.00  0.00    +0.000 A 
ATOM     14  C   UNL     1       6.295   5.293  17.834  0.00  0.00    +0.000 A 
ATOM     15 CL   UNL     1       6.682   5.712  19.471  0.00  0.00    +0.000 Cl
ATOM     16  C   UNL     1       5.068   5.610  17.209  0.00  0.00    +0.000 A 
ATOM     17  C   UNL     1       4.870   5.185  15.885  0.00  0.00    +0.000 A 
ENDBRANCH   1  16
BRANCH   9  18
ATOM     18  N   UNL     1       3.597   5.161  20.000  0.00  0.00    +0.000 N 
ATOM     19  H   UNL     1       4.562   4.988  20.278  0.00  0.00    +0.000 HD
BRANCH  18  20
ATOM     20  C   UNL     1       2.727   3.999  20.227  0.00  0.00    +0.000 C 
ATOM     21  C   UNL     1       1.462   4.041  19.349  0.00  0.00    +0.000 C 
ATOM     22  C   UNL     1       1.703   3.795  17.858  0.00  0.00    +0.000 C 
ATOM     23  C   UNL     1       2.551   2.559  17.580  0.00  0.00    +0.000 C 
ATOM     24  C   UNL     1       3.799   2.484  18.452  0.00  0.00    +0.000 C 
ATOM     25  C   UNL     1       3.508   2.707  19.937  0.00  0.00    +0.000 C 
ENDBRANCH  18  20
ENDBRANCH   9  18
TORSDOF 3
ENDMDL
MODEL 2
REMARK VINA RESULT:      -8.7      0.755      1.575
REMARK  Name = 
REMARK  3 active torsions:
REMARK  status: ('A' for Active; 'I' for Inactive)
REMARK    1  A    between atoms: C_7  and  C_8
REMARK    2  A    between atoms: C_16  and  N_17
REMARK    3  A    between atoms: N_17  and  C_18
REMARK                            x       y       z     vdW  Elec       q    Type
REMARK                         _______ _______ _______ _____ _____    ______ ____
ROOT
ATOM      1  C   UNL     1       4.151   6.349  17.653  0.00  0.00    +0.000 A 
ATOM      2  N   UNL     1       3.699   7.538  17.144  0.00  0.00    +0.000 NA
ATOM      3  C   UNL     1       2.860   8.003  18.032  0.00  0.00    +0.000 A 
ATOM      4  C   UNL     1       2.200   9.264  18.071  0.00  0.00    +0.000 A 
ATOM      5  C   UNL     1       1.377   9.558  19.095  0.00  0.00    +0.000 A 
ATOM      6  C   UNL     1       1.142   8.597  20.159  0.00  0.00    +0.000 A 
ATOM      7  C   UNL     1       1.789   7.415  20.142  0.00  0.00    +0.000 A 
ATOM      8  N   UNL     1       2.653   7.104  19.083  0.00  0.00    +0.000 N 
ATOM      9  C   UNL     1       3.491   6.000  18.839  0.00  0.00    +0.000 A 
ENDROOT
BRANCH   1  16
ATOM     10 CL   UNL     1       5.506   3.872  13.335  0.00  0.00    +0.000 Cl
ATOM     11  C   UNL     1       5.880   4.448  14.912  0.00  0.00    +0.000 A 
ATOM     12  C   UNL     1       7.140   4.216  15.452  0.00  0.00    +0.000 A 
ATOM     13  C   UNL     1       7.430   4.672  16.737  0.00  0.00    +0.000 A 
ATOM     14  C   UNL     1       6.455   5.345  17.487  0.00  0.00    +0.000 A 
ATOM     15 CL   UNL     1       6.924   5.798  19.093  0.00  0.00    +0.000 Cl
ATOM     16  C   UNL     1       5.176   5.592  16.941  0.00  0.00    +0.000 A 
ATOM     17  C   UNL     1       4.915   5.145  15.635  0.00  0.00    +0.000 A 
ENDBRANCH   1  16
BRANCH   9  18
ATOM     18  N   UNL     1       3.692   4.926  19.682  0.00  0.00    +0.000 N 
ATOM     19  H   UNL     1       4.433   5.017  20.375  0.00  0.00    +0.000 HD
BRANCH  18  20
ATOM     20  C   UNL     1       3.368   3.524  19.383  0.00  0.00    +0.000 C 
ATOM     21  C   UNL     1       3.555   2.611  20.610  0.00  0.00    +0.000 C 
ATOM     22  C   UNL     1       2.520   2.802  21.720  0.00  0.00    +0.000 C 
ATOM     23  C   UNL     1       1.082   2.790  21.214  0.00  0.00    +0.000 C 
ATOM     24  C   UNL     1       0.876   3.670  19.986  0.00  0.00    +0.000 C 
ATOM     25  C   UNL     1       1.915   3.426  18.891  0.00  0.00    +0.000 C 
ENDBRANCH  18  20
ENDBRANCH   9  18
TORSDOF 3
ENDMDL
MODEL 3
REMARK VINA RESULT:      -7.2      2.279      5.356
REMARK  Name = 
REMARK  3 active torsions:
REMARK  status: ('A' for Active; 'I' for Inactive)
REMARK    1  A    between atoms: C_7  and  C_8
REMARK    2  A    between atoms: C_16  and  N_17
REMARK    3  A    between atoms: N_17  and  C_18
REMARK                            x       y       z     vdW  Elec       q    Type
REMARK                         _______ _______ _______ _____ _____    ______ ____
ROOT
ATOM      1  C   UNL     1       3.377   6.643  18.084  0.00  0.00    +0.000 A 
ATOM      2  N   UNL     1       4.585   7.109  17.639  0.00  0.00    +0.000 NA
ATOM      3  C   UNL     1       5.095   6.139  16.926  0.00  0.00    +0.000 A 
ATOM      4  C   UNL     1       6.273   6.135  16.128  0.00  0.00    +0.000 A 
ATOM      5  C   UNL     1       6.621   5.024  15.451  0.00  0.00    +0.000 A 
ATOM      6  C   UNL     1       5.811   3.821  15.535  0.00  0.00    +0.000 A 
ATOM      7  C   UNL     1       4.678   3.830  16.265  0.00  0.00    +0.000 A 
ATOM      8  N   UNL     1       4.306   4.985  16.966  0.00  0.00    +0.000 N 
ATOM      9  C   UNL     1       3.173   5.299  17.739  0.00  0.00    +0.000 A 
ENDROOT
BRANCH   1  16
ATOM     10 CL   UNL     1       0.627  11.005  18.233  0.00  0.00    +0.000 Cl
ATOM     11  C   UNL     1       1.149   9.538  18.963  0.00  0.00    +0.000 A 
ATOM     12  C   UNL     1       0.701   9.200  20.236  0.00  0.00    +0.000 A 
ATOM     13  C   UNL     1       1.142   8.017  20.826  0.00  0.00    +0.000 A 
ATOM     14  C   UNL     1       2.043   7.181  20.152  0.00  0.00    +0.000 A 
ATOM     15 CL   UNL     1       2.562   5.777  21.027  0.00  0.00    +0.000 Cl
ATOM     16  C   UNL     1       2.496   7.513  18.856  0.00  0.00    +0.000 A 
ATOM     17  C   UNL     1       2.018   8.697  18.270  0.00  0.00    +0.000 A 
ENDBRANCH   1  16
BRANCH   9  18
ATOM     18  N   UNL     1       2.076   4.488  17.945  0.00  0.00    +0.000 N 
ATOM     19  H   UNL     1       1.272   4.910  18.407  0.00  0.00    +0.000 HD
BRANCH  18  20
ATOM     20  C   UNL     1       2.099   3.025  18.078  0.00  0.00    +0.000 C 
ATOM     21  C   UNL     1       3.268   2.540  18.957  0.00  0.00    +0.000 C 
ATOM     22  C   UNL     1       3.128   2.854  20.448  0.00  0.00    +0.000 C 
ATOM     23  C   UNL     1       1.775   2.452  21.025  0.00  0.00    +0.000 C 
ATOM     24  C   UNL     1       0.602   2.902  20.162  0.00  0.00    +0.000 C 
ATOM     25  C   UNL     1       0.771   2.543  18.684  0.00  0.00    +0.000 C 
ENDBRANCH  18  20
ENDBRANCH   9  18
TORSDOF 3
ENDMDL
MODEL 4
REMARK VINA RESULT:      -7.0      6.390      8.745
REMARK  Name = 
REMARK  3 active torsions:
REMARK  status: ('A' for Active; 'I' for Inactive)
REMARK    1  A    between atoms: C_7  and  C_8
REMARK    2  A    between atoms: C_16  and  N_17
REMARK    3  A    between atoms: N_17  and  C_18
REMARK                            x       y       z     vdW  Elec       q    Type
REMARK                         _______ _______ _______ _____ _____    ______ ____
ROOT
ATOM      1  C   UNL     1      -1.139  12.170  20.209  0.00  0.00    +0.000 A 
ATOM      2  N   UNL     1      -1.083  12.393  21.560  0.00  0.00    +0.000 NA
ATOM      3  C   UNL     1      -2.322  12.558  21.940  0.00  0.00    +0.000 A 
ATOM      4  C   UNL     1      -2.848  12.692  23.256  0.00  0.00    +0.000 A 
ATOM      5  C   UNL     1      -4.174  12.840  23.436  0.00  0.00    +0.000 A 
ATOM      6  C   UNL     1      -5.078  12.877  22.299  0.00  0.00    +0.000 A 
ATOM      7  C   UNL     1      -4.588  12.719  21.054  0.00  0.00    +0.000 A 
ATOM      8  N   UNL     1      -3.209  12.557  20.859  0.00  0.00    +0.000 N 
ATOM      9  C   UNL     1      -2.439  12.314  19.707  0.00  0.00    +0.000 A 
ENDROOT
BRANCH   1  16
ATOM     10 CL   UNL     1       1.791   8.562  17.970  0.00  0.00    +0.000 Cl
ATOM     11  C   UNL     1       1.478  10.207  18.360  0.00  0.00    +0.000 A 
ATOM     12  C   UNL     1       2.358  11.198  17.938  0.00  0.00    +0.000 A 
ATOM     13  C   UNL     1       2.105  12.527  18.272  0.00  0.00    +0.000 A 
ATOM     14  C   UNL     1       0.982  12.864  19.043  0.00  0.00    +0.000 A 
ATOM     15 CL   UNL     1       0.824  14.543  19.444  0.00  0.00    +0.000 Cl
ATOM     16  C   UNL     1       0.080  11.864  19.468  0.00  0.00    +0.000 A 
ATOM     17  C   UNL     1       0.341  10.534  19.098  0.00  0.00    +0.000 A 
ENDBRANCH   1  16
BRANCH   9  18
ATOM     18  N   UNL     1      -2.922  12.118  18.429  0.00  0.00    +0.000 N 
ATOM     19  H   UNL     1      -2.976  12.938  17.827  0.00  0.00    +0.000 HD
BRANCH  18  20
ATOM     20  C   UNL     1      -3.835  11.048  18.008  0.00  0.00    +0.000 C 
ATOM     21  C   UNL     1      -4.520  11.363  16.664  0.00  0.00    +0.000 C 
ATOM     22  C   UNL     1      -3.601  11.305  15.442  0.00  0.00    +0.000 C 
ATOM     23  C   UNL     1      -2.768  10.030  15.373  0.00  0.00    +0.000 C 
ATOM     24  C   UNL     1      -2.097   9.684  16.698  0.00  0.00    +0.000 C 
ATOM     25  C   UNL     1      -3.058   9.727  17.887  0.00  0.00    +0.000 C 
ENDBRANCH  18  20
ENDBRANCH   9  18
TORSDOF 3
ENDMDL
MODEL 5
REMARK VINA RESULT:      -7.0      1.255      1.310
REMARK  Name = 
REMARK  3 active torsions:
REMARK  status: ('A' for Active; 'I' for Inactive)
REMARK    1  A    between atoms: C_7  and  C_8
REMARK    2  A    between atoms: C_16  and  N_17
REMARK    3  A    between atoms: N_17  and  C_18
REMARK                            x       y       z     vdW  Elec       q    Type
REMARK                         _______ _______ _______ _____ _____    ______ ____
ROOT
ATOM      1  C   UNL     1       3.655   6.751  18.094  0.00  0.00    +0.000 A 
ATOM      2  N   UNL     1       3.192   7.873  17.460  0.00  0.00    +0.000 NA
ATOM      3  C   UNL     1       2.360   8.433  18.299  0.00  0.00    +0.000 A 
ATOM      4  C   UNL     1       1.696   9.688  18.202  0.00  0.00    +0.000 A 
ATOM      5  C   UNL     1       0.883  10.094  19.195  0.00  0.00    +0.000 A 
ATOM      6  C   UNL     1       0.663   9.259  20.364  0.00  0.00    +0.000 A 
ATOM      7  C   UNL     1       1.315   8.085  20.474  0.00  0.00    +0.000 A 
ATOM      8  N   UNL     1       2.170   7.658  19.447  0.00  0.00    +0.000 N 
ATOM      9  C   UNL     1       3.009   6.537  19.320  0.00  0.00    +0.000 A 
ENDROOT
BRANCH   1  16
ATOM     10 CL   UNL     1       4.905   2.144  16.138  0.00  0.00    +0.000 Cl
ATOM     11  C   UNL     1       5.302   3.780  16.489  0.00  0.00    +0.000 A 
ATOM     12  C   UNL     1       6.552   4.280  16.137  0.00  0.00    +0.000 A 
ATOM     13  C   UNL     1       6.871   5.602  16.440  0.00  0.00    +0.000 A 
ATOM     14  C   UNL     1       5.948   6.419  17.109  0.00  0.00    +0.000 A 
ATOM     15 CL   UNL     1       6.498   8.020  17.484  0.00  0.00    +0.000 Cl
ATOM     16  C   UNL     1       4.675   5.921  17.462  0.00  0.00    +0.000 A 
ATOM     17  C   UNL     1       4.365   4.593  17.124  0.00  0.00    +0.000 A 
ENDBRANCH   1  16
BRANCH   9  18
ATOM     18  N   UNL     1       3.224   5.565  20.277  0.00  0.00    +0.000 N 
ATOM     19  H   UNL     1       4.162   5.172  20.330  0.00  0.00    +0.000 HD
BRANCH  18  20
ATOM     20  C   UNL     1       2.204   4.672  20.842  0.00  0.00    +0.000 C 
ATOM     21  C   UNL     1       1.040   4.428  19.863  0.00  0.00    +0.000 C 
ATOM     22  C   UNL     1       1.386   3.561  18.651  0.00  0.00    +0.000 C 
ATOM     23  C   UNL     1       2.103   2.267  19.020  0.00  0.00    +0.000 C 
ATOM     24  C   UNL     1       3.247   2.479  20.005  0.00  0.00    +0.000 C 
ATOM     25  C   UNL     1       2.849   3.327  21.214  0.00  0.00    +0.000 C 
ENDBRANCH  18  20
ENDBRANCH   9  18
TORSDOF 3
ENDMDL
MODEL 6
REMARK VINA RESULT:      -6.9      1.698      2.169
REMARK  Name = 
REMARK  3 active torsions:
REMARK  status: ('A' for Active; 'I' for Inactive)
REMARK    1  A    between atoms: C_7  and  C_8
REMARK    2  A    between atoms: C_16  and  N_17
REMARK    3  A    between atoms: N_17  and  C_18
REMARK                            x       y       z     vdW  Elec       q    Type
REMARK                         _______ _______ _______ _____ _____    ______ ____
ROOT
ATOM      1  C   UNL     1       3.112   6.813  18.464  0.00  0.00    +0.000 A 
ATOM      2  N   UNL     1       2.553   7.978  18.011  0.00  0.00    +0.000 NA
ATOM      3  C   UNL     1       1.783   8.398  18.981  0.00  0.00    +0.000 A 
ATOM      4  C   UNL     1       1.068   9.624  19.093  0.00  0.00    +0.000 A 
ATOM      5  C   UNL     1       0.335   9.874  20.195  0.00  0.00    +0.000 A 
ATOM      6  C   UNL     1       0.255   8.899  21.270  0.00  0.00    +0.000 A 
ATOM      7  C   UNL     1       0.955   7.752  21.181  0.00  0.00    +0.000 A 
ATOM      8  N   UNL     1       1.726   7.487  20.041  0.00  0.00    +0.000 N 
ATOM      9  C   UNL     1       2.590   6.428  19.707  0.00  0.00    +0.000 A 
ENDROOT
BRANCH   1  16
ATOM     10 CL   UNL     1       7.936   6.681  16.642  0.00  0.00    +0.000 Cl
ATOM     11  C   UNL     1       6.374   5.978  16.798  0.00  0.00    +0.000 A 
ATOM     12  C   UNL     1       6.099   4.760  16.186  0.00  0.00    +0.000 A 
ATOM     13  C   UNL     1       4.826   4.206  16.304  0.00  0.00    +0.000 A 
ATOM     14  C   UNL     1       3.824   4.877  17.019  0.00  0.00    +0.000 A 
ATOM     15 CL   UNL     1       2.269   4.110  17.030  0.00  0.00    +0.000 Cl
ATOM     16  C   UNL     1       4.098   6.110  17.650  0.00  0.00    +0.000 A 
ATOM     17  C   UNL     1       5.395   6.638  17.539  0.00  0.00    +0.000 A 
ENDBRANCH   1  16
BRANCH   9  18
ATOM     18  N   UNL     1       2.927   5.363  20.519  0.00  0.00    +0.000 N 
ATOM     19  H   UNL     1       3.817   4.905  20.329  0.00  0.00    +0.000 HD
BRANCH  18  20
ATOM     20  C   UNL     1       1.984   4.494  21.234  0.00  0.00    +0.000 C 
ATOM     21  C   UNL     1       0.745   4.156  20.384  0.00  0.00    +0.000 C 
ATOM     22  C   UNL     1       1.007   3.209  19.210  0.00  0.00    +0.000 C 
ATOM     23  C   UNL     1       1.786   1.960  19.605  0.00  0.00    +0.000 C 
ATOM     24  C   UNL     1       3.006   2.266  20.466  0.00  0.00    +0.000 C 
ATOM     25  C   UNL     1       2.694   3.193  21.643  0.00  0.00    +0.000 C 
ENDBRANCH  18  20
ENDBRANCH   9  18
TORSDOF 3
ENDMDL
MODEL 7
REMARK VINA RESULT:      -6.9      2.564      5.760
REMARK  Name = 
REMARK  3 active torsions:
REMARK  status: ('A' for Active; 'I' for Inactive)
REMARK    1  A    between atoms: C_7  and  C_8
REMARK    2  A    between atoms: C_16  and  N_17
REMARK    3  A    between atoms: N_17  and  C_18
REMARK                            x       y       z     vdW  Elec       q    Type
REMARK                         _______ _______ _______ _____ _____    ______ ____
ROOT
ATOM      1  C   UNL     1       2.546   7.534  19.137  0.00  0.00    +0.000 A 
ATOM      2  N   UNL     1       3.141   7.937  17.971  0.00  0.00    +0.000 NA
ATOM      3  C   UNL     1       3.916   6.947  17.612  0.00  0.00    +0.000 A 
ATOM      4  C   UNL     1       4.665   6.782  16.413  0.00  0.00    +0.000 A 
ATOM      5  C   UNL     1       5.397   5.668  16.228  0.00  0.00    +0.000 A 
ATOM      6  C   UNL     1       5.443   4.632  17.246  0.00  0.00    +0.000 A 
ATOM      7  C   UNL     1       4.710   4.770  18.369  0.00  0.00    +0.000 A 
ATOM      8  N   UNL     1       3.939   5.925  18.565  0.00  0.00    +0.000 N 
ATOM      9  C   UNL     1       3.048   6.304  19.585  0.00  0.00    +0.000 A 
ENDROOT
BRANCH   1  16
ATOM     10 CL   UNL     1       0.459   9.213  23.546  0.00  0.00    +0.000 Cl
ATOM     11  C   UNL     1       0.552   9.236  21.828  0.00  0.00    +0.000 A 
ATOM     12  C   UNL     1      -0.287  10.073  21.101  0.00  0.00    +0.000 A 
ATOM     13  C   UNL     1      -0.215  10.074  19.709  0.00  0.00    +0.000 A 
ATOM     14  C   UNL     1       0.683   9.227  19.045  0.00  0.00    +0.000 A 
ATOM     15 CL   UNL     1       0.622   9.279  17.313  0.00  0.00    +0.000 Cl
ATOM     16  C   UNL     1       1.545   8.381  19.777  0.00  0.00    +0.000 A 
ATOM     17  C   UNL     1       1.473   8.415  21.180  0.00  0.00    +0.000 A 
ENDBRANCH   1  16
BRANCH   9  18
ATOM     18  N   UNL     1       2.675   5.538  20.671  0.00  0.00    +0.000 N 
ATOM     19  H   UNL     1       3.420   5.225  21.290  0.00  0.00    +0.000 HD
BRANCH  18  20
ATOM     20  C   UNL     1       1.476   4.694  20.758  0.00  0.00    +0.000 C 
ATOM     21  C   UNL     1       0.952   4.283  19.368  0.00  0.00    +0.000 C 
ATOM     22  C   UNL     1       1.828   3.275  18.621  0.00  0.00    +0.000 C 
ATOM     23  C   UNL     1       2.212   2.067  19.466  0.00  0.00    +0.000 C 
ATOM     24  C   UNL     1       2.714   2.445  20.855  0.00  0.00    +0.000 C 
ATOM     25  C   UNL     1       1.795   3.432  21.577  0.00  0.00    +0.000 C 
ENDBRANCH  18  20
ENDBRANCH   9  18
TORSDOF 3
ENDMDL
MODEL 8
REMARK VINA RESULT:      -6.8      1.809      4.315
REMARK  Name = 
REMARK  3 active torsions:
REMARK  status: ('A' for Active; 'I' for Inactive)
REMARK    1  A    between atoms: C_7  and  C_8
REMARK    2  A    between atoms: C_16  and  N_17
REMARK    3  A    between atoms: N_17  and  C_18
REMARK                            x       y       z     vdW  Elec       q    Type
REMARK                         _______ _______ _______ _____ _____    ______ ____
ROOT
ATOM      1  C   UNL     1       2.532   5.479  19.465  0.00  0.00    +0.000 A 
ATOM      2  N   UNL     1       1.845   5.842  20.593  0.00  0.00    +0.000 NA
ATOM      3  C   UNL     1       1.598   7.119  20.458  0.00  0.00    +0.000 A 
ATOM      4  C   UNL     1       0.803   7.972  21.274  0.00  0.00    +0.000 A 
ATOM      5  C   UNL     1       0.662   9.271  20.949  0.00  0.00    +0.000 A 
ATOM      6  C   UNL     1       1.322   9.818  19.776  0.00  0.00    +0.000 A 
ATOM      7  C   UNL     1       2.049   9.007  18.982  0.00  0.00    +0.000 A 
ATOM      8  N   UNL     1       2.196   7.652  19.311  0.00  0.00    +0.000 N 
ATOM      9  C   UNL     1       2.827   6.582  18.651  0.00  0.00    +0.000 A 
ENDROOT
BRANCH   1  16
ATOM     10 CL   UNL     1       5.291   1.424  21.065  0.00  0.00    +0.000 Cl
ATOM     11  C   UNL     1       4.150   2.128  19.988  0.00  0.00    +0.000 A 
ATOM     12  C   UNL     1       3.586   1.358  18.977  0.00  0.00    +0.000 A 
ATOM     13  C   UNL     1       2.674   1.942  18.099  0.00  0.00    +0.000 A 
ATOM     14  C   UNL     1       2.339   3.298  18.221  0.00  0.00    +0.000 A 
ATOM     15 CL   UNL     1       1.246   3.912  17.024  0.00  0.00    +0.000 Cl
ATOM     16  C   UNL     1       2.901   4.084  19.252  0.00  0.00    +0.000 A 
ATOM     17  C   UNL     1       3.799   3.469  20.140  0.00  0.00    +0.000 A 
ENDBRANCH   1  16
BRANCH   9  18
ATOM     18  N   UNL     1       3.445   6.633  17.418  0.00  0.00    +0.000 N 
ATOM     19  H   UNL     1       3.030   6.076  16.673  0.00  0.00    +0.000 HD
BRANCH  18  20
ATOM     20  C   UNL     1       4.862   6.935  17.176  0.00  0.00    +0.000 C 
ATOM     21  C   UNL     1       5.797   6.044  18.015  0.00  0.00    +0.000 C 
ATOM     22  C   UNL     1       5.850   4.577  17.582  0.00  0.00    +0.000 C 
ATOM     23  C   UNL     1       6.080   4.397  16.086  0.00  0.00    +0.000 C 
ATOM     24  C   UNL     1       5.180   5.285  15.234  0.00  0.00    +0.000 C 
ATOM     25  C   UNL     1       5.180   6.747  15.684  0.00  0.00    +0.000 C 
ENDBRANCH  18  20
ENDBRANCH   9  18
TORSDOF 3
ENDMDL
MODEL 9
REMARK VINA RESULT:      -6.8      6.131      8.904
REMARK  Name = 
REMARK  3 active torsions:
REMARK  status: ('A' for Active; 'I' for Inactive)
REMARK    1  A    between atoms: C_7  and  C_8
REMARK    2  A    between atoms: C_16  and  N_17
REMARK    3  A    between atoms: N_17  and  C_18
REMARK                            x       y       z     vdW  Elec       q    Type
REMARK                         _______ _______ _______ _____ _____    ______ ____
ROOT
ATOM      1  C   UNL     1      -1.609  11.838  20.535  0.00  0.00    +0.000 A 
ATOM      2  N   UNL     1      -1.628  12.131  21.873  0.00  0.00    +0.000 NA
ATOM      3  C   UNL     1      -2.826  12.598  22.113  0.00  0.00    +0.000 A 
ATOM      4  C   UNL     1      -3.425  12.934  23.360  0.00  0.00    +0.000 A 
ATOM      5  C   UNL     1      -4.691  13.390  23.393  0.00  0.00    +0.000 A 
ATOM      6  C   UNL     1      -5.453  13.556  22.167  0.00  0.00    +0.000 A 
ATOM      7  C   UNL     1      -4.900  13.209  20.988  0.00  0.00    +0.000 A 
ATOM      8  N   UNL     1      -3.584  12.727  20.946  0.00  0.00    +0.000 N 
ATOM      9  C   UNL     1      -2.789  12.240  19.892  0.00  0.00    +0.000 A 
ENDROOT
BRANCH   1  16
ATOM     10 CL   UNL     1       1.542   7.757  20.394  0.00  0.00    +0.000 Cl
ATOM     11  C   UNL     1       1.061   9.298  19.803  0.00  0.00    +0.000 A 
ATOM     12  C   UNL     1       1.769   9.893  18.765  0.00  0.00    +0.000 A 
ATOM     13  C   UNL     1       1.382  11.150  18.303  0.00  0.00    +0.000 A 
ATOM     14  C   UNL     1       0.298  11.818  18.890  0.00  0.00    +0.000 A 
ATOM     15 CL   UNL     1      -0.035  13.401  18.266  0.00  0.00    +0.000 Cl
ATOM     16  C   UNL     1      -0.432  11.216  19.939  0.00  0.00    +0.000 A 
ATOM     17  C   UNL     1      -0.039   9.939  20.372  0.00  0.00    +0.000 A 
ENDBRANCH   1  16
BRANCH   9  18
ATOM     18  N   UNL     1      -3.183  12.075  18.580  0.00  0.00    +0.000 N 
ATOM     19  H   UNL     1      -3.267  12.919  18.016  0.00  0.00    +0.000 HD
BRANCH  18  20
ATOM     20  C   UNL     1      -3.986  10.963  18.056  0.00  0.00    +0.000 C 
ATOM     21  C   UNL     1      -4.585  11.280  16.672  0.00  0.00    +0.000 C 
ATOM     22  C   UNL     1      -3.571  11.326  15.526  0.00  0.00    +0.000 C 
ATOM     23  C   UNL     1      -2.651  10.112  15.485  0.00  0.00    +0.000 C 
ATOM     24  C   UNL     1      -2.062   9.764  16.848  0.00  0.00    +0.000 C 
ATOM     25  C   UNL     1      -3.113   9.701  17.957  0.00  0.00    +0.000 C 
ENDBRANCH  18  20
ENDBRANCH   9  18
TORSDOF 3
ENDMDL
