MODEL 1
REMARK VINA RESULT:      -7.3      0.000      0.000
REMARK  Name = 
REMARK  6 active torsions:
REMARK  status: ('A' for Active; 'I' for Inactive)
REMARK    1  A    between atoms: C_1  and  C_2
REMARK    2  A    between atoms: C_2  and  C_4
REMARK    3  A    between atoms: C_4  and  C_5
REMARK    4  A    between atoms: C_7  and  O_8
REMARK    5  A    between atoms: N_12  and  C_13
REMARK    6  A    between atoms: C_13  and  C_14
REMARK                            x       y       z     vdW  Elec       q    Type
REMARK                         _______ _______ _______ _____ _____    ______ ____
ROOT
ATOM      1  C   UNL     1       6.623   5.875  16.860  0.00  0.00    +0.000 C 
ATOM      2  O   UNL     1       7.567   6.204  15.809  0.00  0.00    +0.000 OA
ATOM      3  C   UNL     1       7.236   5.394  14.738  0.00  0.00    +0.000 C 
ATOM      4  C   UNL     1       6.095   4.709  14.800  0.00  0.00    +0.000 C 
ATOM      5 BR   UNL     1       5.316   3.553  13.627  0.00  0.00    +0.000 Br
ATOM      6  C   UNL     1       5.552   5.120  16.099  0.00  0.00    +0.000 C 
ATOM      7  N   UNL     1       4.347   4.856  16.464  0.00  0.00    +0.000 NA
ENDROOT
BRANCH   3   8
ATOM      8  O   UNL     1       8.101   5.347  13.683  0.00  0.00    +0.000 OA
ATOM      9  H   UNL     1       8.330   4.404  13.593  0.00  0.00    +0.000 HD
ENDBRANCH   3   8
BRANCH   1  10
ATOM     10  C   UNL     1       7.331   4.966  17.858  0.00  0.00    +0.000 C 
BRANCH  10  12
ATOM     11  C   UNL     1       8.286   7.143  18.854  0.00  0.00    +0.000 C 
ATOM     12  C   UNL     1       7.756   5.750  19.079  0.00  0.00    +0.000 C 
ATOM     13  O   UNL     1       7.643   5.278  20.210  0.00  0.00    +0.000 OA
ENDBRANCH  10  12
ENDBRANCH   1  10
BRANCH   7  14
ATOM     14  C   UNL     1       3.812   5.381  17.720  0.00  0.00    +0.000 C 
BRANCH  14  15
ATOM     15  C   UNL     1       2.791   4.474  18.369  0.00  0.00    +0.000 A 
ATOM     16  C   UNL     1       2.077   4.872  19.508  0.00  0.00    +0.000 A 
ATOM     17  C   UNL     1       1.125   4.029  20.084  0.00  0.00    +0.000 A 
ATOM     18  C   UNL     1       0.864   2.784  19.517  0.00  0.00    +0.000 A 
ATOM     19  C   UNL     1       1.546   2.386  18.371  0.00  0.00    +0.000 A 
ATOM     20  C   UNL     1       2.501   3.228  17.796  0.00  0.00    +0.000 A 
ENDBRANCH  14  15
ENDBRANCH   7  14
TORSDOF 5
ENDMDL
MODEL 2
REMARK VINA RESULT:      -7.3      0.189      1.121
REMARK  Name = 
REMARK  6 active torsions:
REMARK  status: ('A' for Active; 'I' for Inactive)
REMARK    1  A    between atoms: C_1  and  C_2
REMARK    2  A    between atoms: C_2  and  C_4
REMARK    3  A    between atoms: C_4  and  C_5
REMARK    4  A    between atoms: C_7  and  O_8
REMARK    5  A    between atoms: N_12  and  C_13
REMARK    6  A    between atoms: C_13  and  C_14
REMARK                            x       y       z     vdW  Elec       q    Type
REMARK                         _______ _______ _______ _____ _____    ______ ____
ROOT
ATOM      1  C   UNL     1       6.644   5.859  16.702  0.00  0.00    +0.000 C 
ATOM      2  O   UNL     1       7.607   6.198  15.672  0.00  0.00    +0.000 OA
ATOM      3  C   UNL     1       7.299   5.396  14.589  0.00  0.00    +0.000 C 
ATOM      4  C   UNL     1       6.160   4.708  14.623  0.00  0.00    +0.000 C 
ATOM      5 BR   UNL     1       5.407   3.558  13.426  0.00  0.00    +0.000 Br
ATOM      6  C   UNL     1       5.590   5.107  15.915  0.00  0.00    +0.000 C 
ATOM      7  N   UNL     1       4.379   4.837  16.254  0.00  0.00    +0.000 NA
ENDROOT
BRANCH   3   8
ATOM      8  O   UNL     1       8.185   5.359  13.551  0.00  0.00    +0.000 OA
ATOM      9  H   UNL     1       8.371   4.412  13.418  0.00  0.00    +0.000 HD
ENDBRANCH   3   8
BRANCH   1  10
ATOM     10  C   UNL     1       7.335   4.945  17.707  0.00  0.00    +0.000 C 
BRANCH  10  12
ATOM     11  C   UNL     1       8.222   7.112  18.782  0.00  0.00    +0.000 C 
ATOM     12  C   UNL     1       7.696   5.711  18.960  0.00  0.00    +0.000 C 
ATOM     13  O   UNL     1       7.535   5.219  20.076  0.00  0.00    +0.000 OA
ENDBRANCH  10  12
ENDBRANCH   1  10
BRANCH   7  14
ATOM     14  C   UNL     1       3.818   5.351  17.504  0.00  0.00    +0.000 C 
BRANCH  14  15
ATOM     15  C   UNL     1       2.808   4.423  18.140  0.00  0.00    +0.000 A 
ATOM     16  C   UNL     1       2.617   3.116  17.669  0.00  0.00    +0.000 A 
ATOM     17  C   UNL     1       1.695   2.266  18.280  0.00  0.00    +0.000 A 
ATOM     18  C   UNL     1       0.962   2.708  19.381  0.00  0.00    +0.000 A 
ATOM     19  C   UNL     1       1.160   3.993  19.875  0.00  0.00    +0.000 A 
ATOM     20  C   UNL     1       2.082   4.845  19.262  0.00  0.00    +0.000 A 
ENDBRANCH  14  15
ENDBRANCH   7  14
TORSDOF 5
ENDMDL
MODEL 3
REMARK VINA RESULT:      -7.2      2.579      5.442
REMARK  Name = 
REMARK  6 active torsions:
REMARK  status: ('A' for Active; 'I' for Inactive)
REMARK    1  A    between atoms: C_1  and  C_2
REMARK    2  A    between atoms: C_2  and  C_4
REMARK    3  A    between atoms: C_4  and  C_5
REMARK    4  A    between atoms: C_7  and  O_8
REMARK    5  A    between atoms: N_12  and  C_13
REMARK    6  A    between atoms: C_13  and  C_14
REMARK                            x       y       z     vdW  Elec       q    Type
REMARK                         _______ _______ _______ _____ _____    ______ ____
ROOT
ATOM      1  C   UNL     1       5.844   4.231  18.547  0.00  0.00    +0.000 C 
ATOM      2  O   UNL     1       5.298   3.229  19.443  0.00  0.00    +0.000 OA
ATOM      3  C   UNL     1       3.930   3.256  19.249  0.00  0.00    +0.000 C 
ATOM      4  C   UNL     1       3.456   3.961  18.223  0.00  0.00    +0.000 C 
ATOM      5 BR   UNL     1       1.754   4.248  17.638  0.00  0.00    +0.000 Br
ATOM      6  C   UNL     1       4.681   4.485  17.609  0.00  0.00    +0.000 C 
ATOM      7  N   UNL     1       4.694   5.050  16.454  0.00  0.00    +0.000 NA
ENDROOT
BRANCH   3   8
ATOM      8  O   UNL     1       3.147   2.557  20.122  0.00  0.00    +0.000 OA
ATOM      9  H   UNL     1       2.310   3.054  20.158  0.00  0.00    +0.000 HD
ENDBRANCH   3   8
BRANCH   1  10
ATOM     10  C   UNL     1       6.165   5.472  19.372  0.00  0.00    +0.000 C 
BRANCH  10  12
ATOM     11  C   UNL     1       8.008   7.017  18.443  0.00  0.00    +0.000 C 
ATOM     12  C   UNL     1       7.635   5.812  19.268  0.00  0.00    +0.000 C 
ATOM     13  O   UNL     1       8.485   5.147  19.860  0.00  0.00    +0.000 OA
ENDBRANCH  10  12
ENDBRANCH   1  10
BRANCH   7  14
ATOM     14  C   UNL     1       5.954   5.457  15.832  0.00  0.00    +0.000 C 
BRANCH  14  15
ATOM     15  C   UNL     1       6.202   4.810  14.488  0.00  0.00    +0.000 A 
ATOM     16  C   UNL     1       5.268   3.936  13.913  0.00  0.00    +0.000 A 
ATOM     17  C   UNL     1       5.505   3.362  12.664  0.00  0.00    +0.000 A 
ATOM     18  C   UNL     1       6.671   3.667  11.966  0.00  0.00    +0.000 A 
ATOM     19  C   UNL     1       7.595   4.553  12.513  0.00  0.00    +0.000 A 
ATOM     20  C   UNL     1       7.360   5.126  13.765  0.00  0.00    +0.000 A 
ENDBRANCH  14  15
ENDBRANCH   7  14
TORSDOF 5
ENDMDL
MODEL 4
REMARK VINA RESULT:      -7.2      2.580      5.421
REMARK  Name = 
REMARK  6 active torsions:
REMARK  status: ('A' for Active; 'I' for Inactive)
REMARK    1  A    between atoms: C_1  and  C_2
REMARK    2  A    between atoms: C_2  and  C_4
REMARK    3  A    between atoms: C_4  and  C_5
REMARK    4  A    between atoms: C_7  and  O_8
REMARK    5  A    between atoms: N_12  and  C_13
REMARK    6  A    between atoms: C_13  and  C_14
REMARK                            x       y       z     vdW  Elec       q    Type
REMARK                         _______ _______ _______ _____ _____    ______ ____
ROOT
ATOM      1  C   UNL     1       5.828   4.227  18.557  0.00  0.00    +0.000 C 
ATOM      2  O   UNL     1       5.271   3.222  19.442  0.00  0.00    +0.000 OA
ATOM      3  C   UNL     1       3.904   3.255  19.237  0.00  0.00    +0.000 C 
ATOM      4  C   UNL     1       3.441   3.968  18.212  0.00  0.00    +0.000 C 
ATOM      5 BR   UNL     1       1.745   4.266  17.616  0.00  0.00    +0.000 Br
ATOM      6  C   UNL     1       4.673   4.492  17.612  0.00  0.00    +0.000 C 
ATOM      7  N   UNL     1       4.698   5.063  16.460  0.00  0.00    +0.000 NA
ENDROOT
BRANCH   3   8
ATOM      8  O   UNL     1       3.112   2.554  20.101  0.00  0.00    +0.000 OA
ATOM      9  H   UNL     1       2.707   1.856  19.554  0.00  0.00    +0.000 HD
ENDBRANCH   3   8
BRANCH   1  10
ATOM     10  C   UNL     1       6.147   5.462  19.392  0.00  0.00    +0.000 C 
BRANCH  10  12
ATOM     11  C   UNL     1       7.972   6.995  18.411  0.00  0.00    +0.000 C 
ATOM     12  C   UNL     1       7.613   5.814  19.277  0.00  0.00    +0.000 C 
ATOM     13  O   UNL     1       8.471   5.181  19.891  0.00  0.00    +0.000 OA
ENDBRANCH  10  12
ENDBRANCH   1  10
BRANCH   7  14
ATOM     14  C   UNL     1       5.964   5.469  15.851  0.00  0.00    +0.000 C 
BRANCH  14  15
ATOM     15  C   UNL     1       6.204   4.858  14.489  0.00  0.00    +0.000 A 
ATOM     16  C   UNL     1       7.363   5.142  13.753  0.00  0.00    +0.000 A 
ATOM     17  C   UNL     1       7.577   4.554  12.506  0.00  0.00    +0.000 A 
ATOM     18  C   UNL     1       6.642   3.662  11.985  0.00  0.00    +0.000 A 
ATOM     19  C   UNL     1       5.499   3.351  12.716  0.00  0.00    +0.000 A 
ATOM     20  C   UNL     1       5.283   3.941  13.963  0.00  0.00    +0.000 A 
ENDBRANCH  14  15
ENDBRANCH   7  14
TORSDOF 5
ENDMDL
MODEL 5
REMARK VINA RESULT:      -7.1      3.752      5.396
REMARK  Name = 
REMARK  6 active torsions:
REMARK  status: ('A' for Active; 'I' for Inactive)
REMARK    1  A    between atoms: C_1  and  C_2
REMARK    2  A    between atoms: C_2  and  C_4
REMARK    3  A    between atoms: C_4  and  C_5
REMARK    4  A    between atoms: C_7  and  O_8
REMARK    5  A    between atoms: N_12  and  C_13
REMARK    6  A    between atoms: C_13  and  C_14
REMARK                            x       y       z     vdW  Elec       q    Type
REMARK                         _______ _______ _______ _____ _____    ______ ____
ROOT
ATOM      1  C   UNL     1       3.200   4.027  18.503  0.00  0.00    +0.000 C 
ATOM      2  O   UNL     1       4.186   3.115  17.954  0.00  0.00    +0.000 OA
ATOM      3  C   UNL     1       4.866   3.833  16.989  0.00  0.00    +0.000 C 
ATOM      4  C   UNL     1       4.656   5.147  16.921  0.00  0.00    +0.000 C 
ATOM      5 BR   UNL     1       5.339   6.423  15.813  0.00  0.00    +0.000 Br
ATOM      6  C   UNL     1       3.701   5.369  18.011  0.00  0.00    +0.000 C 
ATOM      7  N   UNL     1       3.392   6.543  18.437  0.00  0.00    +0.000 NA
ENDROOT
BRANCH   3   8
ATOM      8  O   UNL     1       5.713   3.150  16.164  0.00  0.00    +0.000 OA
ATOM      9  H   UNL     1       5.934   2.338  16.654  0.00  0.00    +0.000 HD
ENDBRANCH   3   8
BRANCH   1  10
ATOM     10  C   UNL     1       1.850   3.684  17.884  0.00  0.00    +0.000 C 
BRANCH  10  12
ATOM     11  C   UNL     1       1.056   3.371  20.316  0.00  0.00    +0.000 C 
ATOM     12  C   UNL     1       0.987   2.935  18.875  0.00  0.00    +0.000 C 
ATOM     13  O   UNL     1       0.238   2.030  18.509  0.00  0.00    +0.000 OA
ENDBRANCH  10  12
ENDBRANCH   1  10
BRANCH   7  14
ATOM     14  C   UNL     1       2.521   6.714  19.600  0.00  0.00    +0.000 C 
BRANCH  14  15
ATOM     15  C   UNL     1       1.786   8.035  19.616  0.00  0.00    +0.000 A 
ATOM     16  C   UNL     1       1.188   8.526  20.785  0.00  0.00    +0.000 A 
ATOM     17  C   UNL     1       0.529   9.756  20.787  0.00  0.00    +0.000 A 
ATOM     18  C   UNL     1       0.474  10.519  19.622  0.00  0.00    +0.000 A 
ATOM     19  C   UNL     1       1.086  10.056  18.461  0.00  0.00    +0.000 A 
ATOM     20  C   UNL     1       1.743   8.824  18.458  0.00  0.00    +0.000 A 
ENDBRANCH  14  15
ENDBRANCH   7  14
TORSDOF 5
ENDMDL
MODEL 6
REMARK VINA RESULT:      -7.1      3.752      5.461
REMARK  Name = 
REMARK  6 active torsions:
REMARK  status: ('A' for Active; 'I' for Inactive)
REMARK    1  A    between atoms: C_1  and  C_2
REMARK    2  A    between atoms: C_2  and  C_4
REMARK    3  A    between atoms: C_4  and  C_5
REMARK    4  A    between atoms: C_7  and  O_8
REMARK    5  A    between atoms: N_12  and  C_13
REMARK    6  A    between atoms: C_13  and  C_14
REMARK                            x       y       z     vdW  Elec       q    Type
REMARK                         _______ _______ _______ _____ _____    ______ ____
ROOT
ATOM      1  C   UNL     1       3.198   4.044  18.471  0.00  0.00    +0.000 C 
ATOM      2  O   UNL     1       4.177   3.125  17.922  0.00  0.00    +0.000 OA
ATOM      3  C   UNL     1       4.861   3.838  16.954  0.00  0.00    +0.000 C 
ATOM      4  C   UNL     1       4.659   5.152  16.884  0.00  0.00    +0.000 C 
ATOM      5 BR   UNL     1       5.348   6.422  15.774  0.00  0.00    +0.000 Br
ATOM      6  C   UNL     1       3.707   5.383  17.976  0.00  0.00    +0.000 C 
ATOM      7  N   UNL     1       3.407   6.559  18.401  0.00  0.00    +0.000 NA
ENDROOT
BRANCH   3   8
ATOM      8  O   UNL     1       5.701   3.148  16.129  0.00  0.00    +0.000 OA
ATOM      9  H   UNL     1       5.149   2.897  15.366  0.00  0.00    +0.000 HD
ENDBRANCH   3   8
BRANCH   1  10
ATOM     10  C   UNL     1       1.844   3.710  17.855  0.00  0.00    +0.000 C 
BRANCH  10  12
ATOM     11  C   UNL     1       1.022   3.417  20.279  0.00  0.00    +0.000 C 
ATOM     12  C   UNL     1       0.983   2.958  18.844  0.00  0.00    +0.000 C 
ATOM     13  O   UNL     1       0.257   2.032  18.483  0.00  0.00    +0.000 OA
ENDBRANCH  10  12
ENDBRANCH   1  10
BRANCH   7  14
ATOM     14  C   UNL     1       2.539   6.738  19.565  0.00  0.00    +0.000 C 
BRANCH  14  15
ATOM     15  C   UNL     1       1.825   8.070  19.588  0.00  0.00    +0.000 A 
ATOM     16  C   UNL     1       1.755   8.883  18.448  0.00  0.00    +0.000 A 
ATOM     17  C   UNL     1       1.076  10.102  18.482  0.00  0.00    +0.000 A 
ATOM     18  C   UNL     1       0.446  10.516  19.653  0.00  0.00    +0.000 A 
ATOM     19  C   UNL     1       0.486   9.708  20.785  0.00  0.00    +0.000 A 
ATOM     20  C   UNL     1       1.167   8.489  20.753  0.00  0.00    +0.000 A 
ENDBRANCH  14  15
ENDBRANCH   7  14
TORSDOF 5
ENDMDL
MODEL 7
REMARK VINA RESULT:      -7.0      3.636      4.949
REMARK  Name = 
REMARK  6 active torsions:
REMARK  status: ('A' for Active; 'I' for Inactive)
REMARK    1  A    between atoms: C_1  and  C_2
REMARK    2  A    between atoms: C_2  and  C_4
REMARK    3  A    between atoms: C_4  and  C_5
REMARK    4  A    between atoms: C_7  and  O_8
REMARK    5  A    between atoms: N_12  and  C_13
REMARK    6  A    between atoms: C_13  and  C_14
REMARK                            x       y       z     vdW  Elec       q    Type
REMARK                         _______ _______ _______ _____ _____    ______ ____
ROOT
ATOM      1  C   UNL     1       4.990   4.731  18.565  0.00  0.00    +0.000 C 
ATOM      2  O   UNL     1       5.460   3.364  18.689  0.00  0.00    +0.000 OA
ATOM      3  C   UNL     1       4.623   2.759  19.607  0.00  0.00    +0.000 C 
ATOM      4  C   UNL     1       3.528   3.416  19.985  0.00  0.00    +0.000 C 
ATOM      5 BR   UNL     1       2.199   2.978  21.152  0.00  0.00    +0.000 Br
ATOM      6  C   UNL     1       3.615   4.651  19.198  0.00  0.00    +0.000 C 
ATOM      7  N   UNL     1       2.639   5.482  19.097  0.00  0.00    +0.000 NA
ENDROOT
BRANCH   3   8
ATOM      8  O   UNL     1       4.972   1.523  20.071  0.00  0.00    +0.000 OA
ATOM      9  H   UNL     1       5.419   1.093  19.320  0.00  0.00    +0.000 HD
ENDBRANCH   3   8
BRANCH   1  10
ATOM     10  C   UNL     1       5.919   5.621  19.382  0.00  0.00    +0.000 C 
BRANCH  10  12
ATOM     11  C   UNL     1       7.407   6.523  17.480  0.00  0.00    +0.000 C 
ATOM     12  C   UNL     1       7.284   5.697  18.735  0.00  0.00    +0.000 C 
ATOM     13  O   UNL     1       8.257   5.132  19.233  0.00  0.00    +0.000 OA
ENDBRANCH  10  12
ENDBRANCH   1  10
BRANCH   7  14
ATOM     14  C   UNL     1       2.731   6.643  18.212  0.00  0.00    +0.000 C 
BRANCH  14  15
ATOM     15  C   UNL     1       2.038   7.873  18.754  0.00  0.00    +0.000 A 
ATOM     16  C   UNL     1       1.701   7.985  20.111  0.00  0.00    +0.000 A 
ATOM     17  C   UNL     1       1.079   9.135  20.598  0.00  0.00    +0.000 A 
ATOM     18  C   UNL     1       0.798  10.194  19.737  0.00  0.00    +0.000 A 
ATOM     19  C   UNL     1       1.150  10.106  18.393  0.00  0.00    +0.000 A 
ATOM     20  C   UNL     1       1.771   8.955  17.904  0.00  0.00    +0.000 A 
ENDBRANCH  14  15
ENDBRANCH   7  14
TORSDOF 5
ENDMDL
MODEL 8
REMARK VINA RESULT:      -7.0      3.719      5.051
REMARK  Name = 
REMARK  6 active torsions:
REMARK  status: ('A' for Active; 'I' for Inactive)
REMARK    1  A    between atoms: C_1  and  C_2
REMARK    2  A    between atoms: C_2  and  C_4
REMARK    3  A    between atoms: C_4  and  C_5
REMARK    4  A    between atoms: C_7  and  O_8
REMARK    5  A    between atoms: N_12  and  C_13
REMARK    6  A    between atoms: C_13  and  C_14
REMARK                            x       y       z     vdW  Elec       q    Type
REMARK                         _______ _______ _______ _____ _____    ______ ____
ROOT
ATOM      1  C   UNL     1       4.401   4.456  17.377  0.00  0.00    +0.000 C 
ATOM      2  O   UNL     1       4.399   3.017  17.187  0.00  0.00    +0.000 OA
ATOM      3  C   UNL     1       3.856   2.485  18.341  0.00  0.00    +0.000 C 
ATOM      4  C   UNL     1       3.293   3.321  19.212  0.00  0.00    +0.000 C 
ATOM      5 BR   UNL     1       2.487   3.027  20.820  0.00  0.00    +0.000 Br
ATOM      6  C   UNL     1       3.458   4.621  18.552  0.00  0.00    +0.000 C 
ATOM      7  N   UNL     1       2.860   5.686  18.955  0.00  0.00    +0.000 NA
ENDROOT
BRANCH   3   8
ATOM      8  O   UNL     1       3.932   1.133  18.517  0.00  0.00    +0.000 OA
ATOM      9  H   UNL     1       3.219   0.925  19.148  0.00  0.00    +0.000 HD
ENDBRANCH   3   8
BRANCH   1  10
ATOM     10  C   UNL     1       5.818   4.878  17.747  0.00  0.00    +0.000 C 
BRANCH  10  12
ATOM     11  C   UNL     1       6.169   5.180  15.212  0.00  0.00    +0.000 C 
ATOM     12  C   UNL     1       6.733   4.770  16.548  0.00  0.00    +0.000 C 
ATOM     13  O   UNL     1       7.898   4.393  16.668  0.00  0.00    +0.000 OA
ENDBRANCH  10  12
ENDBRANCH   1  10
BRANCH   7  14
ATOM     14  C   UNL     1       2.965   6.935  18.201  0.00  0.00    +0.000 C 
BRANCH  14  15
ATOM     15  C   UNL     1       2.120   8.055  18.765  0.00  0.00    +0.000 A 
ATOM     16  C   UNL     1       1.667   9.108  17.957  0.00  0.00    +0.000 A 
ATOM     17  C   UNL     1       0.873  10.124  18.490  0.00  0.00    +0.000 A 
ATOM     18  C   UNL     1       0.508  10.091  19.835  0.00  0.00    +0.000 A 
ATOM     19  C   UNL     1       0.929   9.038  20.642  0.00  0.00    +0.000 A 
ATOM     20  C   UNL     1       1.726   8.022  20.110  0.00  0.00    +0.000 A 
ENDBRANCH  14  15
ENDBRANCH   7  14
TORSDOF 5
ENDMDL
MODEL 9
REMARK VINA RESULT:      -7.0      3.754      4.801
REMARK  Name = 
REMARK  6 active torsions:
REMARK  status: ('A' for Active; 'I' for Inactive)
REMARK    1  A    between atoms: C_1  and  C_2
REMARK    2  A    between atoms: C_2  and  C_4
REMARK    3  A    between atoms: C_4  and  C_5
REMARK    4  A    between atoms: C_7  and  O_8
REMARK    5  A    between atoms: N_12  and  C_13
REMARK    6  A    between atoms: C_13  and  C_14
REMARK                            x       y       z     vdW  Elec       q    Type
REMARK                         _______ _______ _______ _____ _____    ______ ____
ROOT
ATOM      1  C   UNL     1       4.663   4.831  17.946  0.00  0.00    +0.000 C 
ATOM      2  O   UNL     1       4.809   3.455  17.510  0.00  0.00    +0.000 OA
ATOM      3  C   UNL     1       3.835   2.742  18.184  0.00  0.00    +0.000 C 
ATOM      4  C   UNL     1       2.908   3.425  18.853  0.00  0.00    +0.000 C 
ATOM      5 BR   UNL     1       1.487   2.873  19.852  0.00  0.00    +0.000 Br
ATOM      6  C   UNL     1       3.291   4.816  18.589  0.00  0.00    +0.000 C 
ATOM      7  N   UNL     1       2.531   5.814  18.876  0.00  0.00    +0.000 NA
ENDROOT
BRANCH   3   8
ATOM      8  O   UNL     1       3.884   1.379  18.121  0.00  0.00    +0.000 OA
ATOM      9  H   UNL     1       3.233   1.139  17.436  0.00  0.00    +0.000 HD
ENDBRANCH   3   8
BRANCH   1  10
ATOM     10  C   UNL     1       5.749   5.115  18.976  0.00  0.00    +0.000 C 
BRANCH  10  12
ATOM     11  C   UNL     1       7.367   6.689  17.732  0.00  0.00    +0.000 C 
ATOM     12  C   UNL     1       7.084   5.320  18.296  0.00  0.00    +0.000 C 
ATOM     13  O   UNL     1       7.914   4.413  18.236  0.00  0.00    +0.000 OA
ENDBRANCH  10  12
ENDBRANCH   1  10
BRANCH   7  14
ATOM     14  C   UNL     1       2.904   7.175  18.493  0.00  0.00    +0.000 C 
BRANCH  14  15
ATOM     15  C   UNL     1       1.905   8.222  18.933  0.00  0.00    +0.000 A 
ATOM     16  C   UNL     1       1.492   8.323  20.269  0.00  0.00    +0.000 A 
ATOM     17  C   UNL     1       0.583   9.307  20.661  0.00  0.00    +0.000 A 
ATOM     18  C   UNL     1       0.089  10.213  19.725  0.00  0.00    +0.000 A 
ATOM     19  C   UNL     1       0.511  10.140  18.400  0.00  0.00    +0.000 A 
ATOM     20  C   UNL     1       1.418   9.154  18.007  0.00  0.00    +0.000 A 
ENDBRANCH  14  15
ENDBRANCH   7  14
TORSDOF 5
ENDMDL
