MODEL 1
REMARK VINA RESULT:      -8.4      0.000      0.000
REMARK  Name = 
REMARK  7 active torsions:
REMARK  status: ('A' for Active; 'I' for Inactive)
REMARK    1  A    between atoms: C_1  and  C_2
REMARK    2  A    between atoms: C_2  and  C_3
REMARK    3  A    between atoms: C_2  and  O_4
REMARK    4  A    between atoms: C_2  and  C_5
REMARK    5  A    between atoms: C_8  and  N_9
REMARK    6  A    between atoms: C_10  and  C_12
REMARK    7  A    between atoms: C_17  and  C_18
REMARK                            x       y       z     vdW  Elec       q    Type
REMARK                         _______ _______ _______ _____ _____    ______ ____
ROOT
ATOM      1  C   UNL     1       1.540   7.833  20.397  0.00  0.00    +0.000 A 
ATOM      2  C   UNL     1       1.581   8.789  19.286  0.00  0.00    +0.000 A 
ATOM      3  C   UNL     1       1.037  10.020  19.390  0.00  0.00    +0.000 A 
ATOM      4  C   UNL     1       0.384  10.398  20.594  0.00  0.00    +0.000 A 
ATOM      5  N   UNL     1      -0.245  11.503  20.930  0.00  0.00    +0.000 NA
ATOM      6  C   UNL     1      -0.718  11.286  22.207  0.00  0.00    +0.000 A 
ATOM      7  C   UNL     1      -0.349  10.033  22.652  0.00  0.00    +0.000 A 
ATOM      8  N   UNL     1       0.344   9.461  21.617  0.00  0.00    +0.000 N 
ATOM      9  C   UNL     1       0.908   8.196  21.529  0.00  0.00    +0.000 A 
ENDROOT
BRANCH   6  10
ATOM     10  C   UNL     1      -1.512  12.265  22.930  0.00  0.00    +0.000 A 
ATOM     11  C   UNL     1      -1.055  13.572  23.161  0.00  0.00    +0.000 A 
ATOM     12  C   UNL     1      -1.835  14.488  23.872  0.00  0.00    +0.000 A 
ATOM     13  C   UNL     1      -3.083  14.105  24.361  0.00  0.00    +0.000 A 
ATOM     14  C   UNL     1      -3.539  12.815  24.131  0.00  0.00    +0.000 A 
ATOM     15  F   UNL     1      -4.737  12.447  24.605  0.00  0.00    +0.000 F 
ATOM     16  C   UNL     1      -2.769  11.895  23.427  0.00  0.00    +0.000 A 
ENDBRANCH   6  10
BRANCH   1  18
ATOM     17  N   UNL     1       3.304   6.361  19.692  0.00  0.00    +0.000 N 
ATOM     18  C   UNL     1       2.096   6.447  20.323  0.00  0.00    +0.000 C 
ATOM     19  O   UNL     1       1.504   5.487  20.800  0.00  0.00    +0.000 OA
ATOM     20  H   UNL     1       3.809   7.196  19.425  0.00  0.00    +0.000 HD
BRANCH  17  24
ATOM     21  C   UNL     1       5.266   5.668  16.815  0.00  0.00    +0.000 C 
ATOM     22  C   UNL     1       5.951   6.076  18.132  0.00  0.00    +0.000 C 
ATOM     23  C   UNL     1       5.493   5.289  19.361  0.00  0.00    +0.000 C 
ATOM     24  C   UNL     1       3.976   5.100  19.395  0.00  0.00    +0.000 C 
ATOM     25  C   UNL     1       3.469   4.618  18.038  0.00  0.00    +0.000 C 
ATOM     26  O   UNL     1       3.841   5.558  17.020  0.00  0.00    +0.000 OA
BRANCH  21  28
ATOM     27  C   UNL     1       7.370   4.360  16.107  0.00  0.00    +0.000 C 
ATOM     28  C   UNL     1       5.840   4.432  16.045  0.00  0.00    +0.000 C 
ATOM     29  C   UNL     1       5.400   4.501  14.572  0.00  0.00    +0.000 C 
BRANCH  28  30
ATOM     30  O   UNL     1       5.359   3.207  16.611  0.00  0.00    +0.000 OA
ATOM     31  H   UNL     1       4.429   3.099  16.344  0.00  0.00    +0.000 HD
ENDBRANCH  28  30
ENDBRANCH  21  28
ENDBRANCH  17  24
ENDBRANCH   1  18
TORSDOF 5
ENDMDL
MODEL 2
REMARK VINA RESULT:      -8.2      1.765      2.755
REMARK  Name = 
REMARK  7 active torsions:
REMARK  status: ('A' for Active; 'I' for Inactive)
REMARK    1  A    between atoms: C_1  and  C_2
REMARK    2  A    between atoms: C_2  and  C_3
REMARK    3  A    between atoms: C_2  and  O_4
REMARK    4  A    between atoms: C_2  and  C_5
REMARK    5  A    between atoms: C_8  and  N_9
REMARK    6  A    between atoms: C_10  and  C_12
REMARK    7  A    between atoms: C_17  and  C_18
REMARK                            x       y       z     vdW  Elec       q    Type
REMARK                         _______ _______ _______ _____ _____    ______ ____
ROOT
ATOM      1  C   UNL     1       0.981   9.152  20.303  0.00  0.00    +0.000 A 
ATOM      2  C   UNL     1       1.199   8.667  21.669  0.00  0.00    +0.000 A 
ATOM      3  C   UNL     1       0.579   9.229  22.728  0.00  0.00    +0.000 A 
ATOM      4  C   UNL     1      -0.288  10.336  22.525  0.00  0.00    +0.000 A 
ATOM      5  N   UNL     1      -0.972  11.071  23.376  0.00  0.00    +0.000 NA
ATOM      6  C   UNL     1      -1.600  12.033  22.613  0.00  0.00    +0.000 A 
ATOM      7  C   UNL     1      -1.302  11.859  21.277  0.00  0.00    +0.000 A 
ATOM      8  N   UNL     1      -0.454  10.784  21.222  0.00  0.00    +0.000 N 
ATOM      9  C   UNL     1       0.167  10.208  20.122  0.00  0.00    +0.000 A 
ENDROOT
BRANCH   6  10
ATOM     10  C   UNL     1      -2.429  13.077  23.189  0.00  0.00    +0.000 A 
ATOM     11  C   UNL     1      -1.893  14.299  23.628  0.00  0.00    +0.000 A 
ATOM     12  C   UNL     1      -2.714  15.280  24.192  0.00  0.00    +0.000 A 
ATOM     13  C   UNL     1      -4.083  15.049  24.322  0.00  0.00    +0.000 A 
ATOM     14  C   UNL     1      -4.615  13.844  23.886  0.00  0.00    +0.000 A 
ATOM     15  F   UNL     1      -5.930  13.622  24.016  0.00  0.00    +0.000 F 
ATOM     16  C   UNL     1      -3.807  12.861  23.326  0.00  0.00    +0.000 A 
ENDBRANCH   6  10
BRANCH   1  18
ATOM     17  N   UNL     1       2.075   7.293  19.244  0.00  0.00    +0.000 N 
ATOM     18  C   UNL     1       1.668   8.588  19.100  0.00  0.00    +0.000 C 
ATOM     19  O   UNL     1       1.834   9.248  18.082  0.00  0.00    +0.000 OA
ATOM     20  H   UNL     1       1.805   6.752  20.056  0.00  0.00    +0.000 HD
BRANCH  17  24
ATOM     21  C   UNL     1       3.020   3.874  19.396  0.00  0.00    +0.000 C 
ATOM     22  C   UNL     1       1.799   4.296  18.559  0.00  0.00    +0.000 C 
ATOM     23  C   UNL     1       2.052   5.461  17.601  0.00  0.00    +0.000 C 
ATOM     24  C   UNL     1       2.871   6.577  18.251  0.00  0.00    +0.000 C 
ATOM     25  C   UNL     1       4.087   5.997  18.970  0.00  0.00    +0.000 C 
ATOM     26  O   UNL     1       3.659   5.043  19.953  0.00  0.00    +0.000 OA
BRANCH  21  28
ATOM     27  C   UNL     1       4.533   3.395  17.366  0.00  0.00    +0.000 C 
ATOM     28  C   UNL     1       4.056   2.902  18.736  0.00  0.00    +0.000 C 
ATOM     29  C   UNL     1       3.419   1.511  18.577  0.00  0.00    +0.000 C 
BRANCH  28  30
ATOM     30  O   UNL     1       5.230   2.780  19.548  0.00  0.00    +0.000 OA
ATOM     31  H   UNL     1       5.027   3.149  20.426  0.00  0.00    +0.000 HD
ENDBRANCH  28  30
ENDBRANCH  21  28
ENDBRANCH  17  24
ENDBRANCH   1  18
TORSDOF 5
ENDMDL
MODEL 3
REMARK VINA RESULT:      -8.2      1.939      2.991
REMARK  Name = 
REMARK  7 active torsions:
REMARK  status: ('A' for Active; 'I' for Inactive)
REMARK    1  A    between atoms: C_1  and  C_2
REMARK    2  A    between atoms: C_2  and  C_3
REMARK    3  A    between atoms: C_2  and  O_4
REMARK    4  A    between atoms: C_2  and  C_5
REMARK    5  A    between atoms: C_8  and  N_9
REMARK    6  A    between atoms: C_10  and  C_12
REMARK    7  A    between atoms: C_17  and  C_18
REMARK                            x       y       z     vdW  Elec       q    Type
REMARK                         _______ _______ _______ _____ _____    ______ ____
ROOT
ATOM      1  C   UNL     1       0.949   9.159  20.361  0.00  0.00    +0.000 A 
ATOM      2  C   UNL     1       1.122   8.641  21.722  0.00  0.00    +0.000 A 
ATOM      3  C   UNL     1       0.491   9.200  22.778  0.00  0.00    +0.000 A 
ATOM      4  C   UNL     1      -0.341  10.334  22.577  0.00  0.00    +0.000 A 
ATOM      5  N   UNL     1      -1.024  11.070  23.426  0.00  0.00    +0.000 NA
ATOM      6  C   UNL     1      -1.608  12.064  22.669  0.00  0.00    +0.000 A 
ATOM      7  C   UNL     1      -1.283  11.908  21.337  0.00  0.00    +0.000 A 
ATOM      8  N   UNL     1      -0.464  10.811  21.280  0.00  0.00    +0.000 N 
ATOM      9  C   UNL     1       0.168  10.241  20.183  0.00  0.00    +0.000 A 
ENDROOT
BRANCH   6  10
ATOM     10  C   UNL     1      -2.422  13.119  23.247  0.00  0.00    +0.000 A 
ATOM     11  C   UNL     1      -3.823  13.032  23.307  0.00  0.00    +0.000 A 
ATOM     12  C   UNL     1      -4.582  14.069  23.856  0.00  0.00    +0.000 A 
ATOM     13  C   UNL     1      -3.946  15.207  24.351  0.00  0.00    +0.000 A 
ATOM     14  C   UNL     1      -2.563  15.294  24.295  0.00  0.00    +0.000 A 
ATOM     15  F   UNL     1      -1.954  16.390  24.768  0.00  0.00    +0.000 F 
ATOM     16  C   UNL     1      -1.799  14.269  23.750  0.00  0.00    +0.000 A 
ENDBRANCH   6  10
BRANCH   1  18
ATOM     17  N   UNL     1       2.243   7.390  19.377  0.00  0.00    +0.000 N 
ATOM     18  C   UNL     1       1.648   8.600  19.163  0.00  0.00    +0.000 C 
ATOM     19  O   UNL     1       1.668   9.193  18.092  0.00  0.00    +0.000 OA
ATOM     20  H   UNL     1       2.093   6.884  20.240  0.00  0.00    +0.000 HD
BRANCH  17  24
ATOM     21  C   UNL     1       2.977   3.917  19.292  0.00  0.00    +0.000 C 
ATOM     22  C   UNL     1       1.860   4.487  18.399  0.00  0.00    +0.000 C 
ATOM     23  C   UNL     1       2.263   5.712  17.577  0.00  0.00    +0.000 C 
ATOM     24  C   UNL     1       3.082   6.713  18.392  0.00  0.00    +0.000 C 
ATOM     25  C   UNL     1       4.195   5.996  19.153  0.00  0.00    +0.000 C 
ATOM     26  O   UNL     1       3.628   4.990  20.006  0.00  0.00    +0.000 OA
BRANCH  21  28
ATOM     27  C   UNL     1       4.460   3.411  17.248  0.00  0.00    +0.000 C 
ATOM     28  C   UNL     1       4.011   2.942  18.636  0.00  0.00    +0.000 C 
ATOM     29  C   UNL     1       3.384   1.542  18.514  0.00  0.00    +0.000 C 
BRANCH  28  30
ATOM     30  O   UNL     1       5.199   2.846  19.430  0.00  0.00    +0.000 OA
ATOM     31  H   UNL     1       4.997   3.198  20.315  0.00  0.00    +0.000 HD
ENDBRANCH  28  30
ENDBRANCH  21  28
ENDBRANCH  17  24
ENDBRANCH   1  18
TORSDOF 5
ENDMDL
MODEL 4
REMARK VINA RESULT:      -8.1      0.860      1.115
REMARK  Name = 
REMARK  7 active torsions:
REMARK  status: ('A' for Active; 'I' for Inactive)
REMARK    1  A    between atoms: C_1  and  C_2
REMARK    2  A    between atoms: C_2  and  C_3
REMARK    3  A    between atoms: C_2  and  O_4
REMARK    4  A    between atoms: C_2  and  C_5
REMARK    5  A    between atoms: C_8  and  N_9
REMARK    6  A    between atoms: C_10  and  C_12
REMARK    7  A    between atoms: C_17  and  C_18
REMARK                            x       y       z     vdW  Elec       q    Type
REMARK                         _______ _______ _______ _____ _____    ______ ____
ROOT
ATOM      1  C   UNL     1       1.516   8.063  20.220  0.00  0.00    +0.000 A 
ATOM      2  C   UNL     1       1.490   9.046  19.132  0.00  0.00    +0.000 A 
ATOM      3  C   UNL     1       0.909  10.255  19.284  0.00  0.00    +0.000 A 
ATOM      4  C   UNL     1       0.282  10.581  20.516  0.00  0.00    +0.000 A 
ATOM      5  N   UNL     1      -0.373  11.656  20.899  0.00  0.00    +0.000 NA
ATOM      6  C   UNL     1      -0.798  11.392  22.185  0.00  0.00    +0.000 A 
ATOM      7  C   UNL     1      -0.373  10.142  22.586  0.00  0.00    +0.000 A 
ATOM      8  N   UNL     1       0.306   9.620  21.516  0.00  0.00    +0.000 N 
ATOM      9  C   UNL     1       0.909   8.377  21.380  0.00  0.00    +0.000 A 
ENDROOT
BRANCH   6  10
ATOM     10  C   UNL     1      -1.600  12.326  22.956  0.00  0.00    +0.000 A 
ATOM     11  C   UNL     1      -1.147  13.617  23.270  0.00  0.00    +0.000 A 
ATOM     12  C   UNL     1      -1.935  14.489  24.027  0.00  0.00    +0.000 A 
ATOM     13  C   UNL     1      -3.189  14.077  24.477  0.00  0.00    +0.000 A 
ATOM     14  C   UNL     1      -3.641  12.803  24.165  0.00  0.00    +0.000 A 
ATOM     15  F   UNL     1      -4.844  12.407  24.602  0.00  0.00    +0.000 F 
ATOM     16  C   UNL     1      -2.863  11.928  23.415  0.00  0.00    +0.000 A 
ENDBRANCH   6  10
BRANCH   1  18
ATOM     17  N   UNL     1       3.000   6.569  19.062  0.00  0.00    +0.000 N 
ATOM     18  C   UNL     1       2.116   6.699  20.095  0.00  0.00    +0.000 C 
ATOM     19  O   UNL     1       1.827   5.793  20.867  0.00  0.00    +0.000 OA
ATOM     20  H   UNL     1       3.298   7.376  18.531  0.00  0.00    +0.000 HD
BRANCH  17  24
ATOM     21  C   UNL     1       6.014   6.185  17.226  0.00  0.00    +0.000 C 
ATOM     22  C   UNL     1       6.031   6.073  18.761  0.00  0.00    +0.000 C 
ATOM     23  C   UNL     1       4.977   5.131  19.345  0.00  0.00    +0.000 C 
ATOM     24  C   UNL     1       3.613   5.302  18.674  0.00  0.00    +0.000 C 
ATOM     25  C   UNL     1       3.764   5.312  17.155  0.00  0.00    +0.000 C 
ATOM     26  O   UNL     1       4.658   6.366  16.764  0.00  0.00    +0.000 OA
BRANCH  21  28
ATOM     27  C   UNL     1       5.814   4.046  15.803  0.00  0.00    +0.000 C 
ATOM     28  C   UNL     1       6.767   5.085  16.404  0.00  0.00    +0.000 C 
ATOM     29  C   UNL     1       7.777   4.370  17.318  0.00  0.00    +0.000 C 
BRANCH  28  30
ATOM     30  O   UNL     1       7.474   5.664  15.302  0.00  0.00    +0.000 OA
ATOM     31  H   UNL     1       7.731   6.569  15.553  0.00  0.00    +0.000 HD
ENDBRANCH  28  30
ENDBRANCH  21  28
ENDBRANCH  17  24
ENDBRANCH   1  18
TORSDOF 5
ENDMDL
MODEL 5
REMARK VINA RESULT:      -8.1      2.175      2.976
REMARK  Name = 
REMARK  7 active torsions:
REMARK  status: ('A' for Active; 'I' for Inactive)
REMARK    1  A    between atoms: C_1  and  C_2
REMARK    2  A    between atoms: C_2  and  C_3
REMARK    3  A    between atoms: C_2  and  O_4
REMARK    4  A    between atoms: C_2  and  C_5
REMARK    5  A    between atoms: C_8  and  N_9
REMARK    6  A    between atoms: C_10  and  C_12
REMARK    7  A    between atoms: C_17  and  C_18
REMARK                            x       y       z     vdW  Elec       q    Type
REMARK                         _______ _______ _______ _____ _____    ______ ____
ROOT
ATOM      1  C   UNL     1       0.904   9.485  18.781  0.00  0.00    +0.000 A 
ATOM      2  C   UNL     1      -0.164   9.985  17.909  0.00  0.00    +0.000 A 
ATOM      3  C   UNL     1      -1.109  10.836  18.364  0.00  0.00    +0.000 A 
ATOM      4  C   UNL     1      -1.092  11.240  19.726  0.00  0.00    +0.000 A 
ATOM      5  N   UNL     1      -1.903  12.015  20.412  0.00  0.00    +0.000 NA
ATOM      6  C   UNL     1      -1.417  12.011  21.702  0.00  0.00    +0.000 A 
ATOM      7  C   UNL     1      -0.280  11.232  21.787  0.00  0.00    +0.000 A 
ATOM      8  N   UNL     1      -0.080  10.730  20.528  0.00  0.00    +0.000 N 
ATOM      9  C   UNL     1       0.905   9.865  20.072  0.00  0.00    +0.000 A 
ENDROOT
BRANCH   6  10
ATOM     10  C   UNL     1      -2.064  12.724  22.791  0.00  0.00    +0.000 A 
ATOM     11  C   UNL     1      -1.611  13.977  23.234  0.00  0.00    +0.000 A 
ATOM     12  C   UNL     1      -2.245  14.633  24.293  0.00  0.00    +0.000 A 
ATOM     13  C   UNL     1      -3.340  14.041  24.920  0.00  0.00    +0.000 A 
ATOM     14  C   UNL     1      -3.791  12.805  24.482  0.00  0.00    +0.000 A 
ATOM     15  F   UNL     1      -4.841  12.235  25.089  0.00  0.00    +0.000 F 
ATOM     16  C   UNL     1      -3.166  12.143  23.431  0.00  0.00    +0.000 A 
ENDBRANCH   6  10
BRANCH   1  18
ATOM     17  N   UNL     1       2.097   7.433  19.156  0.00  0.00    +0.000 N 
ATOM     18  C   UNL     1       1.954   8.518  18.338  0.00  0.00    +0.000 C 
ATOM     19  O   UNL     1       2.615   8.701  17.323  0.00  0.00    +0.000 OA
ATOM     20  H   UNL     1       1.445   7.265  19.911  0.00  0.00    +0.000 HD
BRANCH  17  24
ATOM     21  C   UNL     1       1.600   3.920  19.041  0.00  0.00    +0.000 C 
ATOM     22  C   UNL     1       1.740   4.718  17.733  0.00  0.00    +0.000 C 
ATOM     23  C   UNL     1       2.947   5.655  17.682  0.00  0.00    +0.000 C 
ATOM     24  C   UNL     1       3.139   6.424  18.990  0.00  0.00    +0.000 C 
ATOM     25  C   UNL     1       3.051   5.475  20.183  0.00  0.00    +0.000 C 
ATOM     26  O   UNL     1       1.785   4.798  20.172  0.00  0.00    +0.000 OA
BRANCH  21  28
ATOM     27  C   UNL     1       3.080   2.465  20.568  0.00  0.00    +0.000 C 
ATOM     28  C   UNL     1       2.433   2.602  19.186  0.00  0.00    +0.000 C 
ATOM     29  C   UNL     1       3.534   2.575  18.111  0.00  0.00    +0.000 C 
BRANCH  28  30
ATOM     30  O   UNL     1       1.599   1.449  19.019  0.00  0.00    +0.000 OA
ATOM     31  H   UNL     1       0.989   1.625  18.281  0.00  0.00    +0.000 HD
ENDBRANCH  28  30
ENDBRANCH  21  28
ENDBRANCH  17  24
ENDBRANCH   1  18
TORSDOF 5
ENDMDL
MODEL 6
REMARK VINA RESULT:      -8.1      4.324     10.800
REMARK  Name = 
REMARK  7 active torsions:
REMARK  status: ('A' for Active; 'I' for Inactive)
REMARK    1  A    between atoms: C_1  and  C_2
REMARK    2  A    between atoms: C_2  and  C_3
REMARK    3  A    between atoms: C_2  and  O_4
REMARK    4  A    between atoms: C_2  and  C_5
REMARK    5  A    between atoms: C_8  and  N_9
REMARK    6  A    between atoms: C_10  and  C_12
REMARK    7  A    between atoms: C_17  and  C_18
REMARK                            x       y       z     vdW  Elec       q    Type
REMARK                         _______ _______ _______ _____ _____    ______ ____
ROOT
ATOM      1  C   UNL     1       0.355  10.105  21.057  0.00  0.00    +0.000 A 
ATOM      2  C   UNL     1       0.310  10.847  19.794  0.00  0.00    +0.000 A 
ATOM      3  C   UNL     1       0.866  10.358  18.664  0.00  0.00    +0.000 A 
ATOM      4  C   UNL     1       1.536   9.106  18.699  0.00  0.00    +0.000 A 
ATOM      5  N   UNL     1       2.178   8.439  17.765  0.00  0.00    +0.000 NA
ATOM      6  C   UNL     1       2.662   7.307  18.384  0.00  0.00    +0.000 A 
ATOM      7  C   UNL     1       2.287   7.285  19.712  0.00  0.00    +0.000 A 
ATOM      8  N   UNL     1       1.578   8.440  19.916  0.00  0.00    +0.000 N 
ATOM      9  C   UNL     1       1.001   8.924  21.082  0.00  0.00    +0.000 A 
ENDROOT
BRANCH   6  10
ATOM     10  C   UNL     1       3.473   6.317  17.695  0.00  0.00    +0.000 A 
ATOM     11  C   UNL     1       4.574   6.676  16.901  0.00  0.00    +0.000 A 
ATOM     12  C   UNL     1       5.326   5.703  16.238  0.00  0.00    +0.000 A 
ATOM     13  C   UNL     1       4.985   4.356  16.364  0.00  0.00    +0.000 A 
ATOM     14  C   UNL     1       3.900   3.999  17.150  0.00  0.00    +0.000 A 
ATOM     15  F   UNL     1       3.571   2.705  17.267  0.00  0.00    +0.000 F 
ATOM     16  C   UNL     1       3.143   4.960  17.812  0.00  0.00    +0.000 A 
ENDBRANCH   6  10
BRANCH   1  18
ATOM     17  N   UNL     1      -1.018  11.710  22.203  0.00  0.00    +0.000 N 
ATOM     18  C   UNL     1      -0.214  10.614  22.342  0.00  0.00    +0.000 C 
ATOM     19  O   UNL     1       0.028  10.076  23.415  0.00  0.00    +0.000 OA
ATOM     20  H   UNL     1      -1.287  12.042  21.286  0.00  0.00    +0.000 HD
BRANCH  17  24
ATOM     21  C   UNL     1      -3.457  14.282  21.996  0.00  0.00    +0.000 C 
ATOM     22  C   UNL     1      -3.886  12.842  22.334  0.00  0.00    +0.000 C 
ATOM     23  C   UNL     1      -3.082  12.182  23.455  0.00  0.00    +0.000 C 
ATOM     24  C   UNL     1      -1.582  12.450  23.328  0.00  0.00    +0.000 C 
ATOM     25  C   UNL     1      -1.325  13.934  23.075  0.00  0.00    +0.000 C 
ATOM     26  O   UNL     1      -2.018  14.351  21.889  0.00  0.00    +0.000 OA
BRANCH  21  28
ATOM     27  C   UNL     1      -5.545  15.613  22.708  0.00  0.00    +0.000 C 
ATOM     28  C   UNL     1      -4.031  15.441  22.878  0.00  0.00    +0.000 C 
ATOM     29  C   UNL     1      -3.330  16.759  22.505  0.00  0.00    +0.000 C 
BRANCH  28  30
ATOM     30  O   UNL     1      -3.812  15.182  24.270  0.00  0.00    +0.000 OA
ATOM     31  H   UNL     1      -2.890  14.889  24.378  0.00  0.00    +0.000 HD
ENDBRANCH  28  30
ENDBRANCH  21  28
ENDBRANCH  17  24
ENDBRANCH   1  18
TORSDOF 5
ENDMDL
MODEL 7
REMARK VINA RESULT:      -8.0      4.417     10.865
REMARK  Name = 
REMARK  7 active torsions:
REMARK  status: ('A' for Active; 'I' for Inactive)
REMARK    1  A    between atoms: C_1  and  C_2
REMARK    2  A    between atoms: C_2  and  C_3
REMARK    3  A    between atoms: C_2  and  O_4
REMARK    4  A    between atoms: C_2  and  C_5
REMARK    5  A    between atoms: C_8  and  N_9
REMARK    6  A    between atoms: C_10  and  C_12
REMARK    7  A    between atoms: C_17  and  C_18
REMARK                            x       y       z     vdW  Elec       q    Type
REMARK                         _______ _______ _______ _____ _____    ______ ____
ROOT
ATOM      1  C   UNL     1       0.363  10.047  21.093  0.00  0.00    +0.000 A 
ATOM      2  C   UNL     1       0.341  10.774  19.820  0.00  0.00    +0.000 A 
ATOM      3  C   UNL     1       0.887  10.257  18.699  0.00  0.00    +0.000 A 
ATOM      4  C   UNL     1       1.526   8.989  18.752  0.00  0.00    +0.000 A 
ATOM      5  N   UNL     1       2.153   8.294  17.828  0.00  0.00    +0.000 NA
ATOM      6  C   UNL     1       2.608   7.158  18.464  0.00  0.00    +0.000 A 
ATOM      7  C   UNL     1       2.229   7.164  19.791  0.00  0.00    +0.000 A 
ATOM      8  N   UNL     1       1.548   8.339  19.977  0.00  0.00    +0.000 N 
ATOM      9  C   UNL     1       0.980   8.852  21.136  0.00  0.00    +0.000 A 
ENDROOT
BRANCH   6  10
ATOM     10  C   UNL     1       3.396   6.140  17.791  0.00  0.00    +0.000 A 
ATOM     11  C   UNL     1       3.010   4.790  17.772  0.00  0.00    +0.000 A 
ATOM     12  C   UNL     1       3.795   3.829  17.128  0.00  0.00    +0.000 A 
ATOM     13  C   UNL     1       4.977   4.211  16.494  0.00  0.00    +0.000 A 
ATOM     14  C   UNL     1       5.359   5.545  16.508  0.00  0.00    +0.000 A 
ATOM     15  F   UNL     1       6.496   5.909  15.901  0.00  0.00    +0.000 F 
ATOM     16  C   UNL     1       4.586   6.507  17.148  0.00  0.00    +0.000 A 
ENDBRANCH   6  10
BRANCH   1  18
ATOM     17  N   UNL     1      -0.995  11.684  22.211  0.00  0.00    +0.000 N 
ATOM     18  C   UNL     1      -0.197  10.588  22.370  0.00  0.00    +0.000 C 
ATOM     19  O   UNL     1       0.049  10.071  23.453  0.00  0.00    +0.000 OA
ATOM     20  H   UNL     1      -1.267  11.998  21.289  0.00  0.00    +0.000 HD
BRANCH  17  24
ATOM     21  C   UNL     1      -3.494  14.195  21.973  0.00  0.00    +0.000 C 
ATOM     22  C   UNL     1      -3.883  12.760  22.370  0.00  0.00    +0.000 C 
ATOM     23  C   UNL     1      -3.040  12.157  23.495  0.00  0.00    +0.000 C 
ATOM     24  C   UNL     1      -1.550  12.452  23.323  0.00  0.00    +0.000 C 
ATOM     25  C   UNL     1      -1.331  13.931  23.013  0.00  0.00    +0.000 C 
ATOM     26  O   UNL     1      -2.060  14.291  21.830  0.00  0.00    +0.000 OA
BRANCH  21  28
ATOM     27  C   UNL     1      -5.595  15.497  22.699  0.00  0.00    +0.000 C 
ATOM     28  C   UNL     1      -4.073  15.372  22.827  0.00  0.00    +0.000 C 
ATOM     29  C   UNL     1      -3.422  16.693  22.381  0.00  0.00    +0.000 C 
BRANCH  28  30
ATOM     30  O   UNL     1      -3.804  15.174  24.220  0.00  0.00    +0.000 OA
ATOM     31  H   UNL     1      -4.388  14.464  24.540  0.00  0.00    +0.000 HD
ENDBRANCH  28  30
ENDBRANCH  21  28
ENDBRANCH  17  24
ENDBRANCH   1  18
TORSDOF 5
ENDMDL
MODEL 8
REMARK VINA RESULT:      -8.0      1.240      1.550
REMARK  Name = 
REMARK  7 active torsions:
REMARK  status: ('A' for Active; 'I' for Inactive)
REMARK    1  A    between atoms: C_1  and  C_2
REMARK    2  A    between atoms: C_2  and  C_3
REMARK    3  A    between atoms: C_2  and  O_4
REMARK    4  A    between atoms: C_2  and  C_5
REMARK    5  A    between atoms: C_8  and  N_9
REMARK    6  A    between atoms: C_10  and  C_12
REMARK    7  A    between atoms: C_17  and  C_18
REMARK                            x       y       z     vdW  Elec       q    Type
REMARK                         _______ _______ _______ _____ _____    ______ ____
ROOT
ATOM      1  C   UNL     1       1.833   7.761  19.979  0.00  0.00    +0.000 A 
ATOM      2  C   UNL     1       1.746   8.681  18.840  0.00  0.00    +0.000 A 
ATOM      3  C   UNL     1       1.157   9.891  18.951  0.00  0.00    +0.000 A 
ATOM      4  C   UNL     1       0.581  10.279  20.190  0.00  0.00    +0.000 A 
ATOM      5  N   UNL     1      -0.069  11.366  20.542  0.00  0.00    +0.000 NA
ATOM      6  C   UNL     1      -0.433  11.171  21.858  0.00  0.00    +0.000 A 
ATOM      7  C   UNL     1       0.025   9.950  22.309  0.00  0.00    +0.000 A 
ATOM      8  N   UNL     1       0.662   9.375  21.240  0.00  0.00    +0.000 N 
ATOM      9  C   UNL     1       1.274   8.133  21.145  0.00  0.00    +0.000 A 
ENDROOT
BRANCH   6  10
ATOM     10  C   UNL     1      -1.213  12.138  22.612  0.00  0.00    +0.000 A 
ATOM     11  C   UNL     1      -2.483  11.833  23.127  0.00  0.00    +0.000 A 
ATOM     12  C   UNL     1      -3.216  12.789  23.837  0.00  0.00    +0.000 A 
ATOM     13  C   UNL     1      -2.685  14.062  24.038  0.00  0.00    +0.000 A 
ATOM     14  C   UNL     1      -1.429  14.365  23.532  0.00  0.00    +0.000 A 
ATOM     15  F   UNL     1      -0.922  15.590  23.724  0.00  0.00    +0.000 F 
ATOM     16  C   UNL     1      -0.692  13.422  22.824  0.00  0.00    +0.000 A 
ENDBRANCH   6  10
BRANCH   1  18
ATOM     17  N   UNL     1       3.693   6.374  19.351  0.00  0.00    +0.000 N 
ATOM     18  C   UNL     1       2.443   6.398  19.902  0.00  0.00    +0.000 C 
ATOM     19  O   UNL     1       1.857   5.403  20.311  0.00  0.00    +0.000 OA
ATOM     20  H   UNL     1       4.184   7.234  19.143  0.00  0.00    +0.000 HD
BRANCH  17  24
ATOM     21  C   UNL     1       5.980   5.890  16.679  0.00  0.00    +0.000 C 
ATOM     22  C   UNL     1       6.504   6.237  18.084  0.00  0.00    +0.000 C 
ATOM     23  C   UNL     1       5.935   5.372  19.209  0.00  0.00    +0.000 C 
ATOM     24  C   UNL     1       4.430   5.147  19.063  0.00  0.00    +0.000 C 
ATOM     25  C   UNL     1       4.089   4.732  17.634  0.00  0.00    +0.000 C 
ATOM     26  O   UNL     1       4.545   5.738  16.716  0.00  0.00    +0.000 OA
BRANCH  21  28
ATOM     27  C   UNL     1       7.090   5.105  14.491  0.00  0.00    +0.000 C 
ATOM     28  C   UNL     1       6.671   4.713  15.912  0.00  0.00    +0.000 C 
ATOM     29  C   UNL     1       5.705   3.517  15.839  0.00  0.00    +0.000 C 
BRANCH  28  30
ATOM     30  O   UNL     1       7.867   4.298  16.582  0.00  0.00    +0.000 OA
ATOM     31  H   UNL     1       7.824   3.333  16.701  0.00  0.00    +0.000 HD
ENDBRANCH  28  30
ENDBRANCH  21  28
ENDBRANCH  17  24
ENDBRANCH   1  18
TORSDOF 5
ENDMDL
MODEL 9
REMARK VINA RESULT:      -8.0      0.982      1.010
REMARK  Name = 
REMARK  7 active torsions:
REMARK  status: ('A' for Active; 'I' for Inactive)
REMARK    1  A    between atoms: C_1  and  C_2
REMARK    2  A    between atoms: C_2  and  C_3
REMARK    3  A    between atoms: C_2  and  O_4
REMARK    4  A    between atoms: C_2  and  C_5
REMARK    5  A    between atoms: C_8  and  N_9
REMARK    6  A    between atoms: C_10  and  C_12
REMARK    7  A    between atoms: C_17  and  C_18
REMARK                            x       y       z     vdW  Elec       q    Type
REMARK                         _______ _______ _______ _____ _____    ______ ____
ROOT
ATOM      1  C   UNL     1       1.802   7.780  19.884  0.00  0.00    +0.000 A 
ATOM      2  C   UNL     1       1.824   8.684  18.730  0.00  0.00    +0.000 A 
ATOM      3  C   UNL     1       1.199   9.881  18.755  0.00  0.00    +0.000 A 
ATOM      4  C   UNL     1       0.477  10.269  19.916  0.00  0.00    +0.000 A 
ATOM      5  N   UNL     1      -0.235  11.344  20.176  0.00  0.00    +0.000 NA
ATOM      6  C   UNL     1      -0.741  11.155  21.445  0.00  0.00    +0.000 A 
ATOM      7  C   UNL     1      -0.309   9.951  21.962  0.00  0.00    +0.000 A 
ATOM      8  N   UNL     1       0.458   9.380  20.981  0.00  0.00    +0.000 N 
ATOM      9  C   UNL     1       1.106   8.152  20.974  0.00  0.00    +0.000 A 
ENDROOT
BRANCH   6  10
ATOM     10  C   UNL     1      -1.624  12.111  22.091  0.00  0.00    +0.000 A 
ATOM     11  C   UNL     1      -1.711  13.448  21.671  0.00  0.00    +0.000 A 
ATOM     12  C   UNL     1      -2.558  14.350  22.322  0.00  0.00    +0.000 A 
ATOM     13  C   UNL     1      -3.330  13.921  23.402  0.00  0.00    +0.000 A 
ATOM     14  C   UNL     1      -3.248  12.600  23.817  0.00  0.00    +0.000 A 
ATOM     15  F   UNL     1      -3.986  12.191  24.857  0.00  0.00    +0.000 F 
ATOM     16  C   UNL     1      -2.406  11.696  23.177  0.00  0.00    +0.000 A 
ENDBRANCH   6  10
BRANCH   1  18
ATOM     17  N   UNL     1       3.537   6.325  19.077  0.00  0.00    +0.000 N 
ATOM     18  C   UNL     1       2.450   6.432  19.897  0.00  0.00    +0.000 C 
ATOM     19  O   UNL     1       2.026   5.519  20.594  0.00  0.00    +0.000 OA
ATOM     20  H   UNL     1       3.921   7.141  18.617  0.00  0.00    +0.000 HD
BRANCH  17  24
ATOM     21  C   UNL     1       6.041   5.793  16.617  0.00  0.00    +0.000 C 
ATOM     22  C   UNL     1       6.446   6.098  18.071  0.00  0.00    +0.000 C 
ATOM     23  C   UNL     1       5.744   5.238  19.123  0.00  0.00    +0.000 C 
ATOM     24  C   UNL     1       4.251   5.075  18.836  0.00  0.00    +0.000 C 
ATOM     25  C   UNL     1       4.028   4.695  17.373  0.00  0.00    +0.000 C 
ATOM     26  O   UNL     1       4.603   5.696  16.520  0.00  0.00    +0.000 OA
BRANCH  21  28
ATOM     27  C   UNL     1       7.383   5.017  14.560  0.00  0.00    +0.000 C 
ATOM     28  C   UNL     1       6.755   4.602  15.895  0.00  0.00    +0.000 C 
ATOM     29  C   UNL     1       5.737   3.476  15.643  0.00  0.00    +0.000 C 
BRANCH  28  30
ATOM     30  O   UNL     1       7.824   4.084  16.696  0.00  0.00    +0.000 OA
ATOM     31  H   UNL     1       8.320   4.839  17.057  0.00  0.00    +0.000 HD
ENDBRANCH  28  30
ENDBRANCH  21  28
ENDBRANCH  17  24
ENDBRANCH   1  18
TORSDOF 5
ENDMDL
