MODEL 1
REMARK VINA RESULT:      -7.7      0.000      0.000
REMARK  Name = 
REMARK  12 active torsions:
REMARK  status: ('A' for Active; 'I' for Inactive)
REMARK    1  A    between atoms: C_1  and  O_2
REMARK    2  A    between atoms: O_2  and  N_3
REMARK    3  A    between atoms: C_4  and  C_5
REMARK    4  A    between atoms: C_4  and  C_6
REMARK    5  A    between atoms: C_8  and  C_9
REMARK    6  A    between atoms: C_11  and  C_12
REMARK    7  A    between atoms: C_13  and  N_14
REMARK    8  A    between atoms: C_15  and  C_17
REMARK    9  A    between atoms: C_21  and  S_22
REMARK   10  A    between atoms: S_22  and  N_25
REMARK   11  A    between atoms: N_25  and  C_26
REMARK   12  A    between atoms: C_29  and  C_30
REMARK                            x       y       z     vdW  Elec       q    Type
REMARK                         _______ _______ _______ _____ _____    ______ ____
ROOT
ATOM      1  N   UNL     1       3.101   6.828  18.825  0.00  0.00    +0.000 N 
ATOM      2  C   UNL     1       2.115   7.791  18.619  0.00  0.00    +0.000 C 
ATOM      3  O   UNL     1       1.688   8.139  17.531  0.00  0.00    +0.000 OA
ATOM      4  H   UNL     1       3.178   6.485  19.787  0.00  0.00    +0.000 HD
ENDROOT
BRANCH   1  12
ATOM      5  C   UNL     1       3.605   4.690  17.687  0.00  0.00    +0.000 A 
ATOM      6  C   UNL     1       4.358   3.928  16.758  0.00  0.00    +0.000 A 
ATOM      7  C   UNL     1       5.397   4.488  16.025  0.00  0.00    +0.000 A 
ATOM      8  C   UNL     1       6.187   3.703  15.021  0.00  0.00    +0.000 C 
ATOM      9  C   UNL     1       5.697   5.824  16.233  0.00  0.00    +0.000 A 
ATOM     10  C   UNL     1       4.997   6.624  17.162  0.00  0.00    +0.000 A 
ATOM     11  C   UNL     1       5.545   8.021  17.264  0.00  0.00    +0.000 C 
ATOM     12  C   UNL     1       3.900   6.083  17.886  0.00  0.00    +0.000 A 
BRANCH   5  14
ATOM     13  N   UNL     1       2.649   3.393  19.527  0.00  0.00    +0.000 NA
ATOM     14  C   UNL     1       2.462   3.953  18.364  0.00  0.00    +0.000 C 
ATOM     15  C   UNL     1       1.098   3.945  17.662  0.00  0.00    +0.000 C 
BRANCH  13  17
ATOM     16  C   UNL     1       1.464   2.880  21.441  0.00  0.00    +0.000 C 
ATOM     17  O   UNL     1       1.450   2.855  20.021  0.00  0.00    +0.000 OA
ENDBRANCH  13  17
ENDBRANCH   5  14
ENDBRANCH   1  12
BRANCH   2  18
ATOM     18  C   UNL     1       1.565   8.436  19.816  0.00  0.00    +0.000 A 
ATOM     19  S   UNL     1       1.631   7.619  21.331  0.00  0.00    +0.000 S 
ATOM     20  C   UNL     1       1.009   8.965  22.175  0.00  0.00    +0.000 A 
ATOM     21  C   UNL     1       0.740  10.017  21.335  0.00  0.00    +0.000 A 
ATOM     22  C   UNL     1       1.074   9.729  19.970  0.00  0.00    +0.000 A 
BRANCH  22  23
ATOM     23  S   UNL     1       0.816  10.938  18.740  0.00  0.00    +0.000 S 
ATOM     24  O   UNL     1       0.249  12.099  19.380  0.00  0.00    +0.000 OA
ATOM     25  O   UNL     1       2.119  11.043  18.104  0.00  0.00    +0.000 OA
BRANCH  23  26
ATOM     26  N   UNL     1      -0.308  10.360  17.584  0.00  0.00    +0.000 N 
ATOM     27  H   UNL     1      -0.312   9.349  17.754  0.00  0.00    +0.000 HD
BRANCH  26  28
ATOM     28  C   UNL     1      -1.626  10.884  17.802  0.00  0.00    +0.000 A 
ATOM     29  O   UNL     1      -2.103  11.261  19.023  0.00  0.00    +0.000 OA
ATOM     30  N   UNL     1      -3.421  11.676  18.910  0.00  0.00    +0.000 NA
ATOM     31  C   UNL     1      -3.746  11.505  17.620  0.00  0.00    +0.000 A 
ATOM     32  C   UNL     1      -5.122  11.809  17.152  0.00  0.00    +0.000 C 
ATOM     33  C   UNL     1      -2.644  11.001  16.882  0.00  0.00    +0.000 A 
ATOM     34 CL   UNL     1      -2.649  10.585  15.239  0.00  0.00    +0.000 Cl
ENDBRANCH  26  28
ENDBRANCH  23  26
ENDBRANCH  22  23
ENDBRANCH   2  18
TORSDOF 7
ENDMDL
MODEL 2
REMARK VINA RESULT:      -7.3      6.811      9.431
REMARK  Name = 
REMARK  12 active torsions:
REMARK  status: ('A' for Active; 'I' for Inactive)
REMARK    1  A    between atoms: C_1  and  O_2
REMARK    2  A    between atoms: O_2  and  N_3
REMARK    3  A    between atoms: C_4  and  C_5
REMARK    4  A    between atoms: C_4  and  C_6
REMARK    5  A    between atoms: C_8  and  C_9
REMARK    6  A    between atoms: C_11  and  C_12
REMARK    7  A    between atoms: C_13  and  N_14
REMARK    8  A    between atoms: C_15  and  C_17
REMARK    9  A    between atoms: C_21  and  S_22
REMARK   10  A    between atoms: S_22  and  N_25
REMARK   11  A    between atoms: N_25  and  C_26
REMARK   12  A    between atoms: C_29  and  C_30
REMARK                            x       y       z     vdW  Elec       q    Type
REMARK                         _______ _______ _______ _____ _____    ______ ____
ROOT
ATOM      1  N   UNL     1      -4.724  13.031  19.878  0.00  0.00    +0.000 N 
ATOM      2  C   UNL     1      -5.636  12.729  20.889  0.00  0.00    +0.000 C 
ATOM      3  O   UNL     1      -6.213  11.662  21.019  0.00  0.00    +0.000 OA
ATOM      4  H   UNL     1      -4.159  13.870  20.041  0.00  0.00    +0.000 HD
ENDROOT
BRANCH   1  12
ATOM      5  C   UNL     1      -2.914  11.878  18.649  0.00  0.00    +0.000 A 
ATOM      6  C   UNL     1      -2.457  11.108  17.550  0.00  0.00    +0.000 A 
ATOM      7  C   UNL     1      -3.312  10.713  16.529  0.00  0.00    +0.000 A 
ATOM      8  C   UNL     1      -2.852   9.878  15.372  0.00  0.00    +0.000 C 
ATOM      9  C   UNL     1      -4.639  11.104  16.600  0.00  0.00    +0.000 A 
ATOM     10  C   UNL     1      -5.143  11.891  17.659  0.00  0.00    +0.000 A 
ATOM     11  C   UNL     1      -6.594  12.248  17.485  0.00  0.00    +0.000 C 
ATOM     12  C   UNL     1      -4.296  12.264  18.737  0.00  0.00    +0.000 A 
BRANCH   5  14
ATOM     13  N   UNL     1      -1.760  11.391  20.751  0.00  0.00    +0.000 NA
ATOM     14  C   UNL     1      -1.873  12.177  19.716  0.00  0.00    +0.000 C 
ATOM     15  C   UNL     1      -0.947  13.381  19.497  0.00  0.00    +0.000 C 
BRANCH  13  17
ATOM     16  C   UNL     1      -0.637  10.970  22.723  0.00  0.00    +0.000 C 
ATOM     17  O   UNL     1      -0.682  11.783  21.560  0.00  0.00    +0.000 OA
ENDBRANCH  13  17
ENDBRANCH   5  14
ENDBRANCH   1  12
BRANCH   2  18
ATOM     18  C   UNL     1      -5.922  13.792  21.856  0.00  0.00    +0.000 A 
ATOM     19  S   UNL     1      -7.381  14.698  21.722  0.00  0.00    +0.000 S 
ATOM     20  C   UNL     1      -7.085  15.543  23.174  0.00  0.00    +0.000 A 
ATOM     21  C   UNL     1      -5.901  15.163  23.756  0.00  0.00    +0.000 A 
ATOM     22  C   UNL     1      -5.227  14.139  23.011  0.00  0.00    +0.000 A 
BRANCH  22  23
ATOM     23  S   UNL     1      -3.705  13.509  23.584  0.00  0.00    +0.000 S 
ATOM     24  O   UNL     1      -3.459  14.076  24.886  0.00  0.00    +0.000 OA
ATOM     25  O   UNL     1      -3.874  12.072  23.455  0.00  0.00    +0.000 OA
BRANCH  23  26
ATOM     26  N   UNL     1      -2.442  14.003  22.537  0.00  0.00    +0.000 N 
ATOM     27  H   UNL     1      -2.948  14.355  21.718  0.00  0.00    +0.000 HD
BRANCH  26  28
ATOM     28  C   UNL     1      -1.654  15.062  23.101  0.00  0.00    +0.000 A 
ATOM     29  O   UNL     1      -0.590  14.859  23.930  0.00  0.00    +0.000 OA
ATOM     30  N   UNL     1      -0.072  16.077  24.343  0.00  0.00    +0.000 NA
ATOM     31  C   UNL     1      -0.859  17.012  23.791  0.00  0.00    +0.000 A 
ATOM     32  C   UNL     1      -0.616  18.450  24.069  0.00  0.00    +0.000 C 
ATOM     33  C   UNL     1      -1.877  16.417  23.001  0.00  0.00    +0.000 A 
ATOM     34 CL   UNL     1      -3.116  17.236  22.185  0.00  0.00    +0.000 Cl
ENDBRANCH  26  28
ENDBRANCH  23  26
ENDBRANCH  22  23
ENDBRANCH   2  18
TORSDOF 7
ENDMDL
MODEL 3
REMARK VINA RESULT:      -7.3      2.811      3.790
REMARK  Name = 
REMARK  12 active torsions:
REMARK  status: ('A' for Active; 'I' for Inactive)
REMARK    1  A    between atoms: C_1  and  O_2
REMARK    2  A    between atoms: O_2  and  N_3
REMARK    3  A    between atoms: C_4  and  C_5
REMARK    4  A    between atoms: C_4  and  C_6
REMARK    5  A    between atoms: C_8  and  C_9
REMARK    6  A    between atoms: C_11  and  C_12
REMARK    7  A    between atoms: C_13  and  N_14
REMARK    8  A    between atoms: C_15  and  C_17
REMARK    9  A    between atoms: C_21  and  S_22
REMARK   10  A    between atoms: S_22  and  N_25
REMARK   11  A    between atoms: N_25  and  C_26
REMARK   12  A    between atoms: C_29  and  C_30
REMARK                            x       y       z     vdW  Elec       q    Type
REMARK                         _______ _______ _______ _____ _____    ______ ____
ROOT
ATOM      1  N   UNL     1       2.737   7.013  19.025  0.00  0.00    +0.000 N 
ATOM      2  C   UNL     1       1.890   8.091  18.770  0.00  0.00    +0.000 C 
ATOM      3  O   UNL     1       1.603   8.513  17.663  0.00  0.00    +0.000 OA
ATOM      4  H   UNL     1       2.690   6.641  19.978  0.00  0.00    +0.000 HD
ENDROOT
BRANCH   1  12
ATOM      5  C   UNL     1       3.292   4.784  18.106  0.00  0.00    +0.000 A 
ATOM      6  C   UNL     1       4.034   3.956  17.227  0.00  0.00    +0.000 A 
ATOM      7  C   UNL     1       5.003   4.474  16.377  0.00  0.00    +0.000 A 
ATOM      8  C   UNL     1       5.779   3.616  15.424  0.00  0.00    +0.000 C 
ATOM      9  C   UNL     1       5.243   5.838  16.416  0.00  0.00    +0.000 A 
ATOM     10  C   UNL     1       4.552   6.707  17.289  0.00  0.00    +0.000 A 
ATOM     11  C   UNL     1       5.031   8.130  17.201  0.00  0.00    +0.000 C 
ATOM     12  C   UNL     1       3.523   6.203  18.131  0.00  0.00    +0.000 A 
BRANCH   5  14
ATOM     13  N   UNL     1       2.143   4.298  20.210  0.00  0.00    +0.000 NA
ATOM     14  C   UNL     1       2.225   4.078  18.926  0.00  0.00    +0.000 C 
ATOM     15  C   UNL     1       1.239   3.164  18.187  0.00  0.00    +0.000 C 
BRANCH  13  17
ATOM     16  C   UNL     1       1.479   2.665  21.702  0.00  0.00    +0.000 C 
ATOM     17  O   UNL     1       1.036   3.631  20.760  0.00  0.00    +0.000 OA
ENDBRANCH  13  17
ENDBRANCH   5  14
ENDBRANCH   1  12
BRANCH   2  18
ATOM     18  C   UNL     1       1.317   8.766  19.938  0.00  0.00    +0.000 A 
ATOM     19  S   UNL     1       1.140   7.906  21.420  0.00  0.00    +0.000 S 
ATOM     20  C   UNL     1       0.614   9.295  22.258  0.00  0.00    +0.000 A 
ATOM     21  C   UNL     1       0.557  10.396  21.440  0.00  0.00    +0.000 A 
ATOM     22  C   UNL     1       0.978  10.106  20.100  0.00  0.00    +0.000 A 
BRANCH  22  23
ATOM     23  S   UNL     1       0.987  11.373  18.901  0.00  0.00    +0.000 S 
ATOM     24  O   UNL     1       2.275  11.352  18.253  0.00  0.00    +0.000 OA
ATOM     25  O   UNL     1      -0.206  11.095  18.119  0.00  0.00    +0.000 OA
BRANCH  23  26
ATOM     26  N   UNL     1       0.796  12.895  19.663  0.00  0.00    +0.000 N 
ATOM     27  H   UNL     1       0.172  12.682  20.448  0.00  0.00    +0.000 HD
BRANCH  26  28
ATOM     28  C   UNL     1       2.037  13.409  20.167  0.00  0.00    +0.000 A 
ATOM     29  O   UNL     1       2.494  13.187  21.434  0.00  0.00    +0.000 OA
ATOM     30  N   UNL     1       3.693  13.855  21.629  0.00  0.00    +0.000 NA
ATOM     31  C   UNL     1       3.932  14.514  20.486  0.00  0.00    +0.000 A 
ATOM     32  C   UNL     1       5.128  15.385  20.363  0.00  0.00    +0.000 C 
ATOM     33  C   UNL     1       2.909  14.267  19.534  0.00  0.00    +0.000 A 
ATOM     34 CL   UNL     1       2.793  14.954  17.989  0.00  0.00    +0.000 Cl
ENDBRANCH  26  28
ENDBRANCH  23  26
ENDBRANCH  22  23
ENDBRANCH   2  18
TORSDOF 7
ENDMDL
MODEL 4
REMARK VINA RESULT:      -7.2      6.589      9.246
REMARK  Name = 
REMARK  12 active torsions:
REMARK  status: ('A' for Active; 'I' for Inactive)
REMARK    1  A    between atoms: C_1  and  O_2
REMARK    2  A    between atoms: O_2  and  N_3
REMARK    3  A    between atoms: C_4  and  C_5
REMARK    4  A    between atoms: C_4  and  C_6
REMARK    5  A    between atoms: C_8  and  C_9
REMARK    6  A    between atoms: C_11  and  C_12
REMARK    7  A    between atoms: C_13  and  N_14
REMARK    8  A    between atoms: C_15  and  C_17
REMARK    9  A    between atoms: C_21  and  S_22
REMARK   10  A    between atoms: S_22  and  N_25
REMARK   11  A    between atoms: N_25  and  C_26
REMARK   12  A    between atoms: C_29  and  C_30
REMARK                            x       y       z     vdW  Elec       q    Type
REMARK                         _______ _______ _______ _____ _____    ______ ____
ROOT
ATOM      1  N   UNL     1      -4.557  13.128  19.882  0.00  0.00    +0.000 N 
ATOM      2  C   UNL     1      -5.392  12.860  20.966  0.00  0.00    +0.000 C 
ATOM      3  O   UNL     1      -5.941  11.793  21.183  0.00  0.00    +0.000 OA
ATOM      4  H   UNL     1      -3.995  13.980  19.968  0.00  0.00    +0.000 HD
ENDROOT
BRANCH   1  12
ATOM      5  C   UNL     1      -2.826  11.908  18.603  0.00  0.00    +0.000 A 
ATOM      6  C   UNL     1      -2.436  11.095  17.510  0.00  0.00    +0.000 A 
ATOM      7  C   UNL     1      -3.348  10.675  16.549  0.00  0.00    +0.000 A 
ATOM      8  C   UNL     1      -2.958   9.795  15.401  0.00  0.00    +0.000 C 
ATOM      9  C   UNL     1      -4.664  11.086  16.675  0.00  0.00    +0.000 A 
ATOM     10  C   UNL     1      -5.104  11.916  17.730  0.00  0.00    +0.000 A 
ATOM     11  C   UNL     1      -6.558  12.286  17.618  0.00  0.00    +0.000 C 
ATOM     12  C   UNL     1      -4.197  12.316  18.749  0.00  0.00    +0.000 A 
BRANCH   5  14
ATOM     13  N   UNL     1      -1.670  11.583  20.734  0.00  0.00    +0.000 NA
ATOM     14  C   UNL     1      -1.728  12.231  19.603  0.00  0.00    +0.000 C 
ATOM     15  C   UNL     1      -0.686  13.285  19.209  0.00  0.00    +0.000 C 
BRANCH  13  17
ATOM     16  C   UNL     1       0.343  10.847  21.594  0.00  0.00    +0.000 C 
ATOM     17  O   UNL     1      -0.531  11.959  21.466  0.00  0.00    +0.000 OA
ENDBRANCH  13  17
ENDBRANCH   5  14
ENDBRANCH   1  12
BRANCH   2  18
ATOM     18  C   UNL     1      -5.626  13.962  21.904  0.00  0.00    +0.000 A 
ATOM     19  S   UNL     1      -6.963  15.020  21.660  0.00  0.00    +0.000 S 
ATOM     20  C   UNL     1      -6.679  15.848  23.125  0.00  0.00    +0.000 A 
ATOM     21  C   UNL     1      -5.586  15.350  23.791  0.00  0.00    +0.000 A 
ATOM     22  C   UNL     1      -4.979  14.248  23.103  0.00  0.00    +0.000 A 
BRANCH  22  23
ATOM     23  S   UNL     1      -3.579  13.465  23.786  0.00  0.00    +0.000 S 
ATOM     24  O   UNL     1      -3.319  14.072  25.067  0.00  0.00    +0.000 OA
ATOM     25  O   UNL     1      -3.928  12.055  23.725  0.00  0.00    +0.000 OA
BRANCH  23  26
ATOM     26  N   UNL     1      -2.217  13.731  22.781  0.00  0.00    +0.000 N 
ATOM     27  H   UNL     1      -2.347  13.043  22.032  0.00  0.00    +0.000 HD
BRANCH  26  28
ATOM     28  C   UNL     1      -2.210  15.051  22.217  0.00  0.00    +0.000 A 
ATOM     29  O   UNL     1      -2.648  15.343  20.959  0.00  0.00    +0.000 OA
ATOM     30  N   UNL     1      -2.464  16.692  20.694  0.00  0.00    +0.000 NA
ATOM     31  C   UNL     1      -1.873  17.198  21.786  0.00  0.00    +0.000 A 
ATOM     32  C   UNL     1      -1.482  18.630  21.825  0.00  0.00    +0.000 C 
ATOM     33  C   UNL     1      -1.686  16.197  22.773  0.00  0.00    +0.000 A 
ATOM     34 CL   UNL     1      -0.920  16.400  24.271  0.00  0.00    +0.000 Cl
ENDBRANCH  26  28
ENDBRANCH  23  26
ENDBRANCH  22  23
ENDBRANCH   2  18
TORSDOF 7
ENDMDL
MODEL 5
REMARK VINA RESULT:      -7.2      7.189      9.984
REMARK  Name = 
REMARK  12 active torsions:
REMARK  status: ('A' for Active; 'I' for Inactive)
REMARK    1  A    between atoms: C_1  and  O_2
REMARK    2  A    between atoms: O_2  and  N_3
REMARK    3  A    between atoms: C_4  and  C_5
REMARK    4  A    between atoms: C_4  and  C_6
REMARK    5  A    between atoms: C_8  and  C_9
REMARK    6  A    between atoms: C_11  and  C_12
REMARK    7  A    between atoms: C_13  and  N_14
REMARK    8  A    between atoms: C_15  and  C_17
REMARK    9  A    between atoms: C_21  and  S_22
REMARK   10  A    between atoms: S_22  and  N_25
REMARK   11  A    between atoms: N_25  and  C_26
REMARK   12  A    between atoms: C_29  and  C_30
REMARK                            x       y       z     vdW  Elec       q    Type
REMARK                         _______ _______ _______ _____ _____    ______ ____
ROOT
ATOM      1  N   UNL     1      -4.635  13.135  20.020  0.00  0.00    +0.000 N 
ATOM      2  C   UNL     1      -5.455  12.840  21.109  0.00  0.00    +0.000 C 
ATOM      3  O   UNL     1      -5.925  11.743  21.357  0.00  0.00    +0.000 OA
ATOM      4  H   UNL     1      -4.138  14.028  20.082  0.00  0.00    +0.000 HD
ENDROOT
BRANCH   1  12
ATOM      5  C   UNL     1      -2.809  12.019  18.779  0.00  0.00    +0.000 A 
ATOM      6  C   UNL     1      -2.354  11.203  17.713  0.00  0.00    +0.000 A 
ATOM      7  C   UNL     1      -3.228  10.676  16.770  0.00  0.00    +0.000 A 
ATOM      8  C   UNL     1      -2.766   9.791  15.652  0.00  0.00    +0.000 C 
ATOM      9  C   UNL     1      -4.574  10.980  16.886  0.00  0.00    +0.000 A 
ATOM     10  C   UNL     1      -5.080  11.807  17.913  0.00  0.00    +0.000 A 
ATOM     11  C   UNL     1      -6.560  12.050  17.794  0.00  0.00    +0.000 C 
ATOM     12  C   UNL     1      -4.210  12.316  18.915  0.00  0.00    +0.000 A 
BRANCH   5  14
ATOM     13  N   UNL     1      -1.357  13.714  19.780  0.00  0.00    +0.000 NA
ATOM     14  C   UNL     1      -1.741  12.467  19.762  0.00  0.00    +0.000 C 
ATOM     15  C   UNL     1      -1.190  11.427  20.746  0.00  0.00    +0.000 C 
BRANCH  13  17
ATOM     16  C   UNL     1      -0.579  15.270  21.297  0.00  0.00    +0.000 C 
ATOM     17  O   UNL     1      -0.442  13.940  20.821  0.00  0.00    +0.000 OA
ENDBRANCH  13  17
ENDBRANCH   5  14
ENDBRANCH   1  12
BRANCH   2  18
ATOM     18  C   UNL     1      -5.775  13.951  22.010  0.00  0.00    +0.000 A 
ATOM     19  S   UNL     1      -7.079  15.009  21.630  0.00  0.00    +0.000 S 
ATOM     20  C   UNL     1      -6.935  15.850  23.108  0.00  0.00    +0.000 A 
ATOM     21  C   UNL     1      -5.913  15.355  23.880  0.00  0.00    +0.000 A 
ATOM     22  C   UNL     1      -5.246  14.246  23.264  0.00  0.00    +0.000 A 
BRANCH  22  23
ATOM     23  S   UNL     1      -3.921  13.465  24.085  0.00  0.00    +0.000 S 
ATOM     24  O   UNL     1      -4.377  12.168  24.519  0.00  0.00    +0.000 OA
ATOM     25  O   UNL     1      -2.838  13.551  23.119  0.00  0.00    +0.000 OA
BRANCH  23  26
ATOM     26  N   UNL     1      -3.483  14.371  25.472  0.00  0.00    +0.000 N 
ATOM     27  H   UNL     1      -3.177  13.648  26.131  0.00  0.00    +0.000 HD
BRANCH  26  28
ATOM     28  C   UNL     1      -2.394  15.268  25.211  0.00  0.00    +0.000 A 
ATOM     29  O   UNL     1      -1.092  14.874  25.105  0.00  0.00    +0.000 OA
ATOM     30  N   UNL     1      -0.278  15.978  24.901  0.00  0.00    +0.000 NA
ATOM     31  C   UNL     1      -1.094  17.041  24.929  0.00  0.00    +0.000 A 
ATOM     32  C   UNL     1      -0.538  18.411  24.791  0.00  0.00    +0.000 C 
ATOM     33  C   UNL     1      -2.441  16.642  25.130  0.00  0.00    +0.000 A 
ATOM     34 CL   UNL     1      -3.775  17.674  25.292  0.00  0.00    +0.000 Cl
ENDBRANCH  26  28
ENDBRANCH  23  26
ENDBRANCH  22  23
ENDBRANCH   2  18
TORSDOF 7
ENDMDL
MODEL 6
REMARK VINA RESULT:      -7.2      6.908      9.563
REMARK  Name = 
REMARK  12 active torsions:
REMARK  status: ('A' for Active; 'I' for Inactive)
REMARK    1  A    between atoms: C_1  and  O_2
REMARK    2  A    between atoms: O_2  and  N_3
REMARK    3  A    between atoms: C_4  and  C_5
REMARK    4  A    between atoms: C_4  and  C_6
REMARK    5  A    between atoms: C_8  and  C_9
REMARK    6  A    between atoms: C_11  and  C_12
REMARK    7  A    between atoms: C_13  and  N_14
REMARK    8  A    between atoms: C_15  and  C_17
REMARK    9  A    between atoms: C_21  and  S_22
REMARK   10  A    between atoms: S_22  and  N_25
REMARK   11  A    between atoms: N_25  and  C_26
REMARK   12  A    between atoms: C_29  and  C_30
REMARK                            x       y       z     vdW  Elec       q    Type
REMARK                         _______ _______ _______ _____ _____    ______ ____
ROOT
ATOM      1  N   UNL     1      -4.471  13.117  19.983  0.00  0.00    +0.000 N 
ATOM      2  C   UNL     1      -5.324  12.870  21.058  0.00  0.00    +0.000 C 
ATOM      3  O   UNL     1      -5.879  11.808  21.284  0.00  0.00    +0.000 OA
ATOM      4  H   UNL     1      -3.909  13.970  20.063  0.00  0.00    +0.000 HD
ENDROOT
BRANCH   1  12
ATOM      5  C   UNL     1      -2.711  11.926  18.717  0.00  0.00    +0.000 A 
ATOM      6  C   UNL     1      -2.304  11.094  17.644  0.00  0.00    +0.000 A 
ATOM      7  C   UNL     1      -3.210  10.611  16.709  0.00  0.00    +0.000 A 
ATOM      8  C   UNL     1      -2.801   9.710  15.583  0.00  0.00    +0.000 C 
ATOM      9  C   UNL     1      -4.540  10.974  16.841  0.00  0.00    +0.000 A 
ATOM     10  C   UNL     1      -4.998  11.819  17.876  0.00  0.00    +0.000 A 
ATOM     11  C   UNL     1      -6.467  12.128  17.774  0.00  0.00    +0.000 C 
ATOM     12  C   UNL     1      -4.095  12.285  18.869  0.00  0.00    +0.000 A 
BRANCH   5  14
ATOM     13  N   UNL     1      -1.238  13.569  19.773  0.00  0.00    +0.000 NA
ATOM     14  C   UNL     1      -1.613  12.322  19.691  0.00  0.00    +0.000 C 
ATOM     15  C   UNL     1      -1.022  11.229  20.590  0.00  0.00    +0.000 C 
BRANCH  13  17
ATOM     16  C   UNL     1       0.602  14.789  20.450  0.00  0.00    +0.000 C 
ATOM     17  O   UNL     1      -0.290  13.739  20.795  0.00  0.00    +0.000 OA
ENDBRANCH  13  17
ENDBRANCH   5  14
ENDBRANCH   1  12
BRANCH   2  18
ATOM     18  C   UNL     1      -5.571  13.988  21.972  0.00  0.00    +0.000 A 
ATOM     19  S   UNL     1      -6.858  15.087  21.647  0.00  0.00    +0.000 S 
ATOM     20  C   UNL     1      -6.625  15.920  23.118  0.00  0.00    +0.000 A 
ATOM     21  C   UNL     1      -5.587  15.394  23.846  0.00  0.00    +0.000 A 
ATOM     22  C   UNL     1      -4.981  14.266  23.201  0.00  0.00    +0.000 A 
BRANCH  22  23
ATOM     23  S   UNL     1      -3.645  13.444  23.965  0.00  0.00    +0.000 S 
ATOM     24  O   UNL     1      -3.458  14.032  25.268  0.00  0.00    +0.000 OA
ATOM     25  O   UNL     1      -4.019  12.044  23.864  0.00  0.00    +0.000 OA
BRANCH  23  26
ATOM     26  N   UNL     1      -2.215  13.691  23.055  0.00  0.00    +0.000 N 
ATOM     27  H   UNL     1      -2.569  13.817  22.101  0.00  0.00    +0.000 HD
BRANCH  26  28
ATOM     28  C   UNL     1      -1.512  14.874  23.461  0.00  0.00    +0.000 A 
ATOM     29  O   UNL     1      -0.589  14.904  24.466  0.00  0.00    +0.000 OA
ATOM     30  N   UNL     1      -0.128  16.199  24.648  0.00  0.00    +0.000 NA
ATOM     31  C   UNL     1      -0.813  16.953  23.777  0.00  0.00    +0.000 A 
ATOM     32  C   UNL     1      -0.601  18.423  23.737  0.00  0.00    +0.000 C 
ATOM     33  C   UNL     1      -1.704  16.161  23.009  0.00  0.00    +0.000 A 
ATOM     34 CL   UNL     1      -2.796  16.728  21.843  0.00  0.00    +0.000 Cl
ENDBRANCH  26  28
ENDBRANCH  23  26
ENDBRANCH  22  23
ENDBRANCH   2  18
TORSDOF 7
ENDMDL
MODEL 7
REMARK VINA RESULT:      -7.2      3.785      8.905
REMARK  Name = 
REMARK  12 active torsions:
REMARK  status: ('A' for Active; 'I' for Inactive)
REMARK    1  A    between atoms: C_1  and  O_2
REMARK    2  A    between atoms: O_2  and  N_3
REMARK    3  A    between atoms: C_4  and  C_5
REMARK    4  A    between atoms: C_4  and  C_6
REMARK    5  A    between atoms: C_8  and  C_9
REMARK    6  A    between atoms: C_11  and  C_12
REMARK    7  A    between atoms: C_13  and  N_14
REMARK    8  A    between atoms: C_15  and  C_17
REMARK    9  A    between atoms: C_21  and  S_22
REMARK   10  A    between atoms: S_22  and  N_25
REMARK   11  A    between atoms: N_25  and  C_26
REMARK   12  A    between atoms: C_29  and  C_30
REMARK                            x       y       z     vdW  Elec       q    Type
REMARK                         _______ _______ _______ _____ _____    ______ ____
ROOT
ATOM      1  N   UNL     1      -2.793  13.284  19.385  0.00  0.00    +0.000 N 
ATOM      2  C   UNL     1      -1.610  13.325  20.123  0.00  0.00    +0.000 C 
ATOM      3  O   UNL     1      -1.407  12.714  21.158  0.00  0.00    +0.000 OA
ATOM      4  H   UNL     1      -2.723  13.657  18.434  0.00  0.00    +0.000 HD
ENDROOT
BRANCH   1  12
ATOM      5  C   UNL     1      -4.474  11.574  18.777  0.00  0.00    +0.000 A 
ATOM      6  C   UNL     1      -5.694  10.895  19.019  0.00  0.00    +0.000 A 
ATOM      7  C   UNL     1      -6.515  11.226  20.090  0.00  0.00    +0.000 A 
ATOM      8  C   UNL     1      -7.796  10.502  20.375  0.00  0.00    +0.000 C 
ATOM      9  C   UNL     1      -6.117  12.258  20.923  0.00  0.00    +0.000 A 
ATOM     10  C   UNL     1      -4.924  12.984  20.716  0.00  0.00    +0.000 A 
ATOM     11  C   UNL     1      -4.738  14.101  21.706  0.00  0.00    +0.000 C 
ATOM     12  C   UNL     1      -4.047  12.630  19.655  0.00  0.00    +0.000 A 
BRANCH   5  14
ATOM     13  N   UNL     1      -3.896  11.502  16.401  0.00  0.00    +0.000 NA
ATOM     14  C   UNL     1      -3.658  11.056  17.604  0.00  0.00    +0.000 C 
ATOM     15  C   UNL     1      -2.535  10.054  17.898  0.00  0.00    +0.000 C 
BRANCH  13  17
ATOM     16  C   UNL     1      -3.667  10.368  14.403  0.00  0.00    +0.000 C 
ATOM     17  O   UNL     1      -2.973  10.976  15.482  0.00  0.00    +0.000 OA
ENDBRANCH  13  17
ENDBRANCH   5  14
ENDBRANCH   1  12
BRANCH   2  18
ATOM     18  C   UNL     1      -0.541  14.182  19.603  0.00  0.00    +0.000 A 
ATOM     19  S   UNL     1      -0.812  15.875  19.432  0.00  0.00    +0.000 S 
ATOM     20  C   UNL     1       0.805  16.170  18.978  0.00  0.00    +0.000 A 
ATOM     21  C   UNL     1       1.546  15.015  18.941  0.00  0.00    +0.000 A 
ATOM     22  C   UNL     1       0.783  13.861  19.318  0.00  0.00    +0.000 A 
BRANCH  22  23
ATOM     23  S   UNL     1       1.541  12.290  19.344  0.00  0.00    +0.000 S 
ATOM     24  O   UNL     1       2.512  12.255  18.279  0.00  0.00    +0.000 OA
ATOM     25  O   UNL     1       1.991  12.165  20.720  0.00  0.00    +0.000 OA
BRANCH  23  26
ATOM     26  N   UNL     1       0.370  11.076  19.043  0.00  0.00    +0.000 N 
ATOM     27  H   UNL     1       0.448  10.928  18.032  0.00  0.00    +0.000 HD
BRANCH  26  28
ATOM     28  C   UNL     1       0.672   9.851  19.728  0.00  0.00    +0.000 A 
ATOM     29  O   UNL     1       0.283   9.579  21.007  0.00  0.00    +0.000 OA
ATOM     30  N   UNL     1       0.771   8.341  21.397  0.00  0.00    +0.000 NA
ATOM     31  C   UNL     1       1.491   7.891  20.359  0.00  0.00    +0.000 A 
ATOM     32  C   UNL     1       2.207   6.594  20.456  0.00  0.00    +0.000 C 
ATOM     33  C   UNL     1       1.463   8.815  19.283  0.00  0.00    +0.000 A 
ATOM     34 CL   UNL     1       2.293   8.663  17.813  0.00  0.00    +0.000 Cl
ENDBRANCH  26  28
ENDBRANCH  23  26
ENDBRANCH  22  23
ENDBRANCH   2  18
TORSDOF 7
ENDMDL
MODEL 8
REMARK VINA RESULT:      -7.1      2.952      8.957
REMARK  Name = 
REMARK  12 active torsions:
REMARK  status: ('A' for Active; 'I' for Inactive)
REMARK    1  A    between atoms: C_1  and  O_2
REMARK    2  A    between atoms: O_2  and  N_3
REMARK    3  A    between atoms: C_4  and  C_5
REMARK    4  A    between atoms: C_4  and  C_6
REMARK    5  A    between atoms: C_8  and  C_9
REMARK    6  A    between atoms: C_11  and  C_12
REMARK    7  A    between atoms: C_13  and  N_14
REMARK    8  A    between atoms: C_15  and  C_17
REMARK    9  A    between atoms: C_21  and  S_22
REMARK   10  A    between atoms: S_22  and  N_25
REMARK   11  A    between atoms: N_25  and  C_26
REMARK   12  A    between atoms: C_29  and  C_30
REMARK                            x       y       z     vdW  Elec       q    Type
REMARK                         _______ _______ _______ _____ _____    ______ ____
ROOT
ATOM      1  N   UNL     1      -1.929  12.245  18.690  0.00  0.00    +0.000 N 
ATOM      2  C   UNL     1      -0.832  11.804  19.428  0.00  0.00    +0.000 C 
ATOM      3  O   UNL     1      -0.893  11.186  20.478  0.00  0.00    +0.000 OA
ATOM      4  H   UNL     1      -1.718  12.534  17.731  0.00  0.00    +0.000 HD
ENDROOT
BRANCH   1  12
ATOM      5  C   UNL     1      -4.188  11.450  18.067  0.00  0.00    +0.000 A 
ATOM      6  C   UNL     1      -5.579  11.349  18.320  0.00  0.00    +0.000 A 
ATOM      7  C   UNL     1      -6.167  11.948  19.427  0.00  0.00    +0.000 A 
ATOM      8  C   UNL     1      -7.632  11.830  19.723  0.00  0.00    +0.000 C 
ATOM      9  C   UNL     1      -5.356  12.670  20.287  0.00  0.00    +0.000 A 
ATOM     10  C   UNL     1      -3.968  12.824  20.071  0.00  0.00    +0.000 A 
ATOM     11  C   UNL     1      -3.310  13.706  21.097  0.00  0.00    +0.000 C 
ATOM     12  C   UNL     1      -3.340  12.179  18.972  0.00  0.00    +0.000 A 
BRANCH   5  14
ATOM     13  N   UNL     1      -3.814  11.209  15.662  0.00  0.00    +0.000 NA
ATOM     14  C   UNL     1      -3.686  10.689  16.852  0.00  0.00    +0.000 C 
ATOM     15  C   UNL     1      -2.991   9.342  17.085  0.00  0.00    +0.000 C 
BRANCH  13  17
ATOM     16  C   UNL     1      -4.149  10.045  13.697  0.00  0.00    +0.000 C 
ATOM     17  O   UNL     1      -3.202  10.397  14.694  0.00  0.00    +0.000 OA
ENDBRANCH  13  17
ENDBRANCH   5  14
ENDBRANCH   1  12
BRANCH   2  18
ATOM     18  C   UNL     1       0.493  12.127  18.892  0.00  0.00    +0.000 A 
ATOM     19  S   UNL     1       1.000  13.770  18.801  0.00  0.00    +0.000 S 
ATOM     20  C   UNL     1       2.568  13.343  18.280  0.00  0.00    +0.000 A 
ATOM     21  C   UNL     1       2.715  11.983  18.161  0.00  0.00    +0.000 A 
ATOM     22  C   UNL     1       1.528  11.268  18.529  0.00  0.00    +0.000 A 
BRANCH  22  23
ATOM     23  S   UNL     1       1.507   9.526  18.456  0.00  0.00    +0.000 S 
ATOM     24  O   UNL     1       1.404   9.033  19.806  0.00  0.00    +0.000 OA
ATOM     25  O   UNL     1       0.435   9.249  17.514  0.00  0.00    +0.000 OA
BRANCH  23  26
ATOM     26  N   UNL     1       2.977   8.956  17.787  0.00  0.00    +0.000 N 
ATOM     27  H   UNL     1       3.682   9.324  18.434  0.00  0.00    +0.000 HD
BRANCH  26  28
ATOM     28  C   UNL     1       3.046   7.522  17.775  0.00  0.00    +0.000 A 
ATOM     29  O   UNL     1       2.013   6.707  18.135  0.00  0.00    +0.000 OA
ATOM     30  N   UNL     1       2.408   5.380  18.064  0.00  0.00    +0.000 NA
ATOM     31  C   UNL     1       3.698   5.405  17.700  0.00  0.00    +0.000 A 
ATOM     32  C   UNL     1       4.462   4.138  17.575  0.00  0.00    +0.000 C 
ATOM     33  C   UNL     1       4.147   6.738  17.512  0.00  0.00    +0.000 A 
ATOM     34 CL   UNL     1       5.724   7.215  17.114  0.00  0.00    +0.000 Cl
ENDBRANCH  26  28
ENDBRANCH  23  26
ENDBRANCH  22  23
ENDBRANCH   2  18
TORSDOF 7
ENDMDL
MODEL 9
REMARK VINA RESULT:      -7.0      5.598     10.049
REMARK  Name = 
REMARK  12 active torsions:
REMARK  status: ('A' for Active; 'I' for Inactive)
REMARK    1  A    between atoms: C_1  and  O_2
REMARK    2  A    between atoms: O_2  and  N_3
REMARK    3  A    between atoms: C_4  and  C_5
REMARK    4  A    between atoms: C_4  and  C_6
REMARK    5  A    between atoms: C_8  and  C_9
REMARK    6  A    between atoms: C_11  and  C_12
REMARK    7  A    between atoms: C_13  and  N_14
REMARK    8  A    between atoms: C_15  and  C_17
REMARK    9  A    between atoms: C_21  and  S_22
REMARK   10  A    between atoms: S_22  and  N_25
REMARK   11  A    between atoms: N_25  and  C_26
REMARK   12  A    between atoms: C_29  and  C_30
REMARK                            x       y       z     vdW  Elec       q    Type
REMARK                         _______ _______ _______ _____ _____    ______ ____
ROOT
ATOM      1  N   UNL     1      -2.279  13.721  22.840  0.00  0.00    +0.000 N 
ATOM      2  C   UNL     1      -2.366  12.337  22.987  0.00  0.00    +0.000 C 
ATOM      3  O   UNL     1      -3.203  11.752  23.652  0.00  0.00    +0.000 OA
ATOM      4  H   UNL     1      -1.679  14.039  22.073  0.00  0.00    +0.000 HD
ENDROOT
BRANCH   1  12
ATOM      5  C   UNL     1      -4.230  15.241  22.790  0.00  0.00    +0.000 A 
ATOM      6  C   UNL     1      -5.014  16.271  23.369  0.00  0.00    +0.000 A 
ATOM      7  C   UNL     1      -4.661  16.870  24.571  0.00  0.00    +0.000 A 
ATOM      8  C   UNL     1      -5.492  17.943  25.209  0.00  0.00    +0.000 C 
ATOM      9  C   UNL     1      -3.502  16.444  25.198  0.00  0.00    +0.000 A 
ATOM     10  C   UNL     1      -2.670  15.440  24.655  0.00  0.00    +0.000 A 
ATOM     11  C   UNL     1      -1.434  15.195  25.477  0.00  0.00    +0.000 C 
ATOM     12  C   UNL     1      -3.039  14.781  23.451  0.00  0.00    +0.000 A 
BRANCH   5  14
ATOM     13  N   UNL     1      -5.028  13.364  21.440  0.00  0.00    +0.000 NA
ATOM     14  C   UNL     1      -4.780  14.643  21.506  0.00  0.00    +0.000 C 
ATOM     15  C   UNL     1      -5.077  15.595  20.340  0.00  0.00    +0.000 C 
BRANCH  13  17
ATOM     16  C   UNL     1      -6.629  12.054  20.414  0.00  0.00    +0.000 C 
ATOM     17  O   UNL     1      -5.620  13.033  20.211  0.00  0.00    +0.000 OA
ENDBRANCH  13  17
ENDBRANCH   5  14
ENDBRANCH   1  12
BRANCH   2  18
ATOM     18  C   UNL     1      -1.356  11.538  22.287  0.00  0.00    +0.000 A 
ATOM     19  S   UNL     1      -0.560  10.255  23.116  0.00  0.00    +0.000 S 
ATOM     20  C   UNL     1       0.262   9.748  21.709  0.00  0.00    +0.000 A 
ATOM     21  C   UNL     1      -0.042  10.536  20.626  0.00  0.00    +0.000 A 
ATOM     22  C   UNL     1      -0.990  11.564  20.944  0.00  0.00    +0.000 A 
BRANCH  22  23
ATOM     23  S   UNL     1      -1.518  12.671  19.705  0.00  0.00    +0.000 S 
ATOM     24  O   UNL     1      -1.609  13.981  20.298  0.00  0.00    +0.000 OA
ATOM     25  O   UNL     1      -0.565  12.441  18.631  0.00  0.00    +0.000 OA
BRANCH  23  26
ATOM     26  N   UNL     1      -3.076  12.223  19.152  0.00  0.00    +0.000 N 
ATOM     27  H   UNL     1      -3.507  13.126  18.926  0.00  0.00    +0.000 HD
BRANCH  26  28
ATOM     28  C   UNL     1      -3.019  11.414  17.968  0.00  0.00    +0.000 A 
ATOM     29  O   UNL     1      -1.974  10.594  17.656  0.00  0.00    +0.000 OA
ATOM     30  N   UNL     1      -2.196   9.989  16.428  0.00  0.00    +0.000 NA
ATOM     31  C   UNL     1      -3.360  10.484  15.985  0.00  0.00    +0.000 A 
ATOM     32  C   UNL     1      -3.883  10.082  14.655  0.00  0.00    +0.000 C 
ATOM     33  C   UNL     1      -3.915  11.394  16.922  0.00  0.00    +0.000 A 
ATOM     34 CL   UNL     1      -5.341  12.289  16.723  0.00  0.00    +0.000 Cl
ENDBRANCH  26  28
ENDBRANCH  23  26
ENDBRANCH  22  23
ENDBRANCH   2  18
TORSDOF 7
ENDMDL
