MODEL 1
REMARK VINA RESULT:      -8.2      0.000      0.000
REMARK  Name = 
REMARK  5 active torsions:
REMARK  status: ('A' for Active; 'I' for Inactive)
REMARK    1  A    between atoms: C_1  and  O_2
REMARK    2  A    between atoms: O_2  and  C_3
REMARK    3  A    between atoms: C_7  and  N_8
REMARK    4  A    between atoms: N_8  and  C_9
REMARK    5  A    between atoms: N_23  and  C_24
REMARK                            x       y       z     vdW  Elec       q    Type
REMARK                         _______ _______ _______ _____ _____    ______ ____
ROOT
ATOM      1  C   UNL     1       2.605   6.216  19.559  0.00  0.00    +0.000 A 
ATOM      2  N   UNL     1       3.504   6.307  18.546  0.00  0.00    +0.000 NA
ATOM      3  C   UNL     1       3.761   5.278  17.715  0.00  0.00    +0.000 A 
ATOM      4  N   UNL     1       4.672   5.479  16.705  0.00  0.00    +0.000 N 
ATOM      5  C   UNL     1       5.021   4.410  15.783  0.00  0.00    +0.000 C 
ATOM      6  C   UNL     1       6.499   4.051  15.934  0.00  0.00    +0.000 C 
ATOM      7  C   UNL     1       7.392   5.289  15.845  0.00  0.00    +0.000 C 
ATOM      8  C   UNL     1       6.939   6.372  16.823  0.00  0.00    +0.000 C 
ATOM      9  C   UNL     1       5.456   6.704  16.642  0.00  0.00    +0.000 C 
ATOM     10  N   UNL     1       3.168   4.080  17.818  0.00  0.00    +0.000 NA
ATOM     11  C   UNL     1       2.296   3.993  18.831  0.00  0.00    +0.000 A 
ATOM     12  C   UNL     1       1.959   4.991  19.721  0.00  0.00    +0.000 A 
ATOM     13  C   UNL     1       1.003   4.397  20.568  0.00  0.00    +0.000 A 
ATOM     14  N   UNL     1       0.762   3.115  20.265  0.00  0.00    +0.000 NA
ATOM     15  N   UNL     1       1.585   2.890  19.215  0.00  0.00    +0.000 N 
ATOM     16  C   UNL     1       1.714   1.567  18.656  0.00  0.00    +0.000 C 
ENDROOT
BRANCH   1  17
ATOM     17  N   UNL     1       2.389   7.315  20.413  0.00  0.00    +0.000 N 
ATOM     18  H   UNL     1       2.281   7.033  21.380  0.00  0.00    +0.000 HD
BRANCH  17  23
ATOM     19  C   UNL     1      -0.040  10.087  20.885  0.00  0.00    +0.000 A 
ATOM     20  C   UNL     1      -0.170  10.552  19.569  0.00  0.00    +0.000 A 
ATOM     21  C   UNL     1       0.565   9.970  18.541  0.00  0.00    +0.000 A 
ATOM     22  C   UNL     1       1.429   8.916  18.815  0.00  0.00    +0.000 A 
ATOM     23  C   UNL     1       1.584   8.438  20.124  0.00  0.00    +0.000 A 
ATOM     24  C   UNL     1       0.843   9.038  21.154  0.00  0.00    +0.000 A 
BRANCH  19  26
ATOM     25  C   UNL     1      -0.825  10.235  23.123  0.00  0.00    +0.000 C 
ATOM     26  O   UNL     1      -0.832  10.734  21.792  0.00  0.00    +0.000 OA
ENDBRANCH  19  26
ENDBRANCH  17  23
ENDBRANCH   1  17
TORSDOF 3
ENDMDL
MODEL 2
REMARK VINA RESULT:      -8.1      0.909      1.650
REMARK  Name = 
REMARK  5 active torsions:
REMARK  status: ('A' for Active; 'I' for Inactive)
REMARK    1  A    between atoms: C_1  and  O_2
REMARK    2  A    between atoms: O_2  and  C_3
REMARK    3  A    between atoms: C_7  and  N_8
REMARK    4  A    between atoms: N_8  and  C_9
REMARK    5  A    between atoms: N_23  and  C_24
REMARK                            x       y       z     vdW  Elec       q    Type
REMARK                         _______ _______ _______ _____ _____    ______ ____
ROOT
ATOM      1  C   UNL     1       2.696   6.282  19.565  0.00  0.00    +0.000 A 
ATOM      2  N   UNL     1       3.574   6.340  18.531  0.00  0.00    +0.000 NA
ATOM      3  C   UNL     1       3.750   5.313  17.677  0.00  0.00    +0.000 A 
ATOM      4  N   UNL     1       4.648   5.479  16.648  0.00  0.00    +0.000 N 
ATOM      5  C   UNL     1       4.912   4.409  15.699  0.00  0.00    +0.000 C 
ATOM      6  C   UNL     1       6.369   3.963  15.808  0.00  0.00    +0.000 C 
ATOM      7  C   UNL     1       7.330   5.148  15.717  0.00  0.00    +0.000 C 
ATOM      8  C   UNL     1       6.964   6.238  16.724  0.00  0.00    +0.000 C 
ATOM      9  C   UNL     1       5.500   6.658  16.586  0.00  0.00    +0.000 C 
ATOM     10  N   UNL     1       3.092   4.149  17.774  0.00  0.00    +0.000 NA
ATOM     11  C   UNL     1       2.241   4.094  18.807  0.00  0.00    +0.000 A 
ATOM     12  C   UNL     1       1.984   5.093  19.722  0.00  0.00    +0.000 A 
ATOM     13  C   UNL     1       1.015   4.541  20.583  0.00  0.00    +0.000 A 
ATOM     14  N   UNL     1       0.694   3.281  20.265  0.00  0.00    +0.000 NA
ATOM     15  N   UNL     1       1.477   3.027  19.191  0.00  0.00    +0.000 N 
ATOM     16  C   UNL     1       1.515   1.710  18.606  0.00  0.00    +0.000 C 
ENDROOT
BRANCH   1  17
ATOM     17  N   UNL     1       2.565   7.376  20.442  0.00  0.00    +0.000 N 
ATOM     18  H   UNL     1       2.877   7.155  21.380  0.00  0.00    +0.000 HD
BRANCH  17  23
ATOM     19  C   UNL     1       0.172  10.002  19.353  0.00  0.00    +0.000 A 
ATOM     20  C   UNL     1      -0.535  10.225  20.542  0.00  0.00    +0.000 A 
ATOM     21  C   UNL     1      -0.241   9.490  21.685  0.00  0.00    +0.000 A 
ATOM     22  C   UNL     1       0.767   8.531  21.654  0.00  0.00    +0.000 A 
ATOM     23  C   UNL     1       1.482   8.282  20.475  0.00  0.00    +0.000 A 
ATOM     24  C   UNL     1       1.171   9.026  19.325  0.00  0.00    +0.000 A 
BRANCH  19  26
ATOM     25  C   UNL     1      -1.538  10.658  17.838  0.00  0.00    +0.000 C 
ATOM     26  O   UNL     1      -0.206  10.806  18.313  0.00  0.00    +0.000 OA
ENDBRANCH  19  26
ENDBRANCH  17  23
ENDBRANCH   1  17
TORSDOF 3
ENDMDL
MODEL 3
REMARK VINA RESULT:      -7.6      1.718      4.620
REMARK  Name = 
REMARK  5 active torsions:
REMARK  status: ('A' for Active; 'I' for Inactive)
REMARK    1  A    between atoms: C_1  and  O_2
REMARK    2  A    between atoms: O_2  and  C_3
REMARK    3  A    between atoms: C_7  and  N_8
REMARK    4  A    between atoms: N_8  and  C_9
REMARK    5  A    between atoms: N_23  and  C_24
REMARK                            x       y       z     vdW  Elec       q    Type
REMARK                         _______ _______ _______ _____ _____    ______ ____
ROOT
ATOM      1  C   UNL     1       3.522   7.116  17.813  0.00  0.00    +0.000 A 
ATOM      2  N   UNL     1       3.181   6.271  18.819  0.00  0.00    +0.000 NA
ATOM      3  C   UNL     1       3.646   5.008  18.889  0.00  0.00    +0.000 A 
ATOM      4  N   UNL     1       3.259   4.239  19.962  0.00  0.00    +0.000 N 
ATOM      5  C   UNL     1       3.699   2.859  20.096  0.00  0.00    +0.000 C 
ATOM      6  C   UNL     1       2.495   1.920  20.035  0.00  0.00    +0.000 C 
ATOM      7  C   UNL     1       1.401   2.339  21.016  0.00  0.00    +0.000 C 
ATOM      8  C   UNL     1       1.020   3.807  20.828  0.00  0.00    +0.000 C 
ATOM      9  C   UNL     1       2.249   4.717  20.895  0.00  0.00    +0.000 C 
ATOM     10  N   UNL     1       4.469   4.472  17.977  0.00  0.00    +0.000 NA
ATOM     11  C   UNL     1       4.786   5.306  16.978  0.00  0.00    +0.000 A 
ATOM     12  C   UNL     1       4.373   6.613  16.829  0.00  0.00    +0.000 A 
ATOM     13  C   UNL     1       4.990   7.042  15.637  0.00  0.00    +0.000 A 
ATOM     14  N   UNL     1       5.719   6.083  15.054  0.00  0.00    +0.000 NA
ATOM     15  N   UNL     1       5.556   5.027  15.883  0.00  0.00    +0.000 N 
ATOM     16  C   UNL     1       6.099   3.736  15.542  0.00  0.00    +0.000 C 
ENDROOT
BRANCH   1  17
ATOM     17  N   UNL     1       2.992   8.419  17.775  0.00  0.00    +0.000 N 
ATOM     18  H   UNL     1       3.716   9.128  17.775  0.00  0.00    +0.000 HD
BRANCH  17  23
ATOM     19  C   UNL     1      -0.222  10.145  18.483  0.00  0.00    +0.000 A 
ATOM     20  C   UNL     1      -0.337   9.934  19.864  0.00  0.00    +0.000 A 
ATOM     21  C   UNL     1       0.628   9.201  20.547  0.00  0.00    +0.000 A 
ATOM     22  C   UNL     1       1.718   8.679  19.860  0.00  0.00    +0.000 A 
ATOM     23  C   UNL     1       1.851   8.866  18.478  0.00  0.00    +0.000 A 
ATOM     24  C   UNL     1       0.868   9.602  17.798  0.00  0.00    +0.000 A 
BRANCH  19  26
ATOM     25  C   UNL     1      -2.119  10.235  17.055  0.00  0.00    +0.000 C 
ATOM     26  O   UNL     1      -1.228  10.897  17.943  0.00  0.00    +0.000 OA
ENDBRANCH  19  26
ENDBRANCH  17  23
ENDBRANCH   1  17
TORSDOF 3
ENDMDL
MODEL 4
REMARK VINA RESULT:      -7.6      2.540      6.439
REMARK  Name = 
REMARK  5 active torsions:
REMARK  status: ('A' for Active; 'I' for Inactive)
REMARK    1  A    between atoms: C_1  and  O_2
REMARK    2  A    between atoms: O_2  and  C_3
REMARK    3  A    between atoms: C_7  and  N_8
REMARK    4  A    between atoms: N_8  and  C_9
REMARK    5  A    between atoms: N_23  and  C_24
REMARK                            x       y       z     vdW  Elec       q    Type
REMARK                         _______ _______ _______ _____ _____    ______ ____
ROOT
ATOM      1  C   UNL     1       3.134   4.430  17.612  0.00  0.00    +0.000 A 
ATOM      2  N   UNL     1       2.947   5.739  17.923  0.00  0.00    +0.000 NA
ATOM      3  C   UNL     1       2.460   6.134  19.115  0.00  0.00    +0.000 A 
ATOM      4  N   UNL     1       2.331   7.485  19.341  0.00  0.00    +0.000 N 
ATOM      5  C   UNL     1       1.790   7.990  20.592  0.00  0.00    +0.000 C 
ATOM      6  C   UNL     1       0.484   8.739  20.332  0.00  0.00    +0.000 C 
ATOM      7  C   UNL     1       0.645   9.791  19.235  0.00  0.00    +0.000 C 
ATOM      8  C   UNL     1       1.246   9.184  17.968  0.00  0.00    +0.000 C 
ATOM      9  C   UNL     1       2.551   8.444  18.267  0.00  0.00    +0.000 C 
ATOM     10  N   UNL     1       2.108   5.282  20.089  0.00  0.00    +0.000 NA
ATOM     11  C   UNL     1       2.278   3.994  19.768  0.00  0.00    +0.000 A 
ATOM     12  C   UNL     1       2.780   3.495  18.584  0.00  0.00    +0.000 A 
ATOM     13  C   UNL     1       2.765   2.097  18.758  0.00  0.00    +0.000 A 
ATOM     14  N   UNL     1       2.270   1.725  19.945  0.00  0.00    +0.000 NA
ATOM     15  N   UNL     1       1.959   2.904  20.530  0.00  0.00    +0.000 N 
ATOM     16  C   UNL     1       1.279   2.935  21.801  0.00  0.00    +0.000 C 
ENDROOT
BRANCH   1  17
ATOM     17  N   UNL     1       3.626   4.069  16.344  0.00  0.00    +0.000 N 
ATOM     18  H   UNL     1       3.358   3.127  16.083  0.00  0.00    +0.000 HD
BRANCH  17  23
ATOM     19  C   UNL     1       6.938   5.717  15.993  0.00  0.00    +0.000 A 
ATOM     20  C   UNL     1       7.367   5.191  14.767  0.00  0.00    +0.000 A 
ATOM     21  C   UNL     1       6.578   4.275  14.079  0.00  0.00    +0.000 A 
ATOM     22  C   UNL     1       5.351   3.883  14.604  0.00  0.00    +0.000 A 
ATOM     23  C   UNL     1       4.904   4.387  15.833  0.00  0.00    +0.000 A 
ATOM     24  C   UNL     1       5.712   5.305  16.521  0.00  0.00    +0.000 A 
BRANCH  19  26
ATOM     25  C   UNL     1       7.566   6.979  17.907  0.00  0.00    +0.000 C 
ATOM     26  O   UNL     1       7.801   6.619  16.552  0.00  0.00    +0.000 OA
ENDBRANCH  19  26
ENDBRANCH  17  23
ENDBRANCH   1  17
TORSDOF 3
ENDMDL
MODEL 5
REMARK VINA RESULT:      -7.5      1.476      4.349
REMARK  Name = 
REMARK  5 active torsions:
REMARK  status: ('A' for Active; 'I' for Inactive)
REMARK    1  A    between atoms: C_1  and  O_2
REMARK    2  A    between atoms: O_2  and  C_3
REMARK    3  A    between atoms: C_7  and  N_8
REMARK    4  A    between atoms: N_8  and  C_9
REMARK    5  A    between atoms: N_23  and  C_24
REMARK                            x       y       z     vdW  Elec       q    Type
REMARK                         _______ _______ _______ _____ _____    ______ ____
ROOT
ATOM      1  C   UNL     1       3.471   7.171  17.804  0.00  0.00    +0.000 A 
ATOM      2  N   UNL     1       3.116   6.332  18.811  0.00  0.00    +0.000 NA
ATOM      3  C   UNL     1       3.586   5.073  18.899  0.00  0.00    +0.000 A 
ATOM      4  N   UNL     1       3.184   4.310  19.971  0.00  0.00    +0.000 N 
ATOM      5  C   UNL     1       3.627   2.934  20.124  0.00  0.00    +0.000 C 
ATOM      6  C   UNL     1       2.429   1.988  20.049  0.00  0.00    +0.000 C 
ATOM      7  C   UNL     1       1.316   2.410  21.008  0.00  0.00    +0.000 C 
ATOM      8  C   UNL     1       0.932   3.875  20.802  0.00  0.00    +0.000 C 
ATOM      9  C   UNL     1       2.155   4.791  20.883  0.00  0.00    +0.000 C 
ATOM     10  N   UNL     1       4.427   4.533  18.006  0.00  0.00    +0.000 NA
ATOM     11  C   UNL     1       4.757   5.361  17.006  0.00  0.00    +0.000 A 
ATOM     12  C   UNL     1       4.341   6.665  16.839  0.00  0.00    +0.000 A 
ATOM     13  C   UNL     1       4.976   7.087  15.655  0.00  0.00    +0.000 A 
ATOM     14  N   UNL     1       5.720   6.127  15.092  0.00  0.00    +0.000 NA
ATOM     15  N   UNL     1       5.548   5.077  15.927  0.00  0.00    +0.000 N 
ATOM     16  C   UNL     1       6.102   3.786  15.605  0.00  0.00    +0.000 C 
ENDROOT
BRANCH   1  17
ATOM     17  N   UNL     1       2.935   8.472  17.747  0.00  0.00    +0.000 N 
ATOM     18  H   UNL     1       3.653   9.178  17.638  0.00  0.00    +0.000 HD
BRANCH  17  23
ATOM     19  C   UNL     1       0.686   8.974  20.662  0.00  0.00    +0.000 A 
ATOM     20  C   UNL     1      -0.328   9.748  20.083  0.00  0.00    +0.000 A 
ATOM     21  C   UNL     1      -0.251  10.126  18.746  0.00  0.00    +0.000 A 
ATOM     22  C   UNL     1       0.835   9.726  17.974  0.00  0.00    +0.000 A 
ATOM     23  C   UNL     1       1.867   8.960  18.531  0.00  0.00    +0.000 A 
ATOM     24  C   UNL     1       1.781   8.591  19.883  0.00  0.00    +0.000 A 
BRANCH  19  26
ATOM     25  C   UNL     1       0.031   9.710  22.824  0.00  0.00    +0.000 C 
ATOM     26  O   UNL     1       0.474   8.659  21.975  0.00  0.00    +0.000 OA
ENDBRANCH  19  26
ENDBRANCH  17  23
ENDBRANCH   1  17
TORSDOF 3
ENDMDL
MODEL 6
REMARK VINA RESULT:      -7.5      2.428      6.604
REMARK  Name = 
REMARK  5 active torsions:
REMARK  status: ('A' for Active; 'I' for Inactive)
REMARK    1  A    between atoms: C_1  and  O_2
REMARK    2  A    between atoms: O_2  and  C_3
REMARK    3  A    between atoms: C_7  and  N_8
REMARK    4  A    between atoms: N_8  and  C_9
REMARK    5  A    between atoms: N_23  and  C_24
REMARK                            x       y       z     vdW  Elec       q    Type
REMARK                         _______ _______ _______ _____ _____    ______ ____
ROOT
ATOM      1  C   UNL     1       2.866   5.383  18.163  0.00  0.00    +0.000 A 
ATOM      2  N   UNL     1       2.497   6.570  18.708  0.00  0.00    +0.000 NA
ATOM      3  C   UNL     1       1.979   6.664  19.949  0.00  0.00    +0.000 A 
ATOM      4  N   UNL     1       1.659   7.917  20.419  0.00  0.00    +0.000 N 
ATOM      5  C   UNL     1       1.073   8.099  21.737  0.00  0.00    +0.000 C 
ATOM      6  C   UNL     1      -0.332   8.684  21.607  0.00  0.00    +0.000 C 
ATOM      7  C   UNL     1      -0.345   9.932  20.725  0.00  0.00    +0.000 C 
ATOM      8  C   UNL     1       0.315   9.663  19.373  0.00  0.00    +0.000 C 
ATOM      9  C   UNL     1       1.718   9.079  19.542  0.00  0.00    +0.000 C 
ATOM     10  N   UNL     1       1.772   5.606  20.745  0.00  0.00    +0.000 NA
ATOM     11  C   UNL     1       2.121   4.437  20.193  0.00  0.00    +0.000 A 
ATOM     12  C   UNL     1       2.669   4.243  18.943  0.00  0.00    +0.000 A 
ATOM     13  C   UNL     1       2.860   2.850  18.855  0.00  0.00    +0.000 A 
ATOM     14  N   UNL     1       2.446   2.198  19.949  0.00  0.00    +0.000 NA
ATOM     15  N   UNL     1       1.977   3.191  20.739  0.00  0.00    +0.000 N 
ATOM     16  C   UNL     1       1.323   2.889  21.987  0.00  0.00    +0.000 C 
ENDROOT
BRANCH   1  17
ATOM     17  N   UNL     1       3.383   5.337  16.855  0.00  0.00    +0.000 N 
ATOM     18  H   UNL     1       2.793   4.801  16.228  0.00  0.00    +0.000 HD
BRANCH  17  23
ATOM     19  C   UNL     1       6.974   6.161  16.375  0.00  0.00    +0.000 A 
ATOM     20  C   UNL     1       7.415   5.027  15.681  0.00  0.00    +0.000 A 
ATOM     21  C   UNL     1       6.536   3.986  15.401  0.00  0.00    +0.000 A 
ATOM     22  C   UNL     1       5.208   4.071  15.805  0.00  0.00    +0.000 A 
ATOM     23  C   UNL     1       4.744   5.190  16.510  0.00  0.00    +0.000 A 
ATOM     24  C   UNL     1       5.643   6.231  16.792  0.00  0.00    +0.000 A 
BRANCH  19  26
ATOM     25  C   UNL     1       7.773   7.976  17.684  0.00  0.00    +0.000 C 
ATOM     26  O   UNL     1       7.936   7.114  16.566  0.00  0.00    +0.000 OA
ENDBRANCH  19  26
ENDBRANCH  17  23
ENDBRANCH   1  17
TORSDOF 3
ENDMDL
MODEL 7
REMARK VINA RESULT:      -7.5      3.018      7.068
REMARK  Name = 
REMARK  5 active torsions:
REMARK  status: ('A' for Active; 'I' for Inactive)
REMARK    1  A    between atoms: C_1  and  O_2
REMARK    2  A    between atoms: O_2  and  C_3
REMARK    3  A    between atoms: C_7  and  N_8
REMARK    4  A    between atoms: N_8  and  C_9
REMARK    5  A    between atoms: N_23  and  C_24
REMARK                            x       y       z     vdW  Elec       q    Type
REMARK                         _______ _______ _______ _____ _____    ______ ____
ROOT
ATOM      1  C   UNL     1       3.122   4.584  17.713  0.00  0.00    +0.000 A 
ATOM      2  N   UNL     1       2.894   5.879  18.051  0.00  0.00    +0.000 NA
ATOM      3  C   UNL     1       2.384   6.233  19.247  0.00  0.00    +0.000 A 
ATOM      4  N   UNL     1       2.213   7.574  19.502  0.00  0.00    +0.000 N 
ATOM      5  C   UNL     1       1.645   8.035  20.758  0.00  0.00    +0.000 C 
ATOM      6  C   UNL     1       0.320   8.751  20.501  0.00  0.00    +0.000 C 
ATOM      7  C   UNL     1       0.462   9.832  19.430  0.00  0.00    +0.000 C 
ATOM      8  C   UNL     1       1.093   9.272  18.156  0.00  0.00    +0.000 C 
ATOM      9  C   UNL     1       2.416   8.563  18.452  0.00  0.00    +0.000 C 
ATOM     10  N   UNL     1       2.047   5.349  20.197  0.00  0.00    +0.000 NA
ATOM     11  C   UNL     1       2.257   4.074  19.849  0.00  0.00    +0.000 A 
ATOM     12  C   UNL     1       2.785   3.617  18.660  0.00  0.00    +0.000 A 
ATOM     13  C   UNL     1       2.809   2.215  18.802  0.00  0.00    +0.000 A 
ATOM     14  N   UNL     1       2.313   1.802  19.975  0.00  0.00    +0.000 NA
ATOM     15  N   UNL     1       1.962   2.958  20.583  0.00  0.00    +0.000 N 
ATOM     16  C   UNL     1       1.269   2.941  21.847  0.00  0.00    +0.000 C 
ENDROOT
BRANCH   1  17
ATOM     17  N   UNL     1       3.638   4.266  16.442  0.00  0.00    +0.000 N 
ATOM     18  H   UNL     1       3.318   3.362  16.114  0.00  0.00    +0.000 HD
BRANCH  17  23
ATOM     19  C   UNL     1       6.572   4.524  14.177  0.00  0.00    +0.000 A 
ATOM     20  C   UNL     1       7.584   4.848  15.091  0.00  0.00    +0.000 A 
ATOM     21  C   UNL     1       7.289   5.009  16.441  0.00  0.00    +0.000 A 
ATOM     22  C   UNL     1       5.984   4.840  16.891  0.00  0.00    +0.000 A 
ATOM     23  C   UNL     1       4.952   4.525  15.996  0.00  0.00    +0.000 A 
ATOM     24  C   UNL     1       5.261   4.372  14.636  0.00  0.00    +0.000 A 
BRANCH  19  26
ATOM     25  C   UNL     1       6.385   3.355  12.116  0.00  0.00    +0.000 C 
ATOM     26  O   UNL     1       7.003   4.377  12.888  0.00  0.00    +0.000 OA
ENDBRANCH  19  26
ENDBRANCH  17  23
ENDBRANCH   1  17
TORSDOF 3
ENDMDL
MODEL 8
REMARK VINA RESULT:      -7.5      3.388      7.617
REMARK  Name = 
REMARK  5 active torsions:
REMARK  status: ('A' for Active; 'I' for Inactive)
REMARK    1  A    between atoms: C_1  and  O_2
REMARK    2  A    between atoms: O_2  and  C_3
REMARK    3  A    between atoms: C_7  and  N_8
REMARK    4  A    between atoms: N_8  and  C_9
REMARK    5  A    between atoms: N_23  and  C_24
REMARK                            x       y       z     vdW  Elec       q    Type
REMARK                         _______ _______ _______ _____ _____    ______ ____
ROOT
ATOM      1  C   UNL     1       1.032   9.183  19.691  0.00  0.00    +0.000 A 
ATOM      2  N   UNL     1       0.165   9.688  18.776  0.00  0.00    +0.000 NA
ATOM      3  C   UNL     1      -0.878  10.466  19.124  0.00  0.00    +0.000 A 
ATOM      4  N   UNL     1      -1.685  10.948  18.120  0.00  0.00    +0.000 N 
ATOM      5  C   UNL     1      -2.845  11.772  18.416  0.00  0.00    +0.000 C 
ATOM      6  C   UNL     1      -4.122  11.055  17.979  0.00  0.00    +0.000 C 
ATOM      7  C   UNL     1      -4.032  10.575  16.531  0.00  0.00    +0.000 C 
ATOM      8  C   UNL     1      -2.772   9.743  16.298  0.00  0.00    +0.000 C 
ATOM      9  C   UNL     1      -1.516  10.493  16.746  0.00  0.00    +0.000 C 
ATOM     10  N   UNL     1      -1.162  10.799  20.392  0.00  0.00    +0.000 NA
ATOM     11  C   UNL     1      -0.313  10.281  21.289  0.00  0.00    +0.000 A 
ATOM     12  C   UNL     1       0.786   9.490  21.029  0.00  0.00    +0.000 A 
ATOM     13  C   UNL     1       1.339   9.229  22.298  0.00  0.00    +0.000 A 
ATOM     14  N   UNL     1       0.639   9.784  23.295  0.00  0.00    +0.000 NA
ATOM     15  N   UNL     1      -0.378  10.400  22.650  0.00  0.00    +0.000 N 
ATOM     16  C   UNL     1      -1.441  11.031  23.391  0.00  0.00    +0.000 C 
ENDROOT
BRANCH   1  17
ATOM     17  N   UNL     1       2.095   8.358  19.277  0.00  0.00    +0.000 N 
ATOM     18  H   UNL     1       2.579   8.733  18.469  0.00  0.00    +0.000 HD
BRANCH  17  23
ATOM     19  C   UNL     1       2.063   4.832  20.451  0.00  0.00    +0.000 A 
ATOM     20  C   UNL     1       2.226   4.149  19.238  0.00  0.00    +0.000 A 
ATOM     21  C   UNL     1       2.315   4.850  18.040  0.00  0.00    +0.000 A 
ATOM     22  C   UNL     1       2.250   6.239  18.043  0.00  0.00    +0.000 A 
ATOM     23  C   UNL     1       2.078   6.946  19.240  0.00  0.00    +0.000 A 
ATOM     24  C   UNL     1       1.982   6.227  20.442  0.00  0.00    +0.000 A 
BRANCH  19  26
ATOM     25  C   UNL     1       2.470   2.688  21.390  0.00  0.00    +0.000 C 
ATOM     26  O   UNL     1       2.009   4.023  21.551  0.00  0.00    +0.000 OA
ENDBRANCH  19  26
ENDBRANCH  17  23
ENDBRANCH   1  17
TORSDOF 3
ENDMDL
MODEL 9
REMARK VINA RESULT:      -7.5      2.616      6.713
REMARK  Name = 
REMARK  5 active torsions:
REMARK  status: ('A' for Active; 'I' for Inactive)
REMARK    1  A    between atoms: C_1  and  O_2
REMARK    2  A    between atoms: O_2  and  C_3
REMARK    3  A    between atoms: C_7  and  N_8
REMARK    4  A    between atoms: N_8  and  C_9
REMARK    5  A    between atoms: N_23  and  C_24
REMARK                            x       y       z     vdW  Elec       q    Type
REMARK                         _______ _______ _______ _____ _____    ______ ____
ROOT
ATOM      1  C   UNL     1       2.993   5.613  18.099  0.00  0.00    +0.000 A 
ATOM      2  N   UNL     1       2.582   6.773  18.674  0.00  0.00    +0.000 NA
ATOM      3  C   UNL     1       2.006   6.809  19.892  0.00  0.00    +0.000 A 
ATOM      4  N   UNL     1       1.646   8.036  20.397  0.00  0.00    +0.000 N 
ATOM      5  C   UNL     1       0.998   8.157  21.693  0.00  0.00    +0.000 C 
ATOM      6  C   UNL     1      -0.409   8.728  21.522  0.00  0.00    +0.000 C 
ATOM      7  C   UNL     1      -0.399  10.011  20.692  0.00  0.00    +0.000 C 
ATOM      8  C   UNL     1       0.326   9.807  19.362  0.00  0.00    +0.000 C 
ATOM      9  C   UNL     1       1.729   9.234  19.572  0.00  0.00    +0.000 C 
ATOM     10  N   UNL     1       1.778   5.716  20.634  0.00  0.00    +0.000 NA
ATOM     11  C   UNL     1       2.170   4.575  20.052  0.00  0.00    +0.000 A 
ATOM     12  C   UNL     1       2.777   4.440  18.821  0.00  0.00    +0.000 A 
ATOM     13  C   UNL     1       2.993   3.055  18.686  0.00  0.00    +0.000 A 
ATOM     14  N   UNL     1       2.538   2.353  19.732  0.00  0.00    +0.000 NA
ATOM     15  N   UNL     1       2.020   3.306  20.539  0.00  0.00    +0.000 N 
ATOM     16  C   UNL     1       1.314   2.944  21.742  0.00  0.00    +0.000 C 
ENDROOT
BRANCH   1  17
ATOM     17  N   UNL     1       3.569   5.628  16.815  0.00  0.00    +0.000 N 
ATOM     18  H   UNL     1       2.916   5.335  16.098  0.00  0.00    +0.000 HD
BRANCH  17  23
ATOM     19  C   UNL     1       7.167   4.791  17.226  0.00  0.00    +0.000 A 
ATOM     20  C   UNL     1       7.545   4.587  15.892  0.00  0.00    +0.000 A 
ATOM     21  C   UNL     1       6.608   4.698  14.869  0.00  0.00    +0.000 A 
ATOM     22  C   UNL     1       5.289   5.019  15.168  0.00  0.00    +0.000 A 
ATOM     23  C   UNL     1       4.882   5.218  16.495  0.00  0.00    +0.000 A 
ATOM     24  C   UNL     1       5.835   5.097  17.519  0.00  0.00    +0.000 A 
BRANCH  19  26
ATOM     25  C   UNL     1       8.094   5.446  19.313  0.00  0.00    +0.000 C 
ATOM     26  O   UNL     1       8.189   4.670  18.126  0.00  0.00    +0.000 OA
ENDBRANCH  19  26
ENDBRANCH  17  23
ENDBRANCH   1  17
TORSDOF 3
ENDMDL
