MODEL 1
REMARK VINA RESULT:      -7.9      0.000      0.000
REMARK  Name = 
REMARK  6 active torsions:
REMARK  status: ('A' for Active; 'I' for Inactive)
REMARK    1  A    between atoms: C_1  and  O_2
REMARK    2  A    between atoms: O_2  and  C_3
REMARK    3  A    between atoms: C_6  and  C_7
REMARK    4  A    between atoms: C_7  and  C_8
REMARK    5  A    between atoms: C_8  and  N_9
REMARK    6  A    between atoms: C_10  and  C_12
REMARK                            x       y       z     vdW  Elec       q    Type
REMARK                         _______ _______ _______ _____ _____    ______ ____
ROOT
ATOM      1  N   UNL     1       7.173   6.662  18.191  0.00  0.00    +0.000 N 
ATOM      2  C   UNL     1       6.904   5.708  19.176  0.00  0.00    +0.000 C 
ATOM      3  O   UNL     1       7.667   5.562  20.134  0.00  0.00    +0.000 OA
ATOM      4  H   UNL     1       6.455   6.819  17.490  0.00  0.00    +0.000 HD
ENDROOT
BRANCH   2   5
ATOM      5  C   UNL     1       5.661   4.957  19.018  0.00  0.00    +0.000 A 
ATOM      6  N   UNL     1       5.496   3.648  19.163  0.00  0.00    +0.000 NA
ATOM      7  C   UNL     1       4.180   3.448  18.798  0.00  0.00    +0.000 A 
ATOM      8  C   UNL     1       3.408   2.281  18.710  0.00  0.00    +0.000 A 
ATOM      9  C   UNL     1       2.088   2.388  18.237  0.00  0.00    +0.000 A 
ATOM     10  C   UNL     1       1.544   3.627  17.882  0.00  0.00    +0.000 A 
ATOM     11  C   UNL     1       2.290   4.807  17.994  0.00  0.00    +0.000 A 
ATOM     12  C   UNL     1       3.596   4.655  18.447  0.00  0.00    +0.000 A 
ATOM     13  O   UNL     1       4.533   5.631  18.610  0.00  0.00    +0.000 OA
ENDBRANCH   2   5
BRANCH   1  14
ATOM     14  C   UNL     1       8.268   7.601  18.392  0.00  0.00    +0.000 C 
BRANCH  14  15
ATOM     15  C   UNL     1       8.012   9.023  17.879  0.00  0.00    +0.000 C 
BRANCH  15  19
ATOM     16  C   UNL     1      10.821  11.903  19.531  0.00  0.00    +0.000 A 
ATOM     17  C   UNL     1       9.988  11.156  20.364  0.00  0.00    +0.000 A 
ATOM     18  C   UNL     1       9.091  10.221  19.834  0.00  0.00    +0.000 A 
ATOM     19  C   UNL     1       9.000  10.023  18.449  0.00  0.00    +0.000 A 
ATOM     20  C   UNL     1       9.822  10.795  17.615  0.00  0.00    +0.000 A 
ATOM     21  C   UNL     1      10.726  11.727  18.148  0.00  0.00    +0.000 A 
BRANCH  16  23
ATOM     22  C   UNL     1      11.274  14.162  20.097  0.00  0.00    +0.000 C 
ATOM     23  O   UNL     1      11.640  12.789  20.173  0.00  0.00    +0.000 OA
ENDBRANCH  16  23
ENDBRANCH  15  19
ENDBRANCH  14  15
ENDBRANCH   1  14
TORSDOF 5
ENDMDL
MODEL 2
REMARK VINA RESULT:      -7.8      0.462      1.078
REMARK  Name = 
REMARK  6 active torsions:
REMARK  status: ('A' for Active; 'I' for Inactive)
REMARK    1  A    between atoms: C_1  and  O_2
REMARK    2  A    between atoms: O_2  and  C_3
REMARK    3  A    between atoms: C_6  and  C_7
REMARK    4  A    between atoms: C_7  and  C_8
REMARK    5  A    between atoms: C_8  and  N_9
REMARK    6  A    between atoms: C_10  and  C_12
REMARK                            x       y       z     vdW  Elec       q    Type
REMARK                         _______ _______ _______ _____ _____    ______ ____
ROOT
ATOM      1  N   UNL     1       7.102   6.757  18.200  0.00  0.00    +0.000 N 
ATOM      2  C   UNL     1       6.906   5.734  19.132  0.00  0.00    +0.000 C 
ATOM      3  O   UNL     1       7.736   5.526  20.020  0.00  0.00    +0.000 OA
ATOM      4  H   UNL     1       6.335   6.958  17.565  0.00  0.00    +0.000 HD
ENDROOT
BRANCH   2   5
ATOM      5  C   UNL     1       5.656   4.988  19.010  0.00  0.00    +0.000 A 
ATOM      6  N   UNL     1       5.458   3.709  19.305  0.00  0.00    +0.000 NA
ATOM      7  C   UNL     1       4.155   3.486  18.908  0.00  0.00    +0.000 A 
ATOM      8  C   UNL     1       3.364   2.329  18.927  0.00  0.00    +0.000 A 
ATOM      9  C   UNL     1       2.068   2.396  18.385  0.00  0.00    +0.000 A 
ATOM     10  C   UNL     1       1.565   3.591  17.857  0.00  0.00    +0.000 A 
ATOM     11  C   UNL     1       2.330   4.764  17.859  0.00  0.00    +0.000 A 
ATOM     12  C   UNL     1       3.612   4.649  18.387  0.00  0.00    +0.000 A 
ATOM     13  O   UNL     1       4.560   5.624  18.472  0.00  0.00    +0.000 OA
ENDBRANCH   2   5
BRANCH   1  14
ATOM     14  C   UNL     1       8.208   7.687  18.389  0.00  0.00    +0.000 C 
BRANCH  14  15
ATOM     15  C   UNL     1       8.047   9.042  17.691  0.00  0.00    +0.000 C 
BRANCH  15  19
ATOM     16  C   UNL     1      10.266  12.199  19.696  0.00  0.00    +0.000 A 
ATOM     17  C   UNL     1       9.899  12.322  18.357  0.00  0.00    +0.000 A 
ATOM     18  C   UNL     1       9.175  11.311  17.713  0.00  0.00    +0.000 A 
ATOM     19  C   UNL     1       8.814  10.144  18.399  0.00  0.00    +0.000 A 
ATOM     20  C   UNL     1       9.209  10.015  19.739  0.00  0.00    +0.000 A 
ATOM     21  C   UNL     1       9.928  11.033  20.385  0.00  0.00    +0.000 A 
BRANCH  16  23
ATOM     22  C   UNL     1      12.168  13.605  19.502  0.00  0.00    +0.000 C 
ATOM     23  O   UNL     1      10.980  13.250  20.200  0.00  0.00    +0.000 OA
ENDBRANCH  16  23
ENDBRANCH  15  19
ENDBRANCH  14  15
ENDBRANCH   1  14
TORSDOF 5
ENDMDL
MODEL 3
REMARK VINA RESULT:      -7.7      0.951      1.644
REMARK  Name = 
REMARK  6 active torsions:
REMARK  status: ('A' for Active; 'I' for Inactive)
REMARK    1  A    between atoms: C_1  and  O_2
REMARK    2  A    between atoms: O_2  and  C_3
REMARK    3  A    between atoms: C_6  and  C_7
REMARK    4  A    between atoms: C_7  and  C_8
REMARK    5  A    between atoms: C_8  and  N_9
REMARK    6  A    between atoms: C_10  and  C_12
REMARK                            x       y       z     vdW  Elec       q    Type
REMARK                         _______ _______ _______ _____ _____    ______ ____
ROOT
ATOM      1  N   UNL     1       7.256   6.876  18.154  0.00  0.00    +0.000 N 
ATOM      2  C   UNL     1       7.315   5.579  18.670  0.00  0.00    +0.000 C 
ATOM      3  O   UNL     1       8.313   5.190  19.280  0.00  0.00    +0.000 OA
ATOM      4  H   UNL     1       6.368   7.179  17.764  0.00  0.00    +0.000 HD
ENDROOT
BRANCH   2   5
ATOM      5  C   UNL     1       6.118   4.761  18.484  0.00  0.00    +0.000 A 
ATOM      6  N   UNL     1       5.275   4.800  17.460  0.00  0.00    +0.000 NA
ATOM      7  C   UNL     1       4.279   3.920  17.829  0.00  0.00    +0.000 A 
ATOM      8  C   UNL     1       3.090   3.541  17.190  0.00  0.00    +0.000 A 
ATOM      9  C   UNL     1       2.227   2.653  17.855  0.00  0.00    +0.000 A 
ATOM     10  C   UNL     1       2.549   2.138  19.116  0.00  0.00    +0.000 A 
ATOM     11  C   UNL     1       3.748   2.480  19.755  0.00  0.00    +0.000 A 
ATOM     12  C   UNL     1       4.564   3.375  19.071  0.00  0.00    +0.000 A 
ATOM     13  O   UNL     1       5.755   3.891  19.487  0.00  0.00    +0.000 OA
ENDBRANCH   2   5
BRANCH   1  14
ATOM     14  C   UNL     1       8.311   7.822  18.490  0.00  0.00    +0.000 C 
BRANCH  14  15
ATOM     15  C   UNL     1       8.192   9.197  17.824  0.00  0.00    +0.000 C 
BRANCH  15  19
ATOM     16  C   UNL     1      10.726  12.169  19.737  0.00  0.00    +0.000 A 
ATOM     17  C   UNL     1      10.609  12.115  18.348  0.00  0.00    +0.000 A 
ATOM     18  C   UNL     1       9.786  11.165  17.732  0.00  0.00    +0.000 A 
ATOM     19  C   UNL     1       9.068  10.237  18.498  0.00  0.00    +0.000 A 
ATOM     20  C   UNL     1       9.209  10.280  19.893  0.00  0.00    +0.000 A 
ATOM     21  C   UNL     1      10.029  11.238  20.510  0.00  0.00    +0.000 A 
BRANCH  16  23
ATOM     22  C   UNL     1      11.126  14.481  20.094  0.00  0.00    +0.000 C 
ATOM     23  O   UNL     1      11.571  13.134  20.210  0.00  0.00    +0.000 OA
ENDBRANCH  16  23
ENDBRANCH  15  19
ENDBRANCH  14  15
ENDBRANCH   1  14
TORSDOF 5
ENDMDL
MODEL 4
REMARK VINA RESULT:      -7.6      1.572      1.833
REMARK  Name = 
REMARK  6 active torsions:
REMARK  status: ('A' for Active; 'I' for Inactive)
REMARK    1  A    between atoms: C_1  and  O_2
REMARK    2  A    between atoms: O_2  and  C_3
REMARK    3  A    between atoms: C_6  and  C_7
REMARK    4  A    between atoms: C_7  and  C_8
REMARK    5  A    between atoms: C_8  and  N_9
REMARK    6  A    between atoms: C_10  and  C_12
REMARK                            x       y       z     vdW  Elec       q    Type
REMARK                         _______ _______ _______ _____ _____    ______ ____
ROOT
ATOM      1  N   UNL     1       6.672   7.445  17.594  0.00  0.00    +0.000 N 
ATOM      2  C   UNL     1       6.561   6.267  16.851  0.00  0.00    +0.000 C 
ATOM      3  O   UNL     1       7.375   6.004  15.964  0.00  0.00    +0.000 OA
ATOM      4  H   UNL     1       6.046   7.554  18.386  0.00  0.00    +0.000 HD
ENDROOT
BRANCH   2   5
ATOM      5  C   UNL     1       5.468   5.373  17.229  0.00  0.00    +0.000 A 
ATOM      6  N   UNL     1       5.513   4.049  17.314  0.00  0.00    +0.000 NA
ATOM      7  C   UNL     1       4.208   3.701  17.595  0.00  0.00    +0.000 A 
ATOM      8  C   UNL     1       3.598   2.451  17.774  0.00  0.00    +0.000 A 
ATOM      9  C   UNL     1       2.209   2.410  17.991  0.00  0.00    +0.000 A 
ATOM     10  C   UNL     1       1.450   3.584  18.049  0.00  0.00    +0.000 A 
ATOM     11  C   UNL     1       2.048   4.843  17.903  0.00  0.00    +0.000 A 
ATOM     12  C   UNL     1       3.419   4.838  17.673  0.00  0.00    +0.000 A 
ATOM     13  O   UNL     1       4.226   5.916  17.464  0.00  0.00    +0.000 OA
ENDBRANCH   2   5
BRANCH   1  14
ATOM     14  C   UNL     1       7.858   8.276  17.432  0.00  0.00    +0.000 C 
BRANCH  14  15
ATOM     15  C   UNL     1       8.620   8.587  18.726  0.00  0.00    +0.000 C 
BRANCH  15  19
ATOM     16  C   UNL     1       9.693  12.791  19.005  0.00  0.00    +0.000 A 
ATOM     17  C   UNL     1       9.016  12.298  17.890  0.00  0.00    +0.000 A 
ATOM     18  C   UNL     1       8.661  10.947  17.804  0.00  0.00    +0.000 A 
ATOM     19  C   UNL     1       8.990  10.054  18.833  0.00  0.00    +0.000 A 
ATOM     20  C   UNL     1       9.694  10.551  19.941  0.00  0.00    +0.000 A 
ATOM     21  C   UNL     1      10.043  11.908  20.029  0.00  0.00    +0.000 A 
BRANCH  16  23
ATOM     22  C   UNL     1      11.189  14.484  18.278  0.00  0.00    +0.000 C 
ATOM     23  O   UNL     1       9.992  14.124  18.959  0.00  0.00    +0.000 OA
ENDBRANCH  16  23
ENDBRANCH  15  19
ENDBRANCH  14  15
ENDBRANCH   1  14
TORSDOF 5
ENDMDL
MODEL 5
REMARK VINA RESULT:      -7.6      1.753      2.055
REMARK  Name = 
REMARK  6 active torsions:
REMARK  status: ('A' for Active; 'I' for Inactive)
REMARK    1  A    between atoms: C_1  and  O_2
REMARK    2  A    between atoms: O_2  and  C_3
REMARK    3  A    between atoms: C_6  and  C_7
REMARK    4  A    between atoms: C_7  and  C_8
REMARK    5  A    between atoms: C_8  and  N_9
REMARK    6  A    between atoms: C_10  and  C_12
REMARK                            x       y       z     vdW  Elec       q    Type
REMARK                         _______ _______ _______ _____ _____    ______ ____
ROOT
ATOM      1  N   UNL     1       6.656   7.484  17.401  0.00  0.00    +0.000 N 
ATOM      2  C   UNL     1       6.518   6.269  16.724  0.00  0.00    +0.000 C 
ATOM      3  O   UNL     1       7.408   5.862  15.975  0.00  0.00    +0.000 OA
ATOM      4  H   UNL     1       5.947   7.713  18.092  0.00  0.00    +0.000 HD
ENDROOT
BRANCH   2   5
ATOM      5  C   UNL     1       5.297   5.517  17.003  0.00  0.00    +0.000 A 
ATOM      6  N   UNL     1       4.096   6.014  17.272  0.00  0.00    +0.000 NA
ATOM      7  C   UNL     1       3.342   4.895  17.562  0.00  0.00    +0.000 A 
ATOM      8  C   UNL     1       2.003   4.753  17.950  0.00  0.00    +0.000 A 
ATOM      9  C   UNL     1       1.525   3.463  18.243  0.00  0.00    +0.000 A 
ATOM     10  C   UNL     1       2.354   2.341  18.132  0.00  0.00    +0.000 A 
ATOM     11  C   UNL     1       3.686   2.461  17.715  0.00  0.00    +0.000 A 
ATOM     12  C   UNL     1       4.123   3.755  17.453  0.00  0.00    +0.000 A 
ATOM     13  O   UNL     1       5.372   4.144  17.071  0.00  0.00    +0.000 OA
ENDBRANCH   2   5
BRANCH   1  14
ATOM     14  C   UNL     1       7.934   8.182  17.352  0.00  0.00    +0.000 C 
BRANCH  14  15
ATOM     15  C   UNL     1       8.544   8.526  18.716  0.00  0.00    +0.000 C 
BRANCH  15  19
ATOM     16  C   UNL     1       9.687  12.711  19.015  0.00  0.00    +0.000 A 
ATOM     17  C   UNL     1       9.940  11.823  20.060  0.00  0.00    +0.000 A 
ATOM     18  C   UNL     1       9.582  10.473  19.961  0.00  0.00    +0.000 A 
ATOM     19  C   UNL     1       8.948   9.985  18.810  0.00  0.00    +0.000 A 
ATOM     20  C   UNL     1       8.672  10.888  17.773  0.00  0.00    +0.000 A 
ATOM     21  C   UNL     1       9.039  12.240  17.871  0.00  0.00    +0.000 A 
BRANCH  16  23
ATOM     22  C   UNL     1      10.560  14.727  18.120  0.00  0.00    +0.000 C 
ATOM     23  O   UNL     1      10.074  14.001  19.244  0.00  0.00    +0.000 OA
ENDBRANCH  16  23
ENDBRANCH  15  19
ENDBRANCH  14  15
ENDBRANCH   1  14
TORSDOF 5
ENDMDL
MODEL 6
REMARK VINA RESULT:      -7.5      1.028      1.028
REMARK  Name = 
REMARK  6 active torsions:
REMARK  status: ('A' for Active; 'I' for Inactive)
REMARK    1  A    between atoms: C_1  and  O_2
REMARK    2  A    between atoms: O_2  and  C_3
REMARK    3  A    between atoms: C_6  and  C_7
REMARK    4  A    between atoms: C_7  and  C_8
REMARK    5  A    between atoms: C_8  and  N_9
REMARK    6  A    between atoms: C_10  and  C_12
REMARK                            x       y       z     vdW  Elec       q    Type
REMARK                         _______ _______ _______ _____ _____    ______ ____
ROOT
ATOM      1  N   UNL     1       6.966   6.538  18.160  0.00  0.00    +0.000 N 
ATOM      2  C   UNL     1       6.713   5.613  19.176  0.00  0.00    +0.000 C 
ATOM      3  O   UNL     1       7.500   5.480  20.115  0.00  0.00    +0.000 OA
ATOM      4  H   UNL     1       6.230   6.687  17.476  0.00  0.00    +0.000 HD
ENDROOT
BRANCH   2   5
ATOM      5  C   UNL     1       5.458   4.873  19.070  0.00  0.00    +0.000 A 
ATOM      6  N   UNL     1       5.216   3.815  18.305  0.00  0.00    +0.000 NA
ATOM      7  C   UNL     1       3.870   3.581  18.497  0.00  0.00    +0.000 A 
ATOM      8  C   UNL     1       3.006   2.624  17.946  0.00  0.00    +0.000 A 
ATOM      9  C   UNL     1       1.644   2.675  18.292  0.00  0.00    +0.000 A 
ATOM     10  C   UNL     1       1.158   3.642  19.179  0.00  0.00    +0.000 A 
ATOM     11  C   UNL     1       2.012   4.587  19.762  0.00  0.00    +0.000 A 
ATOM     12  C   UNL     1       3.347   4.512  19.380  0.00  0.00    +0.000 A 
ATOM     13  O   UNL     1       4.365   5.329  19.772  0.00  0.00    +0.000 OA
ENDBRANCH   2   5
BRANCH   1  14
ATOM     14  C   UNL     1       8.077   7.469  18.308  0.00  0.00    +0.000 C 
BRANCH  14  15
ATOM     15  C   UNL     1       7.938   8.781  17.527  0.00  0.00    +0.000 C 
BRANCH  15  19
ATOM     16  C   UNL     1       9.799  12.112  19.613  0.00  0.00    +0.000 A 
ATOM     17  C   UNL     1       9.820  10.827  20.154  0.00  0.00    +0.000 A 
ATOM     18  C   UNL     1       9.230   9.752  19.479  0.00  0.00    +0.000 A 
ATOM     19  C   UNL     1       8.593   9.945  18.246  0.00  0.00    +0.000 A 
ATOM     20  C   UNL     1       8.554  11.245  17.718  0.00  0.00    +0.000 A 
ATOM     21  C   UNL     1       9.152  12.321  18.393  0.00  0.00    +0.000 A 
BRANCH  16  23
ATOM     22  C   UNL     1       9.637  13.585  21.466  0.00  0.00    +0.000 C 
ATOM     23  O   UNL     1      10.399  13.073  20.378  0.00  0.00    +0.000 OA
ENDBRANCH  16  23
ENDBRANCH  15  19
ENDBRANCH  14  15
ENDBRANCH   1  14
TORSDOF 5
ENDMDL
MODEL 7
REMARK VINA RESULT:      -7.5      0.945      1.327
REMARK  Name = 
REMARK  6 active torsions:
REMARK  status: ('A' for Active; 'I' for Inactive)
REMARK    1  A    between atoms: C_1  and  O_2
REMARK    2  A    between atoms: O_2  and  C_3
REMARK    3  A    between atoms: C_6  and  C_7
REMARK    4  A    between atoms: C_7  and  C_8
REMARK    5  A    between atoms: C_8  and  N_9
REMARK    6  A    between atoms: C_10  and  C_12
REMARK                            x       y       z     vdW  Elec       q    Type
REMARK                         _______ _______ _______ _____ _____    ______ ____
ROOT
ATOM      1  N   UNL     1       7.066   6.810  18.099  0.00  0.00    +0.000 N 
ATOM      2  C   UNL     1       7.111   5.491  18.556  0.00  0.00    +0.000 C 
ATOM      3  O   UNL     1       8.133   5.041  19.079  0.00  0.00    +0.000 OA
ATOM      4  H   UNL     1       6.166   7.161  17.785  0.00  0.00    +0.000 HD
ENDROOT
BRANCH   2   5
ATOM      5  C   UNL     1       5.875   4.723  18.419  0.00  0.00    +0.000 A 
ATOM      6  N   UNL     1       4.916   4.908  17.519  0.00  0.00    +0.000 NA
ATOM      7  C   UNL     1       3.944   4.005  17.897  0.00  0.00    +0.000 A 
ATOM      8  C   UNL     1       2.675   3.731  17.367  0.00  0.00    +0.000 A 
ATOM      9  C   UNL     1       1.869   2.780  18.018  0.00  0.00    +0.000 A 
ATOM     10  C   UNL     1       2.324   2.104  19.156  0.00  0.00    +0.000 A 
ATOM     11  C   UNL     1       3.601   2.341  19.680  0.00  0.00    +0.000 A 
ATOM     12  C   UNL     1       4.357   3.302  19.017  0.00  0.00    +0.000 A 
ATOM     13  O   UNL     1       5.606   3.739  19.343  0.00  0.00    +0.000 OA
ENDBRANCH   2   5
BRANCH   1  14
ATOM     14  C   UNL     1       8.177   7.704  18.401  0.00  0.00    +0.000 C 
BRANCH  14  15
ATOM     15  C   UNL     1       8.140   9.057  17.683  0.00  0.00    +0.000 C 
BRANCH  15  19
ATOM     16  C   UNL     1      10.502  12.069  19.747  0.00  0.00    +0.000 A 
ATOM     17  C   UNL     1       9.818  11.084  20.459  0.00  0.00    +0.000 A 
ATOM     18  C   UNL     1       9.066  10.108  19.795  0.00  0.00    +0.000 A 
ATOM     19  C   UNL     1       8.972  10.106  18.396  0.00  0.00    +0.000 A 
ATOM     20  C   UNL     1       9.641  11.115  17.687  0.00  0.00    +0.000 A 
ATOM     21  C   UNL     1      10.401  12.089  18.354  0.00  0.00    +0.000 A 
BRANCH  16  23
ATOM     22  C   UNL     1      10.464  14.115  20.948  0.00  0.00    +0.000 C 
ATOM     23  O   UNL     1      11.187  12.969  20.514  0.00  0.00    +0.000 OA
ENDBRANCH  16  23
ENDBRANCH  15  19
ENDBRANCH  14  15
ENDBRANCH   1  14
TORSDOF 5
ENDMDL
MODEL 8
REMARK VINA RESULT:      -7.5      5.333      7.097
REMARK  Name = 
REMARK  6 active torsions:
REMARK  status: ('A' for Active; 'I' for Inactive)
REMARK    1  A    between atoms: C_1  and  O_2
REMARK    2  A    between atoms: O_2  and  C_3
REMARK    3  A    between atoms: C_6  and  C_7
REMARK    4  A    between atoms: C_7  and  C_8
REMARK    5  A    between atoms: C_8  and  N_9
REMARK    6  A    between atoms: C_10  and  C_12
REMARK                            x       y       z     vdW  Elec       q    Type
REMARK                         _______ _______ _______ _____ _____    ______ ____
ROOT
ATOM      1  N   UNL     1       4.938   5.515  17.983  0.00  0.00    +0.000 N 
ATOM      2  C   UNL     1       6.158   4.891  17.711  0.00  0.00    +0.000 C 
ATOM      3  O   UNL     1       6.879   4.493  18.628  0.00  0.00    +0.000 OA
ATOM      4  H   UNL     1       4.334   5.717  17.191  0.00  0.00    +0.000 HD
ENDROOT
BRANCH   2   5
ATOM      5  C   UNL     1       6.480   4.703  16.298  0.00  0.00    +0.000 A 
ATOM      6  N   UNL     1       7.388   5.365  15.591  0.00  0.00    +0.000 NA
ATOM      7  C   UNL     1       7.211   4.884  14.310  0.00  0.00    +0.000 A 
ATOM      8  C   UNL     1       7.844   5.207  13.102  0.00  0.00    +0.000 A 
ATOM      9  C   UNL     1       7.396   4.583  11.924  0.00  0.00    +0.000 A 
ATOM     10  C   UNL     1       6.357   3.645  11.953  0.00  0.00    +0.000 A 
ATOM     11  C   UNL     1       5.735   3.287  13.156  0.00  0.00    +0.000 A 
ATOM     12  C   UNL     1       6.196   3.941  14.293  0.00  0.00    +0.000 A 
ATOM     13  O   UNL     1       5.739   3.801  15.569  0.00  0.00    +0.000 OA
ENDBRANCH   2   5
BRANCH   1  14
ATOM     14  C   UNL     1       4.442   5.538  19.352  0.00  0.00    +0.000 C 
BRANCH  14  15
ATOM     15  C   UNL     1       2.917   5.489  19.496  0.00  0.00    +0.000 C 
BRANCH  15  19
ATOM     16  C   UNL     1       1.163   9.468  19.435  0.00  0.00    +0.000 A 
ATOM     17  C   UNL     1       1.756   8.929  18.293  0.00  0.00    +0.000 A 
ATOM     18  C   UNL     1       2.312   7.644  18.309  0.00  0.00    +0.000 A 
ATOM     19  C   UNL     1       2.296   6.873  19.479  0.00  0.00    +0.000 A 
ATOM     20  C   UNL     1       1.721   7.430  20.631  0.00  0.00    +0.000 A 
ATOM     21  C   UNL     1       1.158   8.716  20.612  0.00  0.00    +0.000 A 
BRANCH  16  23
ATOM     22  C   UNL     1       1.553  11.699  18.728  0.00  0.00    +0.000 C 
ATOM     23  O   UNL     1       0.670  10.734  19.289  0.00  0.00    +0.000 OA
ENDBRANCH  16  23
ENDBRANCH  15  19
ENDBRANCH  14  15
ENDBRANCH   1  14
TORSDOF 5
ENDMDL
MODEL 9
REMARK VINA RESULT:      -7.4      5.292      7.176
REMARK  Name = 
REMARK  6 active torsions:
REMARK  status: ('A' for Active; 'I' for Inactive)
REMARK    1  A    between atoms: C_1  and  O_2
REMARK    2  A    between atoms: O_2  and  C_3
REMARK    3  A    between atoms: C_6  and  C_7
REMARK    4  A    between atoms: C_7  and  C_8
REMARK    5  A    between atoms: C_8  and  N_9
REMARK    6  A    between atoms: C_10  and  C_12
REMARK                            x       y       z     vdW  Elec       q    Type
REMARK                         _______ _______ _______ _____ _____    ______ ____
ROOT
ATOM      1  N   UNL     1       4.954   5.210  18.050  0.00  0.00    +0.000 N 
ATOM      2  C   UNL     1       6.285   4.929  17.731  0.00  0.00    +0.000 C 
ATOM      3  O   UNL     1       7.132   4.812  18.619  0.00  0.00    +0.000 OA
ATOM      4  H   UNL     1       4.280   5.180  17.290  0.00  0.00    +0.000 HD
ENDROOT
BRANCH   2   5
ATOM      5  C   UNL     1       6.578   4.738  16.313  0.00  0.00    +0.000 A 
ATOM      6  N   UNL     1       7.434   5.432  15.573  0.00  0.00    +0.000 NA
ATOM      7  C   UNL     1       7.246   4.926  14.304  0.00  0.00    +0.000 A 
ATOM      8  C   UNL     1       7.829   5.263  13.074  0.00  0.00    +0.000 A 
ATOM      9  C   UNL     1       7.380   4.602  11.917  0.00  0.00    +0.000 A 
ATOM     10  C   UNL     1       6.389   3.616  11.986  0.00  0.00    +0.000 A 
ATOM     11  C   UNL     1       5.817   3.245  13.210  0.00  0.00    +0.000 A 
ATOM     12  C   UNL     1       6.277   3.936  14.326  0.00  0.00    +0.000 A 
ATOM     13  O   UNL     1       5.861   3.791  15.616  0.00  0.00    +0.000 OA
ENDBRANCH   2   5
BRANCH   1  14
ATOM     14  C   UNL     1       4.539   5.192  19.446  0.00  0.00    +0.000 C 
BRANCH  14  15
ATOM     15  C   UNL     1       3.024   5.199  19.678  0.00  0.00    +0.000 C 
BRANCH  15  19
ATOM     16  C   UNL     1       1.321   9.194  19.465  0.00  0.00    +0.000 A 
ATOM     17  C   UNL     1       1.203   8.426  20.623  0.00  0.00    +0.000 A 
ATOM     18  C   UNL     1       1.760   7.144  20.697  0.00  0.00    +0.000 A 
ATOM     19  C   UNL     1       2.439   6.597  19.600  0.00  0.00    +0.000 A 
ATOM     20  C   UNL     1       2.532   7.364  18.429  0.00  0.00    +0.000 A 
ATOM     21  C   UNL     1       1.980   8.652  18.360  0.00  0.00    +0.000 A 
BRANCH  16  23
ATOM     22  C   UNL     1      -0.331  10.657  18.592  0.00  0.00    +0.000 C 
ATOM     23  O   UNL     1       0.722  10.422  19.520  0.00  0.00    +0.000 OA
ENDBRANCH  16  23
ENDBRANCH  15  19
ENDBRANCH  14  15
ENDBRANCH   1  14
TORSDOF 5
ENDMDL
