MODEL 1
REMARK VINA RESULT:      -7.9      0.000      0.000
REMARK  Name = 
REMARK  5 active torsions:
REMARK  status: ('A' for Active; 'I' for Inactive)
REMARK    1  A    between atoms: C_2  and  O_3
REMARK    2  A    between atoms: C_2  and  C_4
REMARK    3  A    between atoms: C_4  and  C_5
REMARK    4  A    between atoms: N_8  and  C_9
REMARK    5  A    between atoms: C_11  and  C_12
REMARK                            x       y       z     vdW  Elec       q    Type
REMARK                         _______ _______ _______ _____ _____    ______ ____
ROOT
ATOM      1  C   UNL     1       3.702   5.883  18.945  0.00  0.00    +0.000 A 
ATOM      2  N   UNL     1       3.054   7.070  18.939  0.00  0.00    +0.000 NA
ATOM      3  C   UNL     1       2.056   7.280  19.832  0.00  0.00    +0.000 A 
ATOM      4  N   UNL     1       1.639   6.366  20.727  0.00  0.00    +0.000 NA
ATOM      5  C   UNL     1       2.258   5.183  20.691  0.00  0.00    +0.000 A 
ATOM      6  C   UNL     1       3.298   4.892  19.826  0.00  0.00    +0.000 A 
ATOM      7  C   UNL     1       3.806   3.495  19.912  0.00  0.00    +0.000 C 
ATOM      8  S   UNL     1       2.567   2.670  20.885  0.00  0.00    +0.000 S 
ATOM      9  O   UNL     1       3.230   1.900  21.920  0.00  0.00    +0.000 OA
ATOM     10  O   UNL     1       1.615   2.051  19.983  0.00  0.00    +0.000 OA
ATOM     11  C   UNL     1       1.819   4.101  21.621  0.00  0.00    +0.000 C 
ENDROOT
BRANCH   1  15
ATOM     12  C   UNL     1       6.764   6.152  16.064  0.00  0.00    +0.000 C 
ATOM     13  C   UNL     1       6.995   6.303  17.590  0.00  0.00    +0.000 C 
ATOM     14  C   UNL     1       6.075   5.415  18.452  0.00  0.00    +0.000 C 
ATOM     15  N   UNL     1       4.701   5.663  18.017  0.00  0.00    +0.000 N 
ATOM     16  C   UNL     1       4.445   5.275  16.633  0.00  0.00    +0.000 C 
ATOM     17  C   UNL     1       5.254   6.226  15.750  0.00  0.00    +0.000 C 
BRANCH  12  18
ATOM     18  C   UNL     1       7.434   4.876  15.535  0.00  0.00    +0.000 C 
BRANCH  18  20
ATOM     19  O   UNL     1       7.644   5.368  13.185  0.00  0.00    +0.000 OA
ATOM     20  C   UNL     1       7.188   4.648  14.061  0.00  0.00    +0.000 C 
BRANCH  20  21
ATOM     21  O   UNL     1       6.449   3.554  13.790  0.00  0.00    +0.000 OA
ATOM     22  H   UNL     1       6.285   2.971  14.554  0.00  0.00    +0.000 HD
ENDBRANCH  20  21
ENDBRANCH  18  20
ENDBRANCH  12  18
ENDBRANCH   1  15
BRANCH   3  23
ATOM     23  C   UNL     1       1.361   8.588  19.860  0.00  0.00    +0.000 A 
ATOM     24  C   UNL     1       0.700   9.065  21.008  0.00  0.00    +0.000 A 
ATOM     25  C   UNL     1       0.036  10.299  21.011  0.00  0.00    +0.000 A 
ATOM     26  C   UNL     1       0.016  11.088  19.864  0.00  0.00    +0.000 A 
ATOM     27  C   UNL     1       0.662  10.647  18.714  0.00  0.00    +0.000 A 
ATOM     28  C   UNL     1       1.328   9.415  18.718  0.00  0.00    +0.000 A 
ENDBRANCH   3  23
TORSDOF 5
ENDMDL
MODEL 2
REMARK VINA RESULT:      -7.9      0.885      1.535
REMARK  Name = 
REMARK  5 active torsions:
REMARK  status: ('A' for Active; 'I' for Inactive)
REMARK    1  A    between atoms: C_2  and  O_3
REMARK    2  A    between atoms: C_2  and  C_4
REMARK    3  A    between atoms: C_4  and  C_5
REMARK    4  A    between atoms: N_8  and  C_9
REMARK    5  A    between atoms: C_11  and  C_12
REMARK                            x       y       z     vdW  Elec       q    Type
REMARK                         _______ _______ _______ _____ _____    ______ ____
ROOT
ATOM      1  C   UNL     1       3.540   5.819  18.306  0.00  0.00    +0.000 A 
ATOM      2  N   UNL     1       2.931   7.025  18.362  0.00  0.00    +0.000 NA
ATOM      3  C   UNL     1       2.155   7.322  19.433  0.00  0.00    +0.000 A 
ATOM      4  N   UNL     1       1.923   6.477  20.454  0.00  0.00    +0.000 NA
ATOM      5  C   UNL     1       2.495   5.273  20.363  0.00  0.00    +0.000 A 
ATOM      6  C   UNL     1       3.316   4.897  19.315  0.00  0.00    +0.000 A 
ATOM      7  C   UNL     1       3.802   3.490  19.381  0.00  0.00    +0.000 C 
ATOM      8  S   UNL     1       2.786   2.767  20.649  0.00  0.00    +0.000 S 
ATOM      9  O   UNL     1       3.642   2.037  21.565  0.00  0.00    +0.000 OA
ATOM     10  O   UNL     1       1.648   2.129  20.015  0.00  0.00    +0.000 OA
ATOM     11  C   UNL     1       2.245   4.264  21.433  0.00  0.00    +0.000 C 
ENDROOT
BRANCH   1  15
ATOM     12  C   UNL     1       6.526   4.628  15.582  0.00  0.00    +0.000 C 
ATOM     13  C   UNL     1       5.547   3.646  16.278  0.00  0.00    +0.000 C 
ATOM     14  C   UNL     1       4.139   4.231  16.514  0.00  0.00    +0.000 C 
ATOM     15  N   UNL     1       4.310   5.510  17.200  0.00  0.00    +0.000 N 
ATOM     16  C   UNL     1       5.027   6.508  16.413  0.00  0.00    +0.000 C 
ATOM     17  C   UNL     1       6.466   6.008  16.270  0.00  0.00    +0.000 C 
BRANCH  12  18
ATOM     18  C   UNL     1       6.255   4.688  14.071  0.00  0.00    +0.000 C 
BRANCH  18  20
ATOM     19  O   UNL     1       8.407   5.705  13.697  0.00  0.00    +0.000 OA
ATOM     20  C   UNL     1       7.487   5.027  13.265  0.00  0.00    +0.000 C 
BRANCH  20  21
ATOM     21  O   UNL     1       7.504   4.481  12.032  0.00  0.00    +0.000 OA
ATOM     22  H   UNL     1       8.391   4.397  11.635  0.00  0.00    +0.000 HD
ENDBRANCH  20  21
ENDBRANCH  18  20
ENDBRANCH  12  18
ENDBRANCH   1  15
BRANCH   3  23
ATOM     23  C   UNL     1       1.510   8.653  19.524  0.00  0.00    +0.000 A 
ATOM     24  C   UNL     1       1.517   9.568  18.456  0.00  0.00    +0.000 A 
ATOM     25  C   UNL     1       0.912  10.827  18.566  0.00  0.00    +0.000 A 
ATOM     26  C   UNL     1       0.285  11.203  19.751  0.00  0.00    +0.000 A 
ATOM     27  C   UNL     1       0.257  10.321  20.825  0.00  0.00    +0.000 A 
ATOM     28  C   UNL     1       0.859   9.062  20.707  0.00  0.00    +0.000 A 
ENDBRANCH   3  23
TORSDOF 5
ENDMDL
MODEL 3
REMARK VINA RESULT:      -7.9      0.849      1.416
REMARK  Name = 
REMARK  5 active torsions:
REMARK  status: ('A' for Active; 'I' for Inactive)
REMARK    1  A    between atoms: C_2  and  O_3
REMARK    2  A    between atoms: C_2  and  C_4
REMARK    3  A    between atoms: C_4  and  C_5
REMARK    4  A    between atoms: N_8  and  C_9
REMARK    5  A    between atoms: C_11  and  C_12
REMARK                            x       y       z     vdW  Elec       q    Type
REMARK                         _______ _______ _______ _____ _____    ______ ____
ROOT
ATOM      1  C   UNL     1       3.724   5.818  18.542  0.00  0.00    +0.000 A 
ATOM      2  N   UNL     1       3.079   7.006  18.573  0.00  0.00    +0.000 NA
ATOM      3  C   UNL     1       2.193   7.249  19.569  0.00  0.00    +0.000 A 
ATOM      4  N   UNL     1       1.884   6.366  20.537  0.00  0.00    +0.000 NA
ATOM      5  C   UNL     1       2.495   5.181  20.467  0.00  0.00    +0.000 A 
ATOM      6  C   UNL     1       3.426   4.858  19.496  0.00  0.00    +0.000 A 
ATOM      7  C   UNL     1       3.942   3.462  19.568  0.00  0.00    +0.000 C 
ATOM      8  S   UNL     1       2.826   2.674  20.706  0.00  0.00    +0.000 S 
ATOM      9  O   UNL     1       3.606   1.936  21.681  0.00  0.00    +0.000 OA
ATOM     10  O   UNL     1       1.775   2.030  19.943  0.00  0.00    +0.000 OA
ATOM     11  C   UNL     1       2.169   4.132  21.477  0.00  0.00    +0.000 C 
ENDROOT
BRANCH   1  15
ATOM     12  C   UNL     1       5.639   5.069  14.865  0.00  0.00    +0.000 C 
ATOM     13  C   UNL     1       5.254   6.484  15.368  0.00  0.00    +0.000 C 
ATOM     14  C   UNL     1       5.363   6.655  16.898  0.00  0.00    +0.000 C 
ATOM     15  N   UNL     1       4.607   5.564  17.510  0.00  0.00    +0.000 N 
ATOM     16  C   UNL     1       5.146   4.239  17.218  0.00  0.00    +0.000 C 
ATOM     17  C   UNL     1       4.936   3.995  15.723  0.00  0.00    +0.000 C 
BRANCH  12  18
ATOM     18  C   UNL     1       7.165   4.905  14.814  0.00  0.00    +0.000 C 
BRANCH  18  20
ATOM     19  O   UNL     1       8.665   5.901  13.212  0.00  0.00    +0.000 OA
ATOM     20  C   UNL     1       7.737   5.137  13.435  0.00  0.00    +0.000 C 
BRANCH  20  21
ATOM     21  O   UNL     1       7.158   4.397  12.467  0.00  0.00    +0.000 OA
ATOM     22  H   UNL     1       6.611   3.658  12.791  0.00  0.00    +0.000 HD
ENDBRANCH  20  21
ENDBRANCH  18  20
ENDBRANCH  12  18
ENDBRANCH   1  15
BRANCH   3  23
ATOM     23  C   UNL     1       1.505   8.560  19.636  0.00  0.00    +0.000 A 
ATOM     24  C   UNL     1       1.447   9.437  18.536  0.00  0.00    +0.000 A 
ATOM     25  C   UNL     1       0.804  10.678  18.622  0.00  0.00    +0.000 A 
ATOM     26  C   UNL     1       0.200  11.075  19.813  0.00  0.00    +0.000 A 
ATOM     27  C   UNL     1       0.236  10.230  20.918  0.00  0.00    +0.000 A 
ATOM     28  C   UNL     1       0.877   8.989  20.824  0.00  0.00    +0.000 A 
ENDBRANCH   3  23
TORSDOF 5
ENDMDL
MODEL 4
REMARK VINA RESULT:      -7.9      0.559      1.326
REMARK  Name = 
REMARK  5 active torsions:
REMARK  status: ('A' for Active; 'I' for Inactive)
REMARK    1  A    between atoms: C_2  and  O_3
REMARK    2  A    between atoms: C_2  and  C_4
REMARK    3  A    between atoms: C_4  and  C_5
REMARK    4  A    between atoms: N_8  and  C_9
REMARK    5  A    between atoms: C_11  and  C_12
REMARK                            x       y       z     vdW  Elec       q    Type
REMARK                         _______ _______ _______ _____ _____    ______ ____
ROOT
ATOM      1  C   UNL     1       3.842   5.863  18.740  0.00  0.00    +0.000 A 
ATOM      2  N   UNL     1       3.179   7.041  18.749  0.00  0.00    +0.000 NA
ATOM      3  C   UNL     1       2.205   7.243  19.670  0.00  0.00    +0.000 A 
ATOM      4  N   UNL     1       1.826   6.327  20.580  0.00  0.00    +0.000 NA
ATOM      5  C   UNL     1       2.460   5.152  20.530  0.00  0.00    +0.000 A 
ATOM      6  C   UNL     1       3.477   4.871  19.636  0.00  0.00    +0.000 A 
ATOM      7  C   UNL     1       4.006   3.480  19.713  0.00  0.00    +0.000 C 
ATOM      8  S   UNL     1       2.807   2.644  20.725  0.00  0.00    +0.000 S 
ATOM      9  O   UNL     1       3.510   1.887  21.743  0.00  0.00    +0.000 OA
ATOM     10  O   UNL     1       1.837   2.009  19.853  0.00  0.00    +0.000 OA
ATOM     11  C   UNL     1       2.062   4.068  21.477  0.00  0.00    +0.000 C 
ENDROOT
BRANCH   1  15
ATOM     12  C   UNL     1       6.716   4.316  16.076  0.00  0.00    +0.000 C 
ATOM     13  C   UNL     1       5.191   4.325  15.795  0.00  0.00    +0.000 C 
ATOM     14  C   UNL     1       4.457   5.554  16.370  0.00  0.00    +0.000 C 
ATOM     15  N   UNL     1       4.817   5.651  17.784  0.00  0.00    +0.000 N 
ATOM     16  C   UNL     1       6.238   5.893  18.014  0.00  0.00    +0.000 C 
ATOM     17  C   UNL     1       6.980   4.634  17.564  0.00  0.00    +0.000 C 
BRANCH  12  18
ATOM     18  C   UNL     1       7.454   5.256  15.112  0.00  0.00    +0.000 C 
BRANCH  18  20
ATOM     19  O   UNL     1       6.630   3.902  13.297  0.00  0.00    +0.000 OA
ATOM     20  C   UNL     1       7.327   4.836  13.667  0.00  0.00    +0.000 C 
BRANCH  20  21
ATOM     21  O   UNL     1       8.023   5.607  12.806  0.00  0.00    +0.000 OA
ATOM     22  H   UNL     1       7.898   5.384  11.865  0.00  0.00    +0.000 HD
ENDBRANCH  20  21
ENDBRANCH  18  20
ENDBRANCH  12  18
ENDBRANCH   1  15
BRANCH   3  23
ATOM     23  C   UNL     1       1.494   8.542  19.713  0.00  0.00    +0.000 A 
ATOM     24  C   UNL     1       0.828   8.997  20.866  0.00  0.00    +0.000 A 
ATOM     25  C   UNL     1       0.149  10.223  20.884  0.00  0.00    +0.000 A 
ATOM     26  C   UNL     1       0.119  11.025  19.746  0.00  0.00    +0.000 A 
ATOM     27  C   UNL     1       0.770  10.605  18.591  0.00  0.00    +0.000 A 
ATOM     28  C   UNL     1       1.450   9.381  18.581  0.00  0.00    +0.000 A 
ENDBRANCH   3  23
TORSDOF 5
ENDMDL
MODEL 5
REMARK VINA RESULT:      -6.9      3.050      7.125
REMARK  Name = 
REMARK  5 active torsions:
REMARK  status: ('A' for Active; 'I' for Inactive)
REMARK    1  A    between atoms: C_2  and  O_3
REMARK    2  A    between atoms: C_2  and  C_4
REMARK    3  A    between atoms: C_4  and  C_5
REMARK    4  A    between atoms: N_8  and  C_9
REMARK    5  A    between atoms: C_11  and  C_12
REMARK                            x       y       z     vdW  Elec       q    Type
REMARK                         _______ _______ _______ _____ _____    ______ ____
ROOT
ATOM      1  C   UNL     1       2.780   6.286  18.626  0.00  0.00    +0.000 A 
ATOM      2  N   UNL     1       3.716   6.217  17.653  0.00  0.00    +0.000 NA
ATOM      3  C   UNL     1       4.228   5.008  17.316  0.00  0.00    +0.000 A 
ATOM      4  N   UNL     1       3.881   3.850  17.907  0.00  0.00    +0.000 NA
ATOM      5  C   UNL     1       2.988   3.940  18.896  0.00  0.00    +0.000 A 
ATOM      6  C   UNL     1       2.403   5.130  19.290  0.00  0.00    +0.000 A 
ATOM      7  C   UNL     1       1.478   5.013  20.452  0.00  0.00    +0.000 C 
ATOM      8  S   UNL     1       1.813   3.383  21.077  0.00  0.00    +0.000 S 
ATOM      9  O   UNL     1       0.550   2.704  21.297  0.00  0.00    +0.000 OA
ATOM     10  O   UNL     1       2.799   3.493  22.135  0.00  0.00    +0.000 OA
ATOM     11  C   UNL     1       2.589   2.705  19.633  0.00  0.00    +0.000 C 
ENDROOT
BRANCH   1  15
ATOM     12  C   UNL     1       0.425   9.670  19.494  0.00  0.00    +0.000 C 
ATOM     13  C   UNL     1       0.631   8.484  20.472  0.00  0.00    +0.000 C 
ATOM     14  C   UNL     1       2.031   7.841  20.389  0.00  0.00    +0.000 C 
ATOM     15  N   UNL     1       2.279   7.523  18.984  0.00  0.00    +0.000 N 
ATOM     16  C   UNL     1       2.327   8.695  18.115  0.00  0.00    +0.000 C 
ATOM     17  C   UNL     1       0.915   9.281  18.083  0.00  0.00    +0.000 C 
BRANCH  12  18
ATOM     18  C   UNL     1       1.085  10.945  20.038  0.00  0.00    +0.000 C 
BRANCH  18  20
ATOM     19  O   UNL     1       0.525  12.559  21.738  0.00  0.00    +0.000 OA
ATOM     20  C   UNL     1       0.145  11.786  20.870  0.00  0.00    +0.000 C 
BRANCH  20  21
ATOM     21  O   UNL     1      -1.156  11.641  20.547  0.00  0.00    +0.000 OA
ATOM     22  H   UNL     1      -1.636  12.477  20.402  0.00  0.00    +0.000 HD
ENDBRANCH  20  21
ENDBRANCH  18  20
ENDBRANCH  12  18
ENDBRANCH   1  15
BRANCH   3  23
ATOM     23  C   UNL     1       5.230   4.913  16.228  0.00  0.00    +0.000 A 
ATOM     24  C   UNL     1       4.966   4.244  15.018  0.00  0.00    +0.000 A 
ATOM     25  C   UNL     1       5.931   4.153  14.007  0.00  0.00    +0.000 A 
ATOM     26  C   UNL     1       7.187   4.729  14.180  0.00  0.00    +0.000 A 
ATOM     27  C   UNL     1       7.478   5.401  15.363  0.00  0.00    +0.000 A 
ATOM     28  C   UNL     1       6.508   5.492  16.368  0.00  0.00    +0.000 A 
ENDBRANCH   3  23
TORSDOF 5
ENDMDL
MODEL 6
REMARK VINA RESULT:      -6.8      3.117      6.804
REMARK  Name = 
REMARK  5 active torsions:
REMARK  status: ('A' for Active; 'I' for Inactive)
REMARK    1  A    between atoms: C_2  and  O_3
REMARK    2  A    between atoms: C_2  and  C_4
REMARK    3  A    between atoms: C_4  and  C_5
REMARK    4  A    between atoms: N_8  and  C_9
REMARK    5  A    between atoms: C_11  and  C_12
REMARK                            x       y       z     vdW  Elec       q    Type
REMARK                         _______ _______ _______ _____ _____    ______ ____
ROOT
ATOM      1  C   UNL     1       2.819   6.273  18.638  0.00  0.00    +0.000 A 
ATOM      2  N   UNL     1       3.767   6.195  17.677  0.00  0.00    +0.000 NA
ATOM      3  C   UNL     1       4.284   4.983  17.358  0.00  0.00    +0.000 A 
ATOM      4  N   UNL     1       3.931   3.831  17.959  0.00  0.00    +0.000 NA
ATOM      5  C   UNL     1       3.027   3.930  18.936  0.00  0.00    +0.000 A 
ATOM      6  C   UNL     1       2.436   5.124  19.310  0.00  0.00    +0.000 A 
ATOM      7  C   UNL     1       1.498   5.019  20.463  0.00  0.00    +0.000 C 
ATOM      8  S   UNL     1       1.828   3.396  21.110  0.00  0.00    +0.000 S 
ATOM      9  O   UNL     1       0.563   2.718  21.323  0.00  0.00    +0.000 OA
ATOM     10  O   UNL     1       2.802   3.519  22.177  0.00  0.00    +0.000 OA
ATOM     11  C   UNL     1       2.621   2.703  19.682  0.00  0.00    +0.000 C 
ENDROOT
BRANCH   1  15
ATOM     12  C   UNL     1       0.449   9.660  19.454  0.00  0.00    +0.000 C 
ATOM     13  C   UNL     1       0.660   8.490  20.450  0.00  0.00    +0.000 C 
ATOM     14  C   UNL     1       2.063   7.852  20.377  0.00  0.00    +0.000 C 
ATOM     15  N   UNL     1       2.313   7.513  18.978  0.00  0.00    +0.000 N 
ATOM     16  C   UNL     1       2.357   8.672  18.091  0.00  0.00    +0.000 C 
ATOM     17  C   UNL     1       0.941   9.251  18.049  0.00  0.00    +0.000 C 
BRANCH  12  18
ATOM     18  C   UNL     1       1.104  10.946  19.978  0.00  0.00    +0.000 C 
BRANCH  18  20
ATOM     19  O   UNL     1       2.026  12.562  18.447  0.00  0.00    +0.000 OA
ATOM     20  C   UNL     1       1.039  12.086  18.988  0.00  0.00    +0.000 C 
BRANCH  20  21
ATOM     21  O   UNL     1      -0.212  12.513  18.721  0.00  0.00    +0.000 OA
ATOM     22  H   UNL     1      -0.718  11.940  18.116  0.00  0.00    +0.000 HD
ENDBRANCH  20  21
ENDBRANCH  18  20
ENDBRANCH  12  18
ENDBRANCH   1  15
BRANCH   3  23
ATOM     23  C   UNL     1       5.298   4.877  16.283  0.00  0.00    +0.000 A 
ATOM     24  C   UNL     1       6.615   5.346  16.442  0.00  0.00    +0.000 A 
ATOM     25  C   UNL     1       7.557   5.250  15.409  0.00  0.00    +0.000 A 
ATOM     26  C   UNL     1       7.203   4.681  14.188  0.00  0.00    +0.000 A 
ATOM     27  C   UNL     1       5.910   4.204  14.000  0.00  0.00    +0.000 A 
ATOM     28  C   UNL     1       4.975   4.300  15.038  0.00  0.00    +0.000 A 
ENDBRANCH   3  23
TORSDOF 5
ENDMDL
MODEL 7
REMARK VINA RESULT:      -6.8      3.124      6.833
REMARK  Name = 
REMARK  5 active torsions:
REMARK  status: ('A' for Active; 'I' for Inactive)
REMARK    1  A    between atoms: C_2  and  O_3
REMARK    2  A    between atoms: C_2  and  C_4
REMARK    3  A    between atoms: C_4  and  C_5
REMARK    4  A    between atoms: N_8  and  C_9
REMARK    5  A    between atoms: C_11  and  C_12
REMARK                            x       y       z     vdW  Elec       q    Type
REMARK                         _______ _______ _______ _____ _____    ______ ____
ROOT
ATOM      1  C   UNL     1       2.783   6.296  18.653  0.00  0.00    +0.000 A 
ATOM      2  N   UNL     1       3.725   6.227  17.686  0.00  0.00    +0.000 NA
ATOM      3  C   UNL     1       4.242   5.019  17.354  0.00  0.00    +0.000 A 
ATOM      4  N   UNL     1       3.896   3.861  17.948  0.00  0.00    +0.000 NA
ATOM      5  C   UNL     1       2.998   3.951  18.932  0.00  0.00    +0.000 A 
ATOM      6  C   UNL     1       2.406   5.141  19.319  0.00  0.00    +0.000 A 
ATOM      7  C   UNL     1       1.476   5.025  20.477  0.00  0.00    +0.000 C 
ATOM      8  S   UNL     1       1.813   3.397  21.109  0.00  0.00    +0.000 S 
ATOM      9  O   UNL     1       0.551   2.715  21.324  0.00  0.00    +0.000 OA
ATOM     10  O   UNL     1       2.794   3.514  22.171  0.00  0.00    +0.000 OA
ATOM     11  C   UNL     1       2.599   2.717  19.670  0.00  0.00    +0.000 C 
ENDROOT
BRANCH   1  15
ATOM     12  C   UNL     1       0.411   9.668  19.522  0.00  0.00    +0.000 C 
ATOM     13  C   UNL     1       0.645   8.495  20.510  0.00  0.00    +0.000 C 
ATOM     14  C   UNL     1       2.049   7.865  20.411  0.00  0.00    +0.000 C 
ATOM     15  N   UNL     1       2.277   7.532  19.006  0.00  0.00    +0.000 N 
ATOM     16  C   UNL     1       2.299   8.694  18.122  0.00  0.00    +0.000 C 
ATOM     17  C   UNL     1       0.881   9.266  18.107  0.00  0.00    +0.000 C 
BRANCH  12  18
ATOM     18  C   UNL     1       1.068  10.956  20.039  0.00  0.00    +0.000 C 
BRANCH  18  20
ATOM     19  O   UNL     1      -0.060  12.603  18.689  0.00  0.00    +0.000 OA
ATOM     20  C   UNL     1       0.992  12.095  19.049  0.00  0.00    +0.000 C 
BRANCH  20  21
ATOM     21  O   UNL     1       2.193  12.534  18.622  0.00  0.00    +0.000 OA
ATOM     22  H   UNL     1       2.359  12.408  17.669  0.00  0.00    +0.000 HD
ENDBRANCH  20  21
ENDBRANCH  18  20
ENDBRANCH  12  18
ENDBRANCH   1  15
BRANCH   3  23
ATOM     23  C   UNL     1       5.250   4.923  16.272  0.00  0.00    +0.000 A 
ATOM     24  C   UNL     1       5.022   4.188  15.094  0.00  0.00    +0.000 A 
ATOM     25  C   UNL     1       5.992   4.098  14.088  0.00  0.00    +0.000 A 
ATOM     26  C   UNL     1       7.218   4.743  14.235  0.00  0.00    +0.000 A 
ATOM     27  C   UNL     1       7.473   5.482  15.385  0.00  0.00    +0.000 A 
ATOM     28  C   UNL     1       6.497   5.571  16.386  0.00  0.00    +0.000 A 
ENDBRANCH   3  23
TORSDOF 5
ENDMDL
MODEL 8
REMARK VINA RESULT:      -6.4      1.054      1.476
REMARK  Name = 
REMARK  5 active torsions:
REMARK  status: ('A' for Active; 'I' for Inactive)
REMARK    1  A    between atoms: C_2  and  O_3
REMARK    2  A    between atoms: C_2  and  C_4
REMARK    3  A    between atoms: C_4  and  C_5
REMARK    4  A    between atoms: N_8  and  C_9
REMARK    5  A    between atoms: C_11  and  C_12
REMARK                            x       y       z     vdW  Elec       q    Type
REMARK                         _______ _______ _______ _____ _____    ______ ____
ROOT
ATOM      1  C   UNL     1       3.007   5.962  18.783  0.00  0.00    +0.000 A 
ATOM      2  N   UNL     1       2.544   7.170  19.177  0.00  0.00    +0.000 NA
ATOM      3  C   UNL     1       1.665   7.235  20.207  0.00  0.00    +0.000 A 
ATOM      4  N   UNL     1       1.193   6.160  20.865  0.00  0.00    +0.000 NA
ATOM      5  C   UNL     1       1.625   4.972  20.436  0.00  0.00    +0.000 A 
ATOM      6  C   UNL     1       2.534   4.817  19.405  0.00  0.00    +0.000 A 
ATOM      7  C   UNL     1       2.835   3.403  19.048  0.00  0.00    +0.000 C 
ATOM      8  S   UNL     1       1.572   2.489  19.904  0.00  0.00    +0.000 S 
ATOM      9  O   UNL     1       2.197   1.383  20.604  0.00  0.00    +0.000 OA
ATOM     10  O   UNL     1       0.467   2.271  18.990  0.00  0.00    +0.000 OA
ATOM     11  C   UNL     1       1.108   3.731  21.084  0.00  0.00    +0.000 C 
ENDROOT
BRANCH   1  15
ATOM     12  C   UNL     1       6.297   5.513  16.191  0.00  0.00    +0.000 C 
ATOM     13  C   UNL     1       5.411   4.336  16.678  0.00  0.00    +0.000 C 
ATOM     14  C   UNL     1       3.926   4.708  16.867  0.00  0.00    +0.000 C 
ATOM     15  N   UNL     1       3.882   5.897  17.716  0.00  0.00    +0.000 N 
ATOM     16  C   UNL     1       4.513   7.071  17.119  0.00  0.00    +0.000 C 
ATOM     17  C   UNL     1       6.011   6.773  17.035  0.00  0.00    +0.000 C 
BRANCH  12  18
ATOM     18  C   UNL     1       6.122   5.738  14.682  0.00  0.00    +0.000 C 
BRANCH  18  20
ATOM     19  O   UNL     1       6.763   3.793  13.412  0.00  0.00    +0.000 OA
ATOM     20  C   UNL     1       7.059   4.896  13.847  0.00  0.00    +0.000 C 
BRANCH  20  21
ATOM     21  O   UNL     1       8.244   5.484  13.589  0.00  0.00    +0.000 OA
ATOM     22  H   UNL     1       8.471   6.225  14.182  0.00  0.00    +0.000 HD
ENDBRANCH  20  21
ENDBRANCH  18  20
ENDBRANCH  12  18
ENDBRANCH   1  15
BRANCH   3  23
ATOM     23  C   UNL     1       1.177   8.555  20.672  0.00  0.00    +0.000 A 
ATOM     24  C   UNL     1       0.815   8.794  22.011  0.00  0.00    +0.000 A 
ATOM     25  C   UNL     1       0.342  10.045  22.429  0.00  0.00    +0.000 A 
ATOM     26  C   UNL     1       0.218  11.089  21.516  0.00  0.00    +0.000 A 
ATOM     27  C   UNL     1       0.570  10.887  20.186  0.00  0.00    +0.000 A 
ATOM     28  C   UNL     1       1.046   9.635  19.776  0.00  0.00    +0.000 A 
ENDBRANCH   3  23
TORSDOF 5
ENDMDL
MODEL 9
REMARK VINA RESULT:      -6.4      7.446     11.879
REMARK  Name = 
REMARK  5 active torsions:
REMARK  status: ('A' for Active; 'I' for Inactive)
REMARK    1  A    between atoms: C_2  and  O_3
REMARK    2  A    between atoms: C_2  and  C_4
REMARK    3  A    between atoms: C_4  and  C_5
REMARK    4  A    between atoms: N_8  and  C_9
REMARK    5  A    between atoms: C_11  and  C_12
REMARK                            x       y       z     vdW  Elec       q    Type
REMARK                         _______ _______ _______ _____ _____    ______ ____
ROOT
ATOM      1  C   UNL     1      -1.060  12.595  20.973  0.00  0.00    +0.000 A 
ATOM      2  N   UNL     1      -0.575  11.384  20.617  0.00  0.00    +0.000 NA
ATOM      3  C   UNL     1       0.576  11.319  19.904  0.00  0.00    +0.000 A 
ATOM      4  N   UNL     1       1.272  12.396  19.496  0.00  0.00    +0.000 NA
ATOM      5  C   UNL     1       0.757  13.586  19.817  0.00  0.00    +0.000 A 
ATOM      6  C   UNL     1      -0.401  13.741  20.558  0.00  0.00    +0.000 A 
ATOM      7  C   UNL     1      -0.831  15.154  20.753  0.00  0.00    +0.000 C 
ATOM      8  S   UNL     1       0.183  16.050  19.599  0.00  0.00    +0.000 S 
ATOM      9  O   UNL     1       0.757  17.194  20.281  0.00  0.00    +0.000 OA
ATOM     10  O   UNL     1      -0.561  16.208  18.364  0.00  0.00    +0.000 OA
ATOM     11  C   UNL     1       1.447  14.827  19.359  0.00  0.00    +0.000 C 
ENDROOT
BRANCH   1  15
ATOM     12  C   UNL     1      -4.477  13.706  23.173  0.00  0.00    +0.000 C 
ATOM     13  C   UNL     1      -4.358  13.840  21.633  0.00  0.00    +0.000 C 
ATOM     14  C   UNL     1      -3.525  12.723  20.971  0.00  0.00    +0.000 C 
ATOM     15  N   UNL     1      -2.247  12.658  21.678  0.00  0.00    +0.000 N 
ATOM     16  C   UNL     1      -2.371  12.282  23.083  0.00  0.00    +0.000 C 
ATOM     17  C   UNL     1      -3.088  13.435  23.788  0.00  0.00    +0.000 C 
BRANCH  12  18
ATOM     18  C   UNL     1      -5.526  12.649  23.548  0.00  0.00    +0.000 C 
BRANCH  18  20
ATOM     19  O   UNL     1      -7.876  12.621  24.080  0.00  0.00    +0.000 OA
ATOM     20  C   UNL     1      -6.832  13.252  24.011  0.00  0.00    +0.000 C 
BRANCH  20  21
ATOM     21  O   UNL     1      -6.740  14.546  24.381  0.00  0.00    +0.000 OA
ATOM     22  H   UNL     1      -7.506  14.884  24.880  0.00  0.00    +0.000 HD
ENDBRANCH  20  21
ENDBRANCH  18  20
ENDBRANCH  12  18
ENDBRANCH   1  15
BRANCH   3  23
ATOM     23  C   UNL     1       1.138   9.999  19.536  0.00  0.00    +0.000 A 
ATOM     24  C   UNL     1       1.576   9.704  18.232  0.00  0.00    +0.000 A 
ATOM     25  C   UNL     1       2.093   8.445  17.900  0.00  0.00    +0.000 A 
ATOM     26  C   UNL     1       2.182   7.446  18.866  0.00  0.00    +0.000 A 
ATOM     27  C   UNL     1       1.761   7.706  20.166  0.00  0.00    +0.000 A 
ATOM     28  C   UNL     1       1.250   8.968  20.492  0.00  0.00    +0.000 A 
ENDBRANCH   3  23
TORSDOF 5
ENDMDL
