MODEL 1
REMARK VINA RESULT:      -7.4      0.000      0.000
REMARK  Name = 
REMARK  9 active torsions:
REMARK  status: ('A' for Active; 'I' for Inactive)
REMARK    1  A    between atoms: C_1  and  O_2
REMARK    2  A    between atoms: O_2  and  C_3
REMARK    3  A    between atoms: C_6  and  C_7
REMARK    4  A    between atoms: C_7  and  N_8
REMARK    5  A    between atoms: N_8  and  C_9
REMARK    6  A    between atoms: C_9  and  C_10
REMARK    7  A    between atoms: C_13  and  C_14
REMARK    8  A    between atoms: C_18  and  C_19
REMARK    9  A    between atoms: C_19  and  N_20
REMARK                            x       y       z     vdW  Elec       q    Type
REMARK                         _______ _______ _______ _____ _____    ______ ____
ROOT
ATOM      1  C   UNL     1       2.873   4.930  19.429  0.00  0.00    +0.000 A 
ATOM      2  C   UNL     1       2.177   5.903  20.156  0.00  0.00    +0.000 A 
ATOM      3  C   UNL     1       2.031   7.196  19.660  0.00  0.00    +0.000 A 
ATOM      4  C   UNL     1       2.580   7.542  18.425  0.00  0.00    +0.000 A 
ATOM      5  C   UNL     1       3.217   6.549  17.663  0.00  0.00    +0.000 A 
ATOM      6  C   UNL     1       3.342   5.228  18.138  0.00  0.00    +0.000 A 
ENDROOT
BRANCH   1   8
ATOM      7  C   UNL     1       2.427   3.364  21.138  0.00  0.00    +0.000 C 
ATOM      8  O   UNL     1       3.095   3.663  19.909  0.00  0.00    +0.000 OA
ENDBRANCH   1   8
BRANCH   4   9
ATOM      9  C   UNL     1       2.499   8.968  17.940  0.00  0.00    +0.000 C 
BRANCH   9  10
ATOM     10  N   UNL     1       1.144   9.326  17.544  0.00  0.00    +0.000 NA
ATOM     11  H   UNL     1       0.583   8.479  17.446  0.00  0.00    +0.000 HD
BRANCH  10  12
ATOM     12  C   UNL     1       0.528  10.181  18.559  0.00  0.00    +0.000 C 
BRANCH  12  13
ATOM     13  C   UNL     1      -0.906  10.493  18.214  0.00  0.00    +0.000 A 
ATOM     14  C   UNL     1      -1.619  11.467  18.925  0.00  0.00    +0.000 A 
ATOM     15  C   UNL     1      -2.947  11.752  18.599  0.00  0.00    +0.000 A 
ATOM     16  C   UNL     1      -3.585  11.065  17.561  0.00  0.00    +0.000 A 
ATOM     17  C   UNL     1      -5.015  11.352  17.208  0.00  0.00    +0.000 C 
ATOM     18  C   UNL     1      -2.873  10.096  16.845  0.00  0.00    +0.000 A 
ATOM     19  C   UNL     1      -1.545   9.815  17.169  0.00  0.00    +0.000 A 
ENDBRANCH  12  13
ENDBRANCH  10  12
ENDBRANCH   9  10
ENDBRANCH   4   9
BRANCH   6  20
ATOM     20  C   UNL     1       3.918   4.172  17.228  0.00  0.00    +0.000 C 
BRANCH  20  21
ATOM     21  N   UNL     1       5.215   4.513  16.665  0.00  0.00    +0.000 N 
ATOM     22  C   UNL     1       5.535   4.579  15.334  0.00  0.00    +0.000 A 
ATOM     23  C   UNL     1       6.906   4.686  15.301  0.00  0.00    +0.000 A 
ATOM     24  N   UNL     1       7.424   4.689  16.570  0.00  0.00    +0.000 NA
ATOM     25  C   UNL     1       6.385   4.583  17.368  0.00  0.00    +0.000 A 
ENDBRANCH  20  21
ENDBRANCH   6  20
TORSDOF 7
ENDMDL
MODEL 2
REMARK VINA RESULT:      -7.3      1.935      3.541
REMARK  Name = 
REMARK  9 active torsions:
REMARK  status: ('A' for Active; 'I' for Inactive)
REMARK    1  A    between atoms: C_1  and  O_2
REMARK    2  A    between atoms: O_2  and  C_3
REMARK    3  A    between atoms: C_6  and  C_7
REMARK    4  A    between atoms: C_7  and  N_8
REMARK    5  A    between atoms: N_8  and  C_9
REMARK    6  A    between atoms: C_9  and  C_10
REMARK    7  A    between atoms: C_13  and  C_14
REMARK    8  A    between atoms: C_18  and  C_19
REMARK    9  A    between atoms: C_19  and  N_20
REMARK                            x       y       z     vdW  Elec       q    Type
REMARK                         _______ _______ _______ _____ _____    ______ ____
ROOT
ATOM      1  C   UNL     1       4.174   5.007  16.944  0.00  0.00    +0.000 A 
ATOM      2  C   UNL     1       4.595   6.341  16.910  0.00  0.00    +0.000 A 
ATOM      3  C   UNL     1       3.884   7.332  17.583  0.00  0.00    +0.000 A 
ATOM      4  C   UNL     1       2.735   7.006  18.305  0.00  0.00    +0.000 A 
ATOM      5  C   UNL     1       2.353   5.658  18.399  0.00  0.00    +0.000 A 
ATOM      6  C   UNL     1       3.083   4.642  17.750  0.00  0.00    +0.000 A 
ENDROOT
BRANCH   1   8
ATOM      7  C   UNL     1       6.230   4.150  16.161  0.00  0.00    +0.000 C 
ATOM      8  O   UNL     1       4.809   4.010  16.244  0.00  0.00    +0.000 OA
ENDBRANCH   1   8
BRANCH   4   9
ATOM      9  C   UNL     1       1.920   8.098  18.951  0.00  0.00    +0.000 C 
BRANCH   9  10
ATOM     10  N   UNL     1       1.514   9.111  17.987  0.00  0.00    +0.000 NA
ATOM     11  H   UNL     1       0.758   8.745  17.407  0.00  0.00    +0.000 HD
BRANCH  10  12
ATOM     12  C   UNL     1       1.037  10.307  18.681  0.00  0.00    +0.000 C 
BRANCH  12  13
ATOM     13  C   UNL     1      -0.433  10.533  18.429  0.00  0.00    +0.000 A 
ATOM     14  C   UNL     1      -1.147  11.488  19.163  0.00  0.00    +0.000 A 
ATOM     15  C   UNL     1      -2.508  11.694  18.925  0.00  0.00    +0.000 A 
ATOM     16  C   UNL     1      -3.178  10.945  17.952  0.00  0.00    +0.000 A 
ATOM     17  C   UNL     1      -4.643  11.145  17.694  0.00  0.00    +0.000 C 
ATOM     18  C   UNL     1      -2.465   9.993  17.213  0.00  0.00    +0.000 A 
ATOM     19  C   UNL     1      -1.105   9.792  17.450  0.00  0.00    +0.000 A 
ENDBRANCH  12  13
ENDBRANCH  10  12
ENDBRANCH   9  10
ENDBRANCH   4   9
BRANCH   6  20
ATOM     20  C   UNL     1       2.706   3.200  17.989  0.00  0.00    +0.000 C 
BRANCH  20  21
ATOM     21  N   UNL     1       2.450   2.875  19.383  0.00  0.00    +0.000 N 
ATOM     22  C   UNL     1       1.224   2.810  19.994  0.00  0.00    +0.000 A 
ATOM     23  C   UNL     1       1.499   2.720  21.339  0.00  0.00    +0.000 A 
ATOM     24  N   UNL     1       2.852   2.725  21.559  0.00  0.00    +0.000 NA
ATOM     25  C   UNL     1       3.397   2.820  20.366  0.00  0.00    +0.000 A 
ENDBRANCH  20  21
ENDBRANCH   6  20
TORSDOF 7
ENDMDL
MODEL 3
REMARK VINA RESULT:      -7.2      4.078      5.669
REMARK  Name = 
REMARK  9 active torsions:
REMARK  status: ('A' for Active; 'I' for Inactive)
REMARK    1  A    between atoms: C_1  and  O_2
REMARK    2  A    between atoms: O_2  and  C_3
REMARK    3  A    between atoms: C_6  and  C_7
REMARK    4  A    between atoms: C_7  and  N_8
REMARK    5  A    between atoms: N_8  and  C_9
REMARK    6  A    between atoms: C_9  and  C_10
REMARK    7  A    between atoms: C_13  and  C_14
REMARK    8  A    between atoms: C_18  and  C_19
REMARK    9  A    between atoms: C_19  and  N_20
REMARK                            x       y       z     vdW  Elec       q    Type
REMARK                         _______ _______ _______ _____ _____    ______ ____
ROOT
ATOM      1  C   UNL     1       5.706   5.540  17.907  0.00  0.00    +0.000 A 
ATOM      2  C   UNL     1       5.679   4.799  19.094  0.00  0.00    +0.000 A 
ATOM      3  C   UNL     1       5.003   3.584  19.162  0.00  0.00    +0.000 A 
ATOM      4  C   UNL     1       4.339   3.084  18.041  0.00  0.00    +0.000 A 
ATOM      5  C   UNL     1       4.425   3.790  16.831  0.00  0.00    +0.000 A 
ATOM      6  C   UNL     1       5.134   5.005  16.739  0.00  0.00    +0.000 A 
ENDROOT
BRANCH   1   8
ATOM      7  C   UNL     1       7.717   6.768  18.047  0.00  0.00    +0.000 C 
ATOM      8  O   UNL     1       6.306   6.772  17.813  0.00  0.00    +0.000 OA
ENDBRANCH   1   8
BRANCH   4   9
ATOM      9  C   UNL     1       3.532   1.814  18.151  0.00  0.00    +0.000 C 
BRANCH   9  10
ATOM     10  N   UNL     1       2.216   1.958  17.545  0.00  0.00    +0.000 NA
ATOM     11  H   UNL     1       1.927   1.066  17.142  0.00  0.00    +0.000 HD
BRANCH  10  12
ATOM     12  C   UNL     1       1.234   2.356  18.555  0.00  0.00    +0.000 C 
BRANCH  12  13
ATOM     13  C   UNL     1       1.439   3.788  18.981  0.00  0.00    +0.000 A 
ATOM     14  C   UNL     1       1.511   4.129  20.337  0.00  0.00    +0.000 A 
ATOM     15  C   UNL     1       1.702   5.457  20.725  0.00  0.00    +0.000 A 
ATOM     16  C   UNL     1       1.820   6.466  19.764  0.00  0.00    +0.000 A 
ATOM     17  C   UNL     1       2.012   7.899  20.167  0.00  0.00    +0.000 C 
ATOM     18  C   UNL     1       1.755   6.127  18.408  0.00  0.00    +0.000 A 
ATOM     19  C   UNL     1       1.568   4.800  18.022  0.00  0.00    +0.000 A 
ENDBRANCH  12  13
ENDBRANCH  10  12
ENDBRANCH   9  10
ENDBRANCH   4   9
BRANCH   6  20
ATOM     20  C   UNL     1       5.305   5.656  15.389  0.00  0.00    +0.000 C 
BRANCH  20  21
ATOM     21  N   UNL     1       5.931   4.804  14.392  0.00  0.00    +0.000 N 
ATOM     22  C   UNL     1       7.224   4.888  13.942  0.00  0.00    +0.000 A 
ATOM     23  C   UNL     1       7.276   4.058  12.845  0.00  0.00    +0.000 A 
ATOM     24  N   UNL     1       6.057   3.474  12.620  0.00  0.00    +0.000 NA
ATOM     25  C   UNL     1       5.269   3.941  13.563  0.00  0.00    +0.000 A 
ENDBRANCH  20  21
ENDBRANCH   6  20
TORSDOF 7
ENDMDL
MODEL 4
REMARK VINA RESULT:      -7.2      2.280      2.526
REMARK  Name = 
REMARK  9 active torsions:
REMARK  status: ('A' for Active; 'I' for Inactive)
REMARK    1  A    between atoms: C_1  and  O_2
REMARK    2  A    between atoms: O_2  and  C_3
REMARK    3  A    between atoms: C_6  and  C_7
REMARK    4  A    between atoms: C_7  and  N_8
REMARK    5  A    between atoms: N_8  and  C_9
REMARK    6  A    between atoms: C_9  and  C_10
REMARK    7  A    between atoms: C_13  and  C_14
REMARK    8  A    between atoms: C_18  and  C_19
REMARK    9  A    between atoms: C_19  and  N_20
REMARK                            x       y       z     vdW  Elec       q    Type
REMARK                         _______ _______ _______ _____ _____    ______ ____
ROOT
ATOM      1  C   UNL     1       3.109   4.213  19.100  0.00  0.00    +0.000 A 
ATOM      2  C   UNL     1       2.303   5.129  19.786  0.00  0.00    +0.000 A 
ATOM      3  C   UNL     1       2.203   6.451  19.360  0.00  0.00    +0.000 A 
ATOM      4  C   UNL     1       2.909   6.884  18.237  0.00  0.00    +0.000 A 
ATOM      5  C   UNL     1       3.662   5.950  17.507  0.00  0.00    +0.000 A 
ATOM      6  C   UNL     1       3.745   4.601  17.908  0.00  0.00    +0.000 A 
ENDROOT
BRANCH   1   8
ATOM      7  C   UNL     1       3.056   2.709  20.919  0.00  0.00    +0.000 C 
ATOM      8  O   UNL     1       3.287   2.918  19.523  0.00  0.00    +0.000 OA
ENDBRANCH   1   8
BRANCH   4   9
ATOM      9  C   UNL     1       2.868   8.338  17.839  0.00  0.00    +0.000 C 
BRANCH   9  10
ATOM     10  N   UNL     1       1.512   8.867  17.867  0.00  0.00    +0.000 NA
ATOM     11  H   UNL     1       0.969   8.374  18.578  0.00  0.00    +0.000 HD
BRANCH  10  12
ATOM     12  C   UNL     1       1.531  10.292  18.198  0.00  0.00    +0.000 C 
BRANCH  12  13
ATOM     13  C   UNL     1       0.790  10.565  19.483  0.00  0.00    +0.000 A 
ATOM     14  C   UNL     1       0.480  11.875  19.867  0.00  0.00    +0.000 A 
ATOM     15  C   UNL     1      -0.208  12.120  21.058  0.00  0.00    +0.000 A 
ATOM     16  C   UNL     1      -0.592  11.060  21.886  0.00  0.00    +0.000 A 
ATOM     17  C   UNL     1      -1.319  11.310  23.175  0.00  0.00    +0.000 C 
ATOM     18  C   UNL     1      -0.288   9.749  21.501  0.00  0.00    +0.000 A 
ATOM     19  C   UNL     1       0.396   9.506  20.310  0.00  0.00    +0.000 A 
ENDBRANCH  12  13
ENDBRANCH  10  12
ENDBRANCH   9  10
ENDBRANCH   4   9
BRANCH   6  20
ATOM     20  C   UNL     1       4.459   3.613  17.019  0.00  0.00    +0.000 C 
BRANCH  20  21
ATOM     21  N   UNL     1       5.584   4.174  16.289  0.00  0.00    +0.000 N 
ATOM     22  C   UNL     1       5.679   4.331  14.930  0.00  0.00    +0.000 A 
ATOM     23  C   UNL     1       6.995   4.657  14.698  0.00  0.00    +0.000 A 
ATOM     24  N   UNL     1       7.698   4.705  15.874  0.00  0.00    +0.000 NA
ATOM     25  C   UNL     1       6.825   4.410  16.812  0.00  0.00    +0.000 A 
ENDBRANCH  20  21
ENDBRANCH   6  20
TORSDOF 7
ENDMDL
MODEL 5
REMARK VINA RESULT:      -7.2      1.995      3.795
REMARK  Name = 
REMARK  9 active torsions:
REMARK  status: ('A' for Active; 'I' for Inactive)
REMARK    1  A    between atoms: C_1  and  O_2
REMARK    2  A    between atoms: O_2  and  C_3
REMARK    3  A    between atoms: C_6  and  C_7
REMARK    4  A    between atoms: C_7  and  N_8
REMARK    5  A    between atoms: N_8  and  C_9
REMARK    6  A    between atoms: C_9  and  C_10
REMARK    7  A    between atoms: C_13  and  C_14
REMARK    8  A    between atoms: C_18  and  C_19
REMARK    9  A    between atoms: C_19  and  N_20
REMARK                            x       y       z     vdW  Elec       q    Type
REMARK                         _______ _______ _______ _____ _____    ______ ____
ROOT
ATOM      1  C   UNL     1       4.150   5.042  16.927  0.00  0.00    +0.000 A 
ATOM      2  C   UNL     1       4.596   6.361  16.787  0.00  0.00    +0.000 A 
ATOM      3  C   UNL     1       3.942   7.408  17.431  0.00  0.00    +0.000 A 
ATOM      4  C   UNL     1       2.826   7.156  18.229  0.00  0.00    +0.000 A 
ATOM      5  C   UNL     1       2.421   5.826  18.428  0.00  0.00    +0.000 A 
ATOM      6  C   UNL     1       3.095   4.754  17.809  0.00  0.00    +0.000 A 
ENDROOT
BRANCH   1   8
ATOM      7  C   UNL     1       6.071   4.218  15.829  0.00  0.00    +0.000 C 
ATOM      8  O   UNL     1       4.727   3.988  16.260  0.00  0.00    +0.000 OA
ENDBRANCH   1   8
BRANCH   4   9
ATOM      9  C   UNL     1       2.068   8.305  18.846  0.00  0.00    +0.000 C 
BRANCH   9  10
ATOM     10  N   UNL     1       1.526   9.199  17.832  0.00  0.00    +0.000 NA
ATOM     11  H   UNL     1       0.743   8.744  17.361  0.00  0.00    +0.000 HD
BRANCH  10  12
ATOM     12  C   UNL     1       1.046  10.435  18.451  0.00  0.00    +0.000 C 
BRANCH  12  13
ATOM     13  C   UNL     1      -0.443  10.593  18.272  0.00  0.00    +0.000 A 
ATOM     14  C   UNL     1      -1.158   9.732  17.431  0.00  0.00    +0.000 A 
ATOM     15  C   UNL     1      -2.538   9.883  17.270  0.00  0.00    +0.000 A 
ATOM     16  C   UNL     1      -3.223  10.898  17.945  0.00  0.00    +0.000 A 
ATOM     17  C   UNL     1      -4.703  11.080  17.771  0.00  0.00    +0.000 C 
ATOM     18  C   UNL     1      -2.511  11.756  18.791  0.00  0.00    +0.000 A 
ATOM     19  C   UNL     1      -1.134  11.602  18.953  0.00  0.00    +0.000 A 
ENDBRANCH  12  13
ENDBRANCH  10  12
ENDBRANCH   9  10
ENDBRANCH   4   9
BRANCH   6  20
ATOM     20  C   UNL     1       2.701   3.340  18.158  0.00  0.00    +0.000 C 
BRANCH  20  21
ATOM     21  N   UNL     1       2.416   3.131  19.568  0.00  0.00    +0.000 N 
ATOM     22  C   UNL     1       3.302   2.712  20.527  0.00  0.00    +0.000 A 
ATOM     23  C   UNL     1       2.529   2.424  21.628  0.00  0.00    +0.000 A 
ATOM     24  N   UNL     1       1.204   2.660  21.366  0.00  0.00    +0.000 NA
ATOM     25  C   UNL     1       1.167   3.083  20.121  0.00  0.00    +0.000 A 
ENDBRANCH  20  21
ENDBRANCH   6  20
TORSDOF 7
ENDMDL
MODEL 6
REMARK VINA RESULT:      -7.2      0.741      1.242
REMARK  Name = 
REMARK  9 active torsions:
REMARK  status: ('A' for Active; 'I' for Inactive)
REMARK    1  A    between atoms: C_1  and  O_2
REMARK    2  A    between atoms: O_2  and  C_3
REMARK    3  A    between atoms: C_6  and  C_7
REMARK    4  A    between atoms: C_7  and  N_8
REMARK    5  A    between atoms: N_8  and  C_9
REMARK    6  A    between atoms: C_9  and  C_10
REMARK    7  A    between atoms: C_13  and  C_14
REMARK    8  A    between atoms: C_18  and  C_19
REMARK    9  A    between atoms: C_19  and  N_20
REMARK                            x       y       z     vdW  Elec       q    Type
REMARK                         _______ _______ _______ _____ _____    ______ ____
ROOT
ATOM      1  C   UNL     1       2.948   4.207  19.500  0.00  0.00    +0.000 A 
ATOM      2  C   UNL     1       2.124   5.060  20.243  0.00  0.00    +0.000 A 
ATOM      3  C   UNL     1       1.907   6.375  19.839  0.00  0.00    +0.000 A 
ATOM      4  C   UNL     1       2.512   6.864  18.681  0.00  0.00    +0.000 A 
ATOM      5  C   UNL     1       3.282   5.990  17.897  0.00  0.00    +0.000 A 
ATOM      6  C   UNL     1       3.482   4.647  18.276  0.00  0.00    +0.000 A 
ENDROOT
BRANCH   1   8
ATOM      7  C   UNL     1       2.925   2.636  21.261  0.00  0.00    +0.000 C 
ATOM      8  O   UNL     1       3.239   2.925  19.896  0.00  0.00    +0.000 OA
ENDBRANCH   1   8
BRANCH   4   9
ATOM      9  C   UNL     1       2.347   8.315  18.303  0.00  0.00    +0.000 C 
BRANCH   9  10
ATOM     10  N   UNL     1       1.398   8.994  19.173  0.00  0.00    +0.000 NA
ATOM     11  H   UNL     1       1.776   9.040  20.120  0.00  0.00    +0.000 HD
BRANCH  10  12
ATOM     12  C   UNL     1       1.160  10.357  18.697  0.00  0.00    +0.000 C 
BRANCH  12  13
ATOM     13  C   UNL     1      -0.315  10.633  18.545  0.00  0.00    +0.000 A 
ATOM     14  C   UNL     1      -1.083   9.928  17.610  0.00  0.00    +0.000 A 
ATOM     15  C   UNL     1      -2.449  10.187  17.475  0.00  0.00    +0.000 A 
ATOM     16  C   UNL     1      -3.068  11.158  18.269  0.00  0.00    +0.000 A 
ATOM     17  C   UNL     1      -4.531  11.456  18.126  0.00  0.00    +0.000 C 
ATOM     18  C   UNL     1      -2.303  11.860  19.209  0.00  0.00    +0.000 A 
ATOM     19  C   UNL     1      -0.940  11.597  19.345  0.00  0.00    +0.000 A 
ENDBRANCH  12  13
ENDBRANCH  10  12
ENDBRANCH   9  10
ENDBRANCH   4   9
BRANCH   6  20
ATOM     20  C   UNL     1       4.207   3.718  17.335  0.00  0.00    +0.000 C 
BRANCH  20  21
ATOM     21  N   UNL     1       5.409   4.286  16.745  0.00  0.00    +0.000 N 
ATOM     22  C   UNL     1       5.676   4.421  15.407  0.00  0.00    +0.000 A 
ATOM     23  C   UNL     1       7.006   4.766  15.341  0.00  0.00    +0.000 A 
ATOM     24  N   UNL     1       7.550   4.845  16.597  0.00  0.00    +0.000 NA
ATOM     25  C   UNL     1       6.568   4.551  17.419  0.00  0.00    +0.000 A 
ENDBRANCH  20  21
ENDBRANCH   6  20
TORSDOF 7
ENDMDL
MODEL 7
REMARK VINA RESULT:      -7.1      1.975      3.663
REMARK  Name = 
REMARK  9 active torsions:
REMARK  status: ('A' for Active; 'I' for Inactive)
REMARK    1  A    between atoms: C_1  and  O_2
REMARK    2  A    between atoms: O_2  and  C_3
REMARK    3  A    between atoms: C_6  and  C_7
REMARK    4  A    between atoms: C_7  and  N_8
REMARK    5  A    between atoms: N_8  and  C_9
REMARK    6  A    between atoms: C_9  and  C_10
REMARK    7  A    between atoms: C_13  and  C_14
REMARK    8  A    between atoms: C_18  and  C_19
REMARK    9  A    between atoms: C_19  and  N_20
REMARK                            x       y       z     vdW  Elec       q    Type
REMARK                         _______ _______ _______ _____ _____    ______ ____
ROOT
ATOM      1  C   UNL     1       3.747   5.251  17.347  0.00  0.00    +0.000 A 
ATOM      2  C   UNL     1       4.601   6.350  17.197  0.00  0.00    +0.000 A 
ATOM      3  C   UNL     1       4.154   7.642  17.457  0.00  0.00    +0.000 A 
ATOM      4  C   UNL     1       2.839   7.862  17.872  0.00  0.00    +0.000 A 
ATOM      5  C   UNL     1       2.004   6.756  18.091  0.00  0.00    +0.000 A 
ATOM      6  C   UNL     1       2.454   5.439  17.865  0.00  0.00    +0.000 A 
ENDROOT
BRANCH   1   8
ATOM      7  C   UNL     1       5.294   3.871  16.217  0.00  0.00    +0.000 C 
ATOM      8  O   UNL     1       4.129   3.967  17.041  0.00  0.00    +0.000 OA
ENDBRANCH   1   8
BRANCH   4   9
ATOM      9  C   UNL     1       2.337   9.272  18.060  0.00  0.00    +0.000 C 
BRANCH   9  10
ATOM     10  N   UNL     1       0.938   9.401  17.676  0.00  0.00    +0.000 NA
ATOM     11  H   UNL     1       0.563   8.481  17.442  0.00  0.00    +0.000 HD
BRANCH  10  12
ATOM     12  C   UNL     1       0.159   9.957  18.783  0.00  0.00    +0.000 C 
BRANCH  12  13
ATOM     13  C   UNL     1      -1.201  10.413  18.318  0.00  0.00    +0.000 A 
ATOM     14  C   UNL     1      -1.781   9.873  17.163  0.00  0.00    +0.000 A 
ATOM     15  C   UNL     1      -3.042  10.299  16.738  0.00  0.00    +0.000 A 
ATOM     16  C   UNL     1      -3.741  11.273  17.457  0.00  0.00    +0.000 A 
ATOM     17  C   UNL     1      -5.090  11.750  17.005  0.00  0.00    +0.000 C 
ATOM     18  C   UNL     1      -3.166  11.810  18.615  0.00  0.00    +0.000 A 
ATOM     19  C   UNL     1      -1.908  11.381  19.041  0.00  0.00    +0.000 A 
ENDBRANCH  12  13
ENDBRANCH  10  12
ENDBRANCH   9  10
ENDBRANCH   4   9
BRANCH   6  20
ATOM     20  C   UNL     1       1.561   4.282  18.239  0.00  0.00    +0.000 C 
BRANCH  20  21
ATOM     21  N   UNL     1       1.799   3.753  19.572  0.00  0.00    +0.000 N 
ATOM     22  C   UNL     1       1.271   2.603  20.100  0.00  0.00    +0.000 A 
ATOM     23  C   UNL     1       1.571   2.653  21.441  0.00  0.00    +0.000 A 
ATOM     24  N   UNL     1       2.267   3.797  21.740  0.00  0.00    +0.000 NA
ATOM     25  C   UNL     1       2.387   4.437  20.599  0.00  0.00    +0.000 A 
ENDBRANCH  20  21
ENDBRANCH   6  20
TORSDOF 7
ENDMDL
MODEL 8
REMARK VINA RESULT:      -7.1      1.098      1.763
REMARK  Name = 
REMARK  9 active torsions:
REMARK  status: ('A' for Active; 'I' for Inactive)
REMARK    1  A    between atoms: C_1  and  O_2
REMARK    2  A    between atoms: O_2  and  C_3
REMARK    3  A    between atoms: C_6  and  C_7
REMARK    4  A    between atoms: C_7  and  N_8
REMARK    5  A    between atoms: N_8  and  C_9
REMARK    6  A    between atoms: C_9  and  C_10
REMARK    7  A    between atoms: C_13  and  C_14
REMARK    8  A    between atoms: C_18  and  C_19
REMARK    9  A    between atoms: C_19  and  N_20
REMARK                            x       y       z     vdW  Elec       q    Type
REMARK                         _______ _______ _______ _____ _____    ______ ____
ROOT
ATOM      1  C   UNL     1       2.954   4.172  19.404  0.00  0.00    +0.000 A 
ATOM      2  C   UNL     1       2.091   4.546  20.441  0.00  0.00    +0.000 A 
ATOM      3  C   UNL     1       1.711   5.875  20.610  0.00  0.00    +0.000 A 
ATOM      4  C   UNL     1       2.188   6.859  19.744  0.00  0.00    +0.000 A 
ATOM      5  C   UNL     1       2.996   6.476  18.662  0.00  0.00    +0.000 A 
ATOM      6  C   UNL     1       3.361   5.129  18.459  0.00  0.00    +0.000 A 
ENDROOT
BRANCH   1   8
ATOM      7  C   UNL     1       2.379   1.925  18.967  0.00  0.00    +0.000 C 
ATOM      8  O   UNL     1       3.404   2.885  19.240  0.00  0.00    +0.000 OA
ENDBRANCH   1   8
BRANCH   4   9
ATOM      9  C   UNL     1       1.847   8.307  19.991  0.00  0.00    +0.000 C 
BRANCH   9  10
ATOM     10  N   UNL     1       1.379   8.965  18.780  0.00  0.00    +0.000 NA
ATOM     11  H   UNL     1       0.568   8.466  18.413  0.00  0.00    +0.000 HD
BRANCH  10  12
ATOM     12  C   UNL     1       0.987  10.345  19.072  0.00  0.00    +0.000 C 
BRANCH  12  13
ATOM     13  C   UNL     1      -0.439  10.606  18.657  0.00  0.00    +0.000 A 
ATOM     14  C   UNL     1      -1.033   9.865  17.628  0.00  0.00    +0.000 A 
ATOM     15  C   UNL     1      -2.355  10.112  17.249  0.00  0.00    +0.000 A 
ATOM     16  C   UNL     1      -3.102  11.106  17.889  0.00  0.00    +0.000 A 
ATOM     17  C   UNL     1      -4.518  11.391  17.483  0.00  0.00    +0.000 C 
ATOM     18  C   UNL     1      -2.512  11.845  18.921  0.00  0.00    +0.000 A 
ATOM     19  C   UNL     1      -1.193  11.595  19.301  0.00  0.00    +0.000 A 
ENDBRANCH  12  13
ENDBRANCH  10  12
ENDBRANCH   9  10
ENDBRANCH   4   9
BRANCH   6  20
ATOM     20  C   UNL     1       4.121   4.754  17.211  0.00  0.00    +0.000 C 
BRANCH  20  21
ATOM     21  N   UNL     1       5.523   5.141  17.229  0.00  0.00    +0.000 N 
ATOM     22  C   UNL     1       6.384   5.041  18.291  0.00  0.00    +0.000 A 
ATOM     23  C   UNL     1       7.501   5.750  17.914  0.00  0.00    +0.000 A 
ATOM     24  N   UNL     1       7.343   6.272  16.656  0.00  0.00    +0.000 NA
ATOM     25  C   UNL     1       6.146   5.891  16.271  0.00  0.00    +0.000 A 
ENDBRANCH  20  21
ENDBRANCH   6  20
TORSDOF 7
ENDMDL
MODEL 9
REMARK VINA RESULT:      -7.1      3.388      7.963
REMARK  Name = 
REMARK  9 active torsions:
REMARK  status: ('A' for Active; 'I' for Inactive)
REMARK    1  A    between atoms: C_1  and  O_2
REMARK    2  A    between atoms: O_2  and  C_3
REMARK    3  A    between atoms: C_6  and  C_7
REMARK    4  A    between atoms: C_7  and  N_8
REMARK    5  A    between atoms: N_8  and  C_9
REMARK    6  A    between atoms: C_9  and  C_10
REMARK    7  A    between atoms: C_13  and  C_14
REMARK    8  A    between atoms: C_18  and  C_19
REMARK    9  A    between atoms: C_19  and  N_20
REMARK                            x       y       z     vdW  Elec       q    Type
REMARK                         _______ _______ _______ _____ _____    ______ ____
ROOT
ATOM      1  C   UNL     1       3.394   6.903  18.425  0.00  0.00    +0.000 A 
ATOM      2  C   UNL     1       4.273   7.365  17.438  0.00  0.00    +0.000 A 
ATOM      3  C   UNL     1       5.532   6.792  17.279  0.00  0.00    +0.000 A 
ATOM      4  C   UNL     1       5.938   5.744  18.106  0.00  0.00    +0.000 A 
ATOM      5  C   UNL     1       5.032   5.233  19.048  0.00  0.00    +0.000 A 
ATOM      6  C   UNL     1       3.742   5.782  19.197  0.00  0.00    +0.000 A 
ENDROOT
BRANCH   1   8
ATOM      7  C   UNL     1       1.853   8.576  17.795  0.00  0.00    +0.000 C 
ATOM      8  O   UNL     1       2.170   7.481  18.658  0.00  0.00    +0.000 OA
ENDBRANCH   1   8
BRANCH   4   9
ATOM      9  C   UNL     1       7.338   5.194  17.988  0.00  0.00    +0.000 C 
BRANCH   9  10
ATOM     10  N   UNL     1       7.476   4.316  16.834  0.00  0.00    +0.000 NA
ATOM     11  H   UNL     1       6.630   3.756  16.729  0.00  0.00    +0.000 HD
BRANCH  10  12
ATOM     12  C   UNL     1       7.669   5.106  15.618  0.00  0.00    +0.000 C 
BRANCH  12  13
ATOM     13  C   UNL     1       6.840   4.566  14.479  0.00  0.00    +0.000 A 
ATOM     14  C   UNL     1       7.392   4.411  13.202  0.00  0.00    +0.000 A 
ATOM     15  C   UNL     1       6.618   3.909  12.152  0.00  0.00    +0.000 A 
ATOM     16  C   UNL     1       5.281   3.560  12.361  0.00  0.00    +0.000 A 
ATOM     17  C   UNL     1       4.434   3.033  11.240  0.00  0.00    +0.000 C 
ATOM     18  C   UNL     1       4.728   3.709  13.639  0.00  0.00    +0.000 A 
ATOM     19  C   UNL     1       5.503   4.207  14.687  0.00  0.00    +0.000 A 
ENDBRANCH  12  13
ENDBRANCH  10  12
ENDBRANCH   9  10
ENDBRANCH   4   9
BRANCH   6  20
ATOM     20  C   UNL     1       2.763   5.114  20.131  0.00  0.00    +0.000 C 
BRANCH  20  21
ATOM     21  N   UNL     1       1.927   4.107  19.498  0.00  0.00    +0.000 N 
ATOM     22  C   UNL     1       1.049   3.262  20.128  0.00  0.00    +0.000 A 
ATOM     23  C   UNL     1       0.690   2.342  19.170  0.00  0.00    +0.000 A 
ATOM     24  N   UNL     1       1.320   2.606  17.982  0.00  0.00    +0.000 NA
ATOM     25  C   UNL     1       2.057   3.671  18.210  0.00  0.00    +0.000 A 
ENDBRANCH  20  21
ENDBRANCH   6  20
TORSDOF 7
ENDMDL
