MODEL 1
REMARK VINA RESULT:      -7.4      0.000      0.000
REMARK  Name = 
REMARK  11 active torsions:
REMARK  status: ('A' for Active; 'I' for Inactive)
REMARK    1  A    between atoms: C_1  and  C_2
REMARK    2  A    between atoms: C_2  and  C_3
REMARK    3  A    between atoms: C_3  and  N_4
REMARK    4  A    between atoms: N_4  and  C_5
REMARK    5  A    between atoms: N_4  and  S_8
REMARK    6  A    between atoms: C_5  and  C_6
REMARK    7  A    between atoms: C_6  and  C_7
REMARK    8  A    between atoms: S_8  and  C_11
REMARK    9  A    between atoms: C_14  and  C_15
REMARK   10  A    between atoms: N_17  and  C_18
REMARK   11  A    between atoms: C_23  and  N_24
REMARK                            x       y       z     vdW  Elec       q    Type
REMARK                         _______ _______ _______ _____ _____    ______ ____
ROOT
ATOM      1  C   UNL     1       3.867   5.431  18.400  0.00  0.00    +0.000 A 
ATOM      2  C   UNL     1       3.075   5.479  19.543  0.00  0.00    +0.000 A 
ATOM      3  C   UNL     1       2.298   6.605  19.793  0.00  0.00    +0.000 A 
ATOM      4  C   UNL     1       2.316   7.709  18.920  0.00  0.00    +0.000 A 
ATOM      5  C   UNL     1       3.142   7.662  17.787  0.00  0.00    +0.000 A 
ATOM      6  C   UNL     1       3.915   6.519  17.523  0.00  0.00    +0.000 A 
ENDROOT
BRANCH   4   7
ATOM      7  C   UNL     1       1.480   8.883  19.328  0.00  0.00    +0.000 C 
ATOM      8  O   UNL     1       1.030   8.864  20.470  0.00  0.00    +0.000 OA
ATOM      9  N   UNL     1       1.241   9.883  18.398  0.00  0.00    +0.000 N 
ATOM     10  H   UNL     1       1.399   9.689  17.425  0.00  0.00    +0.000 HD
BRANCH   9  11
ATOM     11  C   UNL     1       0.552  11.099  18.676  0.00  0.00    +0.000 A 
ATOM     12  C   UNL     1       1.219  12.228  19.176  0.00  0.00    +0.000 A 
ATOM     13  C   UNL     1       0.525  13.386  19.529  0.00  0.00    +0.000 A 
ATOM     14  C   UNL     1      -0.852  13.433  19.380  0.00  0.00    +0.000 A 
ATOM     15  C   UNL     1      -1.530  12.331  18.854  0.00  0.00    +0.000 A 
ATOM     16  C   UNL     1      -0.838  11.177  18.442  0.00  0.00    +0.000 A 
BRANCH  16  17
ATOM     17  N   UNL     1      -1.598  10.065  18.014  0.00  0.00    +0.000 N 
ATOM     18  H   UNL     1      -2.219  10.296  17.241  0.00  0.00    +0.000 HD
ATOM     19  H   UNL     1      -1.038   9.253  17.789  0.00  0.00    +0.000 HD
ENDBRANCH  16  17
ENDBRANCH   9  11
ENDBRANCH   4   7
BRANCH   1  20
ATOM     20  S   UNL     1       4.918   4.010  18.176  0.00  0.00    +0.000 S 
ATOM     21  O   UNL     1       4.077   3.013  17.555  0.00  0.00    +0.000 OA
ATOM     22  O   UNL     1       5.580   3.741  19.436  0.00  0.00    +0.000 OA
BRANCH  20  23
ATOM     23  N   UNL     1       6.116   4.614  17.049  0.00  0.00    +0.000 NA
BRANCH  23  24
ATOM     24  C   UNL     1       7.434   4.810  17.776  0.00  0.00    +0.000 C 
BRANCH  24  26
ATOM     25  C   UNL     1       7.521   7.357  17.502  0.00  0.00    +0.000 C 
ATOM     26  C   UNL     1       7.671   6.169  18.434  0.00  0.00    +0.000 C 
ENDBRANCH  24  26
ENDBRANCH  23  24
BRANCH  23  27
ATOM     27  C   UNL     1       6.259   3.818  15.784  0.00  0.00    +0.000 C 
BRANCH  27  28
ATOM     28  C   UNL     1       5.713   4.479  14.513  0.00  0.00    +0.000 C 
ATOM     29  C   UNL     1       6.105   3.795  13.213  0.00  0.00    +0.000 C 
ENDBRANCH  27  28
ENDBRANCH  23  27
ENDBRANCH  20  23
ENDBRANCH   1  20
TORSDOF 9
ENDMDL
MODEL 2
REMARK VINA RESULT:      -7.2      0.741      1.331
REMARK  Name = 
REMARK  11 active torsions:
REMARK  status: ('A' for Active; 'I' for Inactive)
REMARK    1  A    between atoms: C_1  and  C_2
REMARK    2  A    between atoms: C_2  and  C_3
REMARK    3  A    between atoms: C_3  and  N_4
REMARK    4  A    between atoms: N_4  and  C_5
REMARK    5  A    between atoms: N_4  and  S_8
REMARK    6  A    between atoms: C_5  and  C_6
REMARK    7  A    between atoms: C_6  and  C_7
REMARK    8  A    between atoms: S_8  and  C_11
REMARK    9  A    between atoms: C_14  and  C_15
REMARK   10  A    between atoms: N_17  and  C_18
REMARK   11  A    between atoms: C_23  and  N_24
REMARK                            x       y       z     vdW  Elec       q    Type
REMARK                         _______ _______ _______ _____ _____    ______ ____
ROOT
ATOM      1  C   UNL     1       3.790   5.474  18.423  0.00  0.00    +0.000 A 
ATOM      2  C   UNL     1       3.080   5.491  19.620  0.00  0.00    +0.000 A 
ATOM      3  C   UNL     1       2.299   6.596  19.940  0.00  0.00    +0.000 A 
ATOM      4  C   UNL     1       2.232   7.711  19.083  0.00  0.00    +0.000 A 
ATOM      5  C   UNL     1       2.976   7.697  17.895  0.00  0.00    +0.000 A 
ATOM      6  C   UNL     1       3.753   6.574  17.561  0.00  0.00    +0.000 A 
ENDROOT
BRANCH   4   7
ATOM      7  C   UNL     1       1.402   8.861  19.566  0.00  0.00    +0.000 C 
ATOM      8  O   UNL     1       1.200   8.921  20.776  0.00  0.00    +0.000 OA
ATOM      9  N   UNL     1       0.894   9.751  18.632  0.00  0.00    +0.000 N 
ATOM     10  H   UNL     1       0.865   9.477  17.666  0.00  0.00    +0.000 HD
BRANCH   9  11
ATOM     11  C   UNL     1       0.178  10.941  18.954  0.00  0.00    +0.000 A 
ATOM     12  C   UNL     1      -1.118  10.900  19.491  0.00  0.00    +0.000 A 
ATOM     13  C   UNL     1      -1.847  12.066  19.722  0.00  0.00    +0.000 A 
ATOM     14  C   UNL     1      -1.284  13.298  19.423  0.00  0.00    +0.000 A 
ATOM     15  C   UNL     1       0.016  13.361  18.919  0.00  0.00    +0.000 A 
ATOM     16  C   UNL     1       0.784  12.196  18.732  0.00  0.00    +0.000 A 
BRANCH  16  17
ATOM     17  N   UNL     1       2.053  12.328  18.124  0.00  0.00    +0.000 N 
ATOM     18  H   UNL     1       2.101  11.852  17.226  0.00  0.00    +0.000 HD
ATOM     19  H   UNL     1       2.363  13.287  18.035  0.00  0.00    +0.000 HD
ENDBRANCH  16  17
ENDBRANCH   9  11
ENDBRANCH   4   7
BRANCH   1  20
ATOM     20  S   UNL     1       4.852   4.080  18.106  0.00  0.00    +0.000 S 
ATOM     21  O   UNL     1       3.965   3.017  17.694  0.00  0.00    +0.000 OA
ATOM     22  O   UNL     1       5.726   3.915  19.249  0.00  0.00    +0.000 OA
BRANCH  20  23
ATOM     23  N   UNL     1       5.817   4.653  16.761  0.00  0.00    +0.000 NA
BRANCH  23  24
ATOM     24  C   UNL     1       7.165   5.124  17.274  0.00  0.00    +0.000 C 
BRANCH  24  26
ATOM     25  C   UNL     1       8.088   7.161  18.525  0.00  0.00    +0.000 C 
ATOM     26  C   UNL     1       7.425   6.630  17.268  0.00  0.00    +0.000 C 
ENDBRANCH  24  26
ENDBRANCH  23  24
BRANCH  23  27
ATOM     27  C   UNL     1       5.933   3.697  15.608  0.00  0.00    +0.000 C 
BRANCH  27  28
ATOM     28  C   UNL     1       6.481   4.288  14.303  0.00  0.00    +0.000 C 
ATOM     29  C   UNL     1       5.957   3.637  13.033  0.00  0.00    +0.000 C 
ENDBRANCH  27  28
ENDBRANCH  23  27
ENDBRANCH  20  23
ENDBRANCH   1  20
TORSDOF 9
ENDMDL
MODEL 3
REMARK VINA RESULT:      -7.2      0.721      1.637
REMARK  Name = 
REMARK  11 active torsions:
REMARK  status: ('A' for Active; 'I' for Inactive)
REMARK    1  A    between atoms: C_1  and  C_2
REMARK    2  A    between atoms: C_2  and  C_3
REMARK    3  A    between atoms: C_3  and  N_4
REMARK    4  A    between atoms: N_4  and  C_5
REMARK    5  A    between atoms: N_4  and  S_8
REMARK    6  A    between atoms: C_5  and  C_6
REMARK    7  A    between atoms: C_6  and  C_7
REMARK    8  A    between atoms: S_8  and  C_11
REMARK    9  A    between atoms: C_14  and  C_15
REMARK   10  A    between atoms: N_17  and  C_18
REMARK   11  A    between atoms: C_23  and  N_24
REMARK                            x       y       z     vdW  Elec       q    Type
REMARK                         _______ _______ _______ _____ _____    ______ ____
ROOT
ATOM      1  C   UNL     1       3.675   5.371  18.693  0.00  0.00    +0.000 A 
ATOM      2  C   UNL     1       3.638   6.481  17.854  0.00  0.00    +0.000 A 
ATOM      3  C   UNL     1       2.900   7.599  18.229  0.00  0.00    +0.000 A 
ATOM      4  C   UNL     1       2.170   7.619  19.432  0.00  0.00    +0.000 A 
ATOM      5  C   UNL     1       2.189   6.483  20.254  0.00  0.00    +0.000 A 
ATOM      6  C   UNL     1       2.948   5.357  19.886  0.00  0.00    +0.000 A 
ENDROOT
BRANCH   4   7
ATOM      7  C   UNL     1       1.370   8.858  19.694  0.00  0.00    +0.000 C 
ATOM      8  O   UNL     1       1.123   9.111  20.870  0.00  0.00    +0.000 OA
ATOM      9  N   UNL     1       0.936   9.609  18.613  0.00  0.00    +0.000 N 
ATOM     10  H   UNL     1       0.933   9.190  17.700  0.00  0.00    +0.000 HD
BRANCH   9  11
ATOM     11  C   UNL     1       0.257  10.858  18.716  0.00  0.00    +0.000 A 
ATOM     12  C   UNL     1      -1.111  10.932  19.022  0.00  0.00    +0.000 A 
ATOM     13  C   UNL     1      -1.789  12.151  19.035  0.00  0.00    +0.000 A 
ATOM     14  C   UNL     1      -1.103  13.321  18.748  0.00  0.00    +0.000 A 
ATOM     15  C   UNL     1       0.265  13.272  18.473  0.00  0.00    +0.000 A 
ATOM     16  C   UNL     1       0.974  12.056  18.510  0.00  0.00    +0.000 A 
BRANCH  16  17
ATOM     17  N   UNL     1       2.333  12.068  18.123  0.00  0.00    +0.000 N 
ATOM     18  H   UNL     1       2.483  11.610  17.227  0.00  0.00    +0.000 HD
ATOM     19  H   UNL     1       2.747  12.992  18.123  0.00  0.00    +0.000 HD
ENDBRANCH  16  17
ENDBRANCH   9  11
ENDBRANCH   4   7
BRANCH   1  20
ATOM     20  S   UNL     1       4.552   3.929  18.124  0.00  0.00    +0.000 S 
ATOM     21  O   UNL     1       3.640   3.265  17.221  0.00  0.00    +0.000 OA
ATOM     22  O   UNL     1       5.080   3.240  19.283  0.00  0.00    +0.000 OA
BRANCH  20  23
ATOM     23  N   UNL     1       5.897   4.637  17.252  0.00  0.00    +0.000 NA
BRANCH  23  24
ATOM     24  C   UNL     1       7.080   4.789  18.190  0.00  0.00    +0.000 C 
BRANCH  24  26
ATOM     25  C   UNL     1       7.148   7.220  17.383  0.00  0.00    +0.000 C 
ATOM     26  C   UNL     1       7.624   6.201  18.402  0.00  0.00    +0.000 C 
ENDBRANCH  24  26
ENDBRANCH  23  24
BRANCH  23  27
ATOM     27  C   UNL     1       6.255   3.948  15.966  0.00  0.00    +0.000 C 
BRANCH  27  28
ATOM     28  C   UNL     1       5.640   4.546  14.694  0.00  0.00    +0.000 C 
ATOM     29  C   UNL     1       6.043   3.856  13.401  0.00  0.00    +0.000 C 
ENDBRANCH  27  28
ENDBRANCH  23  27
ENDBRANCH  20  23
ENDBRANCH   1  20
TORSDOF 9
ENDMDL
MODEL 4
REMARK VINA RESULT:      -7.2      2.198      2.274
REMARK  Name = 
REMARK  11 active torsions:
REMARK  status: ('A' for Active; 'I' for Inactive)
REMARK    1  A    between atoms: C_1  and  C_2
REMARK    2  A    between atoms: C_2  and  C_3
REMARK    3  A    between atoms: C_3  and  N_4
REMARK    4  A    between atoms: N_4  and  C_5
REMARK    5  A    between atoms: N_4  and  S_8
REMARK    6  A    between atoms: C_5  and  C_6
REMARK    7  A    between atoms: C_6  and  C_7
REMARK    8  A    between atoms: S_8  and  C_11
REMARK    9  A    between atoms: C_14  and  C_15
REMARK   10  A    between atoms: N_17  and  C_18
REMARK   11  A    between atoms: C_23  and  N_24
REMARK                            x       y       z     vdW  Elec       q    Type
REMARK                         _______ _______ _______ _____ _____    ______ ____
ROOT
ATOM      1  C   UNL     1       3.359   6.455  18.404  0.00  0.00    +0.000 A 
ATOM      2  C   UNL     1       2.736   6.453  19.649  0.00  0.00    +0.000 A 
ATOM      3  C   UNL     1       1.894   7.503  19.997  0.00  0.00    +0.000 A 
ATOM      4  C   UNL     1       1.677   8.583  19.120  0.00  0.00    +0.000 A 
ATOM      5  C   UNL     1       2.335   8.590  17.881  0.00  0.00    +0.000 A 
ATOM      6  C   UNL     1       3.174   7.522  17.519  0.00  0.00    +0.000 A 
ENDROOT
BRANCH   4   7
ATOM      7  C   UNL     1       0.795   9.679  19.633  0.00  0.00    +0.000 C 
ATOM      8  O   UNL     1      -0.012  10.150  18.837  0.00  0.00    +0.000 OA
ATOM      9  N   UNL     1       0.965  10.111  20.940  0.00  0.00    +0.000 N 
ATOM     10  H   UNL     1       1.816   9.881  21.421  0.00  0.00    +0.000 HD
BRANCH   9  11
ATOM     11  C   UNL     1       0.134  11.071  21.589  0.00  0.00    +0.000 A 
ATOM     12  C   UNL     1       0.177  12.433  21.253  0.00  0.00    +0.000 A 
ATOM     13  C   UNL     1      -0.574  13.378  21.951  0.00  0.00    +0.000 A 
ATOM     14  C   UNL     1      -1.387  12.972  22.998  0.00  0.00    +0.000 A 
ATOM     15  C   UNL     1      -1.468  11.617  23.326  0.00  0.00    +0.000 A 
ATOM     16  C   UNL     1      -0.759  10.645  22.596  0.00  0.00    +0.000 A 
BRANCH  16  17
ATOM     17  N   UNL     1      -0.809   9.307  23.048  0.00  0.00    +0.000 N 
ATOM     18  H   UNL     1      -0.105   9.113  23.756  0.00  0.00    +0.000 HD
ATOM     19  H   UNL     1      -1.725   9.021  23.370  0.00  0.00    +0.000 HD
ENDBRANCH  16  17
ENDBRANCH   9  11
ENDBRANCH   4   7
BRANCH   1  20
ATOM     20  S   UNL     1       4.504   5.139  18.045  0.00  0.00    +0.000 S 
ATOM     21  O   UNL     1       3.762   4.206  17.228  0.00  0.00    +0.000 OA
ATOM     22  O   UNL     1       5.104   4.715  19.293  0.00  0.00    +0.000 OA
BRANCH  20  23
ATOM     23  N   UNL     1       5.729   5.965  17.104  0.00  0.00    +0.000 NA
BRANCH  23  24
ATOM     24  C   UNL     1       7.099   5.647  17.674  0.00  0.00    +0.000 C 
BRANCH  24  26
ATOM     25  C   UNL     1       7.734   8.127  17.582  0.00  0.00    +0.000 C 
ATOM     26  C   UNL     1       7.876   6.801  18.305  0.00  0.00    +0.000 C 
ENDBRANCH  24  26
ENDBRANCH  23  24
BRANCH  23  27
ATOM     27  C   UNL     1       5.648   5.746  15.620  0.00  0.00    +0.000 C 
BRANCH  27  28
ATOM     28  C   UNL     1       6.717   4.823  15.022  0.00  0.00    +0.000 C 
ATOM     29  C   UNL     1       6.227   3.909  13.911  0.00  0.00    +0.000 C 
ENDBRANCH  27  28
ENDBRANCH  23  27
ENDBRANCH  20  23
ENDBRANCH   1  20
TORSDOF 9
ENDMDL
MODEL 5
REMARK VINA RESULT:      -7.1      2.089      2.327
REMARK  Name = 
REMARK  11 active torsions:
REMARK  status: ('A' for Active; 'I' for Inactive)
REMARK    1  A    between atoms: C_1  and  C_2
REMARK    2  A    between atoms: C_2  and  C_3
REMARK    3  A    between atoms: C_3  and  N_4
REMARK    4  A    between atoms: N_4  and  C_5
REMARK    5  A    between atoms: N_4  and  S_8
REMARK    6  A    between atoms: C_5  and  C_6
REMARK    7  A    between atoms: C_6  and  C_7
REMARK    8  A    between atoms: S_8  and  C_11
REMARK    9  A    between atoms: C_14  and  C_15
REMARK   10  A    between atoms: N_17  and  C_18
REMARK   11  A    between atoms: C_23  and  N_24
REMARK                            x       y       z     vdW  Elec       q    Type
REMARK                         _______ _______ _______ _____ _____    ______ ____
ROOT
ATOM      1  C   UNL     1       3.258   5.831  18.713  0.00  0.00    +0.000 A 
ATOM      2  C   UNL     1       3.144   6.934  17.872  0.00  0.00    +0.000 A 
ATOM      3  C   UNL     1       2.423   8.046  18.292  0.00  0.00    +0.000 A 
ATOM      4  C   UNL     1       1.785   8.067  19.546  0.00  0.00    +0.000 A 
ATOM      5  C   UNL     1       1.880   6.938  20.373  0.00  0.00    +0.000 A 
ATOM      6  C   UNL     1       2.622   5.819  19.958  0.00  0.00    +0.000 A 
ENDROOT
BRANCH   4   7
ATOM      7  C   UNL     1       0.992   9.299  19.859  0.00  0.00    +0.000 C 
ATOM      8  O   UNL     1       0.361   9.795  18.929  0.00  0.00    +0.000 OA
ATOM      9  N   UNL     1       1.046   9.814  21.145  0.00  0.00    +0.000 N 
ATOM     10  H   UNL     1       1.791   9.525  21.753  0.00  0.00    +0.000 HD
BRANCH   9  11
ATOM     11  C   UNL     1       0.268  10.915  21.609  0.00  0.00    +0.000 A 
ATOM     12  C   UNL     1       0.439  12.209  21.093  0.00  0.00    +0.000 A 
ATOM     13  C   UNL     1      -0.262  13.297  21.612  0.00  0.00    +0.000 A 
ATOM     14  C   UNL     1      -1.154  13.105  22.655  0.00  0.00    +0.000 A 
ATOM     15  C   UNL     1      -1.362  11.820  23.160  0.00  0.00    +0.000 A 
ATOM     16  C   UNL     1      -0.704  10.704  22.611  0.00  0.00    +0.000 A 
BRANCH  16  17
ATOM     17  N   UNL     1      -0.885   9.450  23.237  0.00  0.00    +0.000 N 
ATOM     18  H   UNL     1      -0.261   9.322  24.031  0.00  0.00    +0.000 HD
ATOM     19  H   UNL     1      -1.843   9.266  23.505  0.00  0.00    +0.000 HD
ENDBRANCH  16  17
ENDBRANCH   9  11
ENDBRANCH   4   7
BRANCH   1  20
ATOM     20  S   UNL     1       4.107   4.394  18.090  0.00  0.00    +0.000 S 
ATOM     21  O   UNL     1       3.126   3.692  17.295  0.00  0.00    +0.000 OA
ATOM     22  O   UNL     1       4.761   3.742  19.206  0.00  0.00    +0.000 OA
BRANCH  20  23
ATOM     23  N   UNL     1       5.344   5.110  17.077  0.00  0.00    +0.000 NA
BRANCH  23  24
ATOM     24  C   UNL     1       6.713   4.753  17.627  0.00  0.00    +0.000 C 
BRANCH  24  26
ATOM     25  C   UNL     1       7.241   7.254  17.459  0.00  0.00    +0.000 C 
ATOM     26  C   UNL     1       7.616   5.910  18.054  0.00  0.00    +0.000 C 
ENDBRANCH  24  26
ENDBRANCH  23  24
BRANCH  23  27
ATOM     27  C   UNL     1       5.211   4.820  15.609  0.00  0.00    +0.000 C 
BRANCH  27  28
ATOM     28  C   UNL     1       6.392   4.084  14.964  0.00  0.00    +0.000 C 
ATOM     29  C   UNL     1       6.241   3.810  13.476  0.00  0.00    +0.000 C 
ENDBRANCH  27  28
ENDBRANCH  23  27
ENDBRANCH  20  23
ENDBRANCH   1  20
TORSDOF 9
ENDMDL
MODEL 6
REMARK VINA RESULT:      -7.1      0.546      1.156
REMARK  Name = 
REMARK  11 active torsions:
REMARK  status: ('A' for Active; 'I' for Inactive)
REMARK    1  A    between atoms: C_1  and  C_2
REMARK    2  A    between atoms: C_2  and  C_3
REMARK    3  A    between atoms: C_3  and  N_4
REMARK    4  A    between atoms: N_4  and  C_5
REMARK    5  A    between atoms: N_4  and  S_8
REMARK    6  A    between atoms: C_5  and  C_6
REMARK    7  A    between atoms: C_6  and  C_7
REMARK    8  A    between atoms: S_8  and  C_11
REMARK    9  A    between atoms: C_14  and  C_15
REMARK   10  A    between atoms: N_17  and  C_18
REMARK   11  A    between atoms: C_23  and  N_24
REMARK                            x       y       z     vdW  Elec       q    Type
REMARK                         _______ _______ _______ _____ _____    ______ ____
ROOT
ATOM      1  C   UNL     1       3.654   5.442  18.605  0.00  0.00    +0.000 A 
ATOM      2  C   UNL     1       3.646   6.535  17.743  0.00  0.00    +0.000 A 
ATOM      3  C   UNL     1       2.922   7.672  18.083  0.00  0.00    +0.000 A 
ATOM      4  C   UNL     1       2.177   7.731  19.276  0.00  0.00    +0.000 A 
ATOM      5  C   UNL     1       2.166   6.612  20.122  0.00  0.00    +0.000 A 
ATOM      6  C   UNL     1       2.910   5.467  19.789  0.00  0.00    +0.000 A 
ENDROOT
BRANCH   4   7
ATOM      7  C   UNL     1       1.395   8.988  19.501  0.00  0.00    +0.000 C 
ATOM      8  O   UNL     1       0.776   9.066  20.559  0.00  0.00    +0.000 OA
ATOM      9  N   UNL     1       1.389   9.954  18.506  0.00  0.00    +0.000 N 
ATOM     10  H   UNL     1       1.676   9.697  17.579  0.00  0.00    +0.000 HD
BRANCH   9  11
ATOM     11  C   UNL     1       0.774  11.234  18.625  0.00  0.00    +0.000 A 
ATOM     12  C   UNL     1       1.530  12.401  18.823  0.00  0.00    +0.000 A 
ATOM     13  C   UNL     1       0.918  13.637  19.025  0.00  0.00    +0.000 A 
ATOM     14  C   UNL     1      -0.466  13.727  19.027  0.00  0.00    +0.000 A 
ATOM     15  C   UNL     1      -1.234  12.584  18.799  0.00  0.00    +0.000 A 
ATOM     16  C   UNL     1      -0.631  11.339  18.538  0.00  0.00    +0.000 A 
BRANCH  16  17
ATOM     17  N   UNL     1      -1.469  10.208  18.418  0.00  0.00    +0.000 N 
ATOM     18  H   UNL     1      -0.974   9.339  18.608  0.00  0.00    +0.000 HD
ATOM     19  H   UNL     1      -2.312  10.266  18.974  0.00  0.00    +0.000 HD
ENDBRANCH  16  17
ENDBRANCH   9  11
ENDBRANCH   4   7
BRANCH   1  20
ATOM     20  S   UNL     1       4.513   3.974  18.079  0.00  0.00    +0.000 S 
ATOM     21  O   UNL     1       3.488   3.110  17.539  0.00  0.00    +0.000 OA
ATOM     22  O   UNL     1       5.355   3.533  19.172  0.00  0.00    +0.000 OA
BRANCH  20  23
ATOM     23  N   UNL     1       5.550   4.591  16.808  0.00  0.00    +0.000 NA
BRANCH  23  24
ATOM     24  C   UNL     1       6.978   4.663  17.316  0.00  0.00    +0.000 C 
BRANCH  24  26
ATOM     25  C   UNL     1       7.901   5.922  19.347  0.00  0.00    +0.000 C 
ATOM     26  C   UNL     1       7.443   5.995  17.902  0.00  0.00    +0.000 C 
ENDBRANCH  24  26
ENDBRANCH  23  24
BRANCH  23  27
ATOM     27  C   UNL     1       5.433   3.881  15.490  0.00  0.00    +0.000 C 
BRANCH  27  28
ATOM     28  C   UNL     1       6.412   4.333  14.399  0.00  0.00    +0.000 C 
ATOM     29  C   UNL     1       6.201   3.686  13.039  0.00  0.00    +0.000 C 
ENDBRANCH  27  28
ENDBRANCH  23  27
ENDBRANCH  20  23
ENDBRANCH   1  20
TORSDOF 9
ENDMDL
MODEL 7
REMARK VINA RESULT:      -7.0      1.995      2.419
REMARK  Name = 
REMARK  11 active torsions:
REMARK  status: ('A' for Active; 'I' for Inactive)
REMARK    1  A    between atoms: C_1  and  C_2
REMARK    2  A    between atoms: C_2  and  C_3
REMARK    3  A    between atoms: C_3  and  N_4
REMARK    4  A    between atoms: N_4  and  C_5
REMARK    5  A    between atoms: N_4  and  S_8
REMARK    6  A    between atoms: C_5  and  C_6
REMARK    7  A    between atoms: C_6  and  C_7
REMARK    8  A    between atoms: S_8  and  C_11
REMARK    9  A    between atoms: C_14  and  C_15
REMARK   10  A    between atoms: N_17  and  C_18
REMARK   11  A    between atoms: C_23  and  N_24
REMARK                            x       y       z     vdW  Elec       q    Type
REMARK                         _______ _______ _______ _____ _____    ______ ____
ROOT
ATOM      1  C   UNL     1       3.509   6.108  18.488  0.00  0.00    +0.000 A 
ATOM      2  C   UNL     1       3.303   7.257  17.731  0.00  0.00    +0.000 A 
ATOM      3  C   UNL     1       2.498   8.274  18.232  0.00  0.00    +0.000 A 
ATOM      4  C   UNL     1       1.867   8.151  19.484  0.00  0.00    +0.000 A 
ATOM      5  C   UNL     1       2.056   6.975  20.225  0.00  0.00    +0.000 A 
ATOM      6  C   UNL     1       2.883   5.952  19.728  0.00  0.00    +0.000 A 
ENDROOT
BRANCH   4   7
ATOM      7  C   UNL     1       0.980   9.289  19.887  0.00  0.00    +0.000 C 
ATOM      8  O   UNL     1       0.249   9.749  19.015  0.00  0.00    +0.000 OA
ATOM      9  N   UNL     1       1.062   9.767  21.187  0.00  0.00    +0.000 N 
ATOM     10  H   UNL     1       1.867   9.533  21.740  0.00  0.00    +0.000 HD
BRANCH   9  11
ATOM     11  C   UNL     1       0.212  10.771  21.734  0.00  0.00    +0.000 A 
ATOM     12  C   UNL     1      -0.783  10.464  22.676  0.00  0.00    +0.000 A 
ATOM     13  C   UNL     1      -1.667  11.436  23.142  0.00  0.00    +0.000 A 
ATOM     14  C   UNL     1      -1.566  12.738  22.675  0.00  0.00    +0.000 A 
ATOM     15  C   UNL     1      -0.563  13.070  21.763  0.00  0.00    +0.000 A 
ATOM     16  C   UNL     1       0.372  12.113  21.325  0.00  0.00    +0.000 A 
BRANCH  16  17
ATOM     17  N   UNL     1       1.295  12.495  20.326  0.00  0.00    +0.000 N 
ATOM     18  H   UNL     1       2.053  11.823  20.224  0.00  0.00    +0.000 HD
ATOM     19  H   UNL     1       0.867  12.687  19.430  0.00  0.00    +0.000 HD
ENDBRANCH  16  17
ENDBRANCH   9  11
ENDBRANCH   4   7
BRANCH   1  20
ATOM     20  S   UNL     1       4.468   4.794  17.761  0.00  0.00    +0.000 S 
ATOM     21  O   UNL     1       3.548   4.092  16.895  0.00  0.00    +0.000 OA
ATOM     22  O   UNL     1       5.156   4.099  18.829  0.00  0.00    +0.000 OA
BRANCH  20  23
ATOM     23  N   UNL     1       5.659   5.680  16.831  0.00  0.00    +0.000 NA
BRANCH  23  24
ATOM     24  C   UNL     1       7.042   5.394  17.384  0.00  0.00    +0.000 C 
BRANCH  24  26
ATOM     25  C   UNL     1       7.660   7.873  17.582  0.00  0.00    +0.000 C 
ATOM     26  C   UNL     1       7.702   6.494  18.215  0.00  0.00    +0.000 C 
ENDBRANCH  24  26
ENDBRANCH  23  24
BRANCH  23  27
ATOM     27  C   UNL     1       5.574   5.491  15.343  0.00  0.00    +0.000 C 
BRANCH  27  28
ATOM     28  C   UNL     1       6.628   4.564  14.726  0.00  0.00    +0.000 C 
ATOM     29  C   UNL     1       6.161   3.779  13.511  0.00  0.00    +0.000 C 
ENDBRANCH  27  28
ENDBRANCH  23  27
ENDBRANCH  20  23
ENDBRANCH   1  20
TORSDOF 9
ENDMDL
MODEL 8
REMARK VINA RESULT:      -6.9      2.110      2.482
REMARK  Name = 
REMARK  11 active torsions:
REMARK  status: ('A' for Active; 'I' for Inactive)
REMARK    1  A    between atoms: C_1  and  C_2
REMARK    2  A    between atoms: C_2  and  C_3
REMARK    3  A    between atoms: C_3  and  N_4
REMARK    4  A    between atoms: N_4  and  C_5
REMARK    5  A    between atoms: N_4  and  S_8
REMARK    6  A    between atoms: C_5  and  C_6
REMARK    7  A    between atoms: C_6  and  C_7
REMARK    8  A    between atoms: S_8  and  C_11
REMARK    9  A    between atoms: C_14  and  C_15
REMARK   10  A    between atoms: N_17  and  C_18
REMARK   11  A    between atoms: C_23  and  N_24
REMARK                            x       y       z     vdW  Elec       q    Type
REMARK                         _______ _______ _______ _____ _____    ______ ____
ROOT
ATOM      1  C   UNL     1       2.455   5.382  18.953  0.00  0.00    +0.000 A 
ATOM      2  C   UNL     1       1.902   5.255  20.224  0.00  0.00    +0.000 A 
ATOM      3  C   UNL     1       1.506   6.392  20.917  0.00  0.00    +0.000 A 
ATOM      4  C   UNL     1       1.675   7.676  20.365  0.00  0.00    +0.000 A 
ATOM      5  C   UNL     1       2.261   7.795  19.097  0.00  0.00    +0.000 A 
ATOM      6  C   UNL     1       2.648   6.646  18.386  0.00  0.00    +0.000 A 
ENDROOT
BRANCH   4   7
ATOM      7  C   UNL     1       1.261   8.824  21.234  0.00  0.00    +0.000 C 
ATOM      8  O   UNL     1       1.753   8.865  22.358  0.00  0.00    +0.000 OA
ATOM      9  N   UNL     1       0.340   9.734  20.737  0.00  0.00    +0.000 N 
ATOM     10  H   UNL     1      -0.216   9.477  19.941  0.00  0.00    +0.000 HD
BRANCH   9  11
ATOM     11  C   UNL     1      -0.066  10.923  21.410  0.00  0.00    +0.000 A 
ATOM     12  C   UNL     1      -0.982  10.895  22.473  0.00  0.00    +0.000 A 
ATOM     13  C   UNL     1      -1.441  12.069  23.069  0.00  0.00    +0.000 A 
ATOM     14  C   UNL     1      -0.984  13.295  22.611  0.00  0.00    +0.000 A 
ATOM     15  C   UNL     1      -0.048  13.343  21.576  0.00  0.00    +0.000 A 
ATOM     16  C   UNL     1       0.466  12.166  21.002  0.00  0.00    +0.000 A 
BRANCH  16  17
ATOM     17  N   UNL     1       1.332  12.292  19.892  0.00  0.00    +0.000 N 
ATOM     18  H   UNL     1       2.279  12.543  20.169  0.00  0.00    +0.000 HD
ATOM     19  H   UNL     1       1.342  11.478  19.291  0.00  0.00    +0.000 HD
ENDBRANCH  16  17
ENDBRANCH   9  11
ENDBRANCH   4   7
BRANCH   1  20
ATOM     20  S   UNL     1       3.037   3.904  18.147  0.00  0.00    +0.000 S 
ATOM     21  O   UNL     1       2.140   3.704  17.032  0.00  0.00    +0.000 OA
ATOM     22  O   UNL     1       3.203   2.880  19.157  0.00  0.00    +0.000 OA
BRANCH  20  23
ATOM     23  N   UNL     1       4.628   4.389  17.596  0.00  0.00    +0.000 NA
BRANCH  23  24
ATOM     24  C   UNL     1       5.624   4.222  18.729  0.00  0.00    +0.000 C 
BRANCH  24  26
ATOM     25  C   UNL     1       7.582   5.856  18.485  0.00  0.00    +0.000 C 
ATOM     26  C   UNL     1       6.318   5.485  19.238  0.00  0.00    +0.000 C 
ENDBRANCH  24  26
ENDBRANCH  23  24
BRANCH  23  27
ATOM     27  C   UNL     1       5.083   3.745  16.318  0.00  0.00    +0.000 C 
BRANCH  27  28
ATOM     28  C   UNL     1       5.412   4.703  15.167  0.00  0.00    +0.000 C 
ATOM     29  C   UNL     1       5.332   6.180  15.519  0.00  0.00    +0.000 C 
ENDBRANCH  27  28
ENDBRANCH  23  27
ENDBRANCH  20  23
ENDBRANCH   1  20
TORSDOF 9
ENDMDL
MODEL 9
REMARK VINA RESULT:      -6.9      1.240      1.989
REMARK  Name = 
REMARK  11 active torsions:
REMARK  status: ('A' for Active; 'I' for Inactive)
REMARK    1  A    between atoms: C_1  and  C_2
REMARK    2  A    between atoms: C_2  and  C_3
REMARK    3  A    between atoms: C_3  and  N_4
REMARK    4  A    between atoms: N_4  and  C_5
REMARK    5  A    between atoms: N_4  and  S_8
REMARK    6  A    between atoms: C_5  and  C_6
REMARK    7  A    between atoms: C_6  and  C_7
REMARK    8  A    between atoms: S_8  and  C_11
REMARK    9  A    between atoms: C_14  and  C_15
REMARK   10  A    between atoms: N_17  and  C_18
REMARK   11  A    between atoms: C_23  and  N_24
REMARK                            x       y       z     vdW  Elec       q    Type
REMARK                         _______ _______ _______ _____ _____    ______ ____
ROOT
ATOM      1  C   UNL     1       3.974   5.871  18.504  0.00  0.00    +0.000 A 
ATOM      2  C   UNL     1       3.965   6.831  17.496  0.00  0.00    +0.000 A 
ATOM      3  C   UNL     1       3.111   7.923  17.596  0.00  0.00    +0.000 A 
ATOM      4  C   UNL     1       2.235   8.064  18.688  0.00  0.00    +0.000 A 
ATOM      5  C   UNL     1       2.229   7.074  19.682  0.00  0.00    +0.000 A 
ATOM      6  C   UNL     1       3.104   5.977  19.593  0.00  0.00    +0.000 A 
ENDROOT
BRANCH   4   7
ATOM      7  C   UNL     1       1.325   9.252  18.652  0.00  0.00    +0.000 C 
ATOM      8  O   UNL     1       0.829   9.530  17.563  0.00  0.00    +0.000 OA
ATOM      9  N   UNL     1       1.128   9.974  19.820  0.00  0.00    +0.000 N 
ATOM     10  H   UNL     1       1.777   9.858  20.577  0.00  0.00    +0.000 HD
BRANCH   9  11
ATOM     11  C   UNL     1       0.215  11.061  19.955  0.00  0.00    +0.000 A 
ATOM     12  C   UNL     1      -1.170  10.885  19.810  0.00  0.00    +0.000 A 
ATOM     13  C   UNL     1      -2.049  11.966  19.858  0.00  0.00    +0.000 A 
ATOM     14  C   UNL     1      -1.553  13.246  20.057  0.00  0.00    +0.000 A 
ATOM     15  C   UNL     1      -0.182  13.437  20.236  0.00  0.00    +0.000 A 
ATOM     16  C   UNL     1       0.712  12.350  20.247  0.00  0.00    +0.000 A 
BRANCH  16  17
ATOM     17  N   UNL     1       2.095  12.628  20.331  0.00  0.00    +0.000 N 
ATOM     18  H   UNL     1       2.317  13.243  21.111  0.00  0.00    +0.000 HD
ATOM     19  H   UNL     1       2.675  11.799  20.354  0.00  0.00    +0.000 HD
ENDBRANCH  16  17
ENDBRANCH   9  11
ENDBRANCH   4   7
BRANCH   1  20
ATOM     20  S   UNL     1       5.013   4.442  18.282  0.00  0.00    +0.000 S 
ATOM     21  O   UNL     1       4.318   3.616  17.322  0.00  0.00    +0.000 OA
ATOM     22  O   UNL     1       5.353   3.928  19.593  0.00  0.00    +0.000 OA
BRANCH  20  23
ATOM     23  N   UNL     1       6.458   5.143  17.582  0.00  0.00    +0.000 NA
BRANCH  23  24
ATOM     24  C   UNL     1       7.403   5.561  18.693  0.00  0.00    +0.000 C 
BRANCH  24  26
ATOM     25  C   UNL     1       7.489   7.823  17.493  0.00  0.00    +0.000 C 
ATOM     26  C   UNL     1       8.095   6.915  18.548  0.00  0.00    +0.000 C 
ENDBRANCH  24  26
ENDBRANCH  23  24
BRANCH  23  27
ATOM     27  C   UNL     1       7.126   4.306  16.529  0.00  0.00    +0.000 C 
BRANCH  27  28
ATOM     28  C   UNL     1       7.023   4.833  15.092  0.00  0.00    +0.000 C 
ATOM     29  C   UNL     1       5.683   4.593  14.416  0.00  0.00    +0.000 C 
ENDBRANCH  27  28
ENDBRANCH  23  27
ENDBRANCH  20  23
ENDBRANCH   1  20
TORSDOF 9
ENDMDL
