MODEL 1
REMARK VINA RESULT:      -7.7      0.000      0.000
REMARK  Name = 
REMARK  3 active torsions:
REMARK  status: ('A' for Active; 'I' for Inactive)
REMARK    1  A    between atoms: C_1  and  S_2
REMARK    2  A    between atoms: S_2  and  N_5
REMARK    3  A    between atoms: C_13  and  C_15
REMARK                            x       y       z     vdW  Elec       q    Type
REMARK                         _______ _______ _______ _____ _____    ______ ____
ROOT
ATOM      1  N   UNL     1       4.481   3.501  18.638  0.00  0.00    +0.000 NA
ATOM      2  C   UNL     1       3.851   2.864  17.477  0.00  0.00    +0.000 C 
ATOM      3  C   UNL     1       2.330   3.122  17.339  0.00  0.00    +0.000 C 
ATOM      4  C   UNL     1       1.593   2.038  18.147  0.00  0.00    +0.000 C 
ATOM      5  C   UNL     1       1.305   2.525  19.555  0.00  0.00    +0.000 C 
ATOM      6  C   UNL     1       2.276   3.639  19.990  0.00  0.00    +0.000 C 
ATOM      7  C   UNL     1       3.782   3.236  19.952  0.00  0.00    +0.000 C 
ATOM      8  N   UNL     1       2.050   4.845  19.186  0.00  0.00    +0.000 N 
ATOM      9  C   UNL     1       2.385   6.067  19.836  0.00  0.00    +0.000 C 
ATOM     10  O   UNL     1       2.819   5.997  20.996  0.00  0.00    +0.000 OA
ATOM     11  C   UNL     1       1.825   4.560  17.746  0.00  0.00    +0.000 C 
ENDROOT
BRANCH   9  12
ATOM     12  C   UNL     1       2.196   7.385  19.257  0.00  0.00    +0.000 A 
ATOM     13  O   UNL     1       2.640   7.650  17.995  0.00  0.00    +0.000 OA
ATOM     14  N   UNL     1       2.144   8.877  17.562  0.00  0.00    +0.000 NA
ATOM     15  C   UNL     1       1.423   9.342  18.585  0.00  0.00    +0.000 A 
ATOM     16  C   UNL     1       1.465   8.487  19.704  0.00  0.00    +0.000 A 
ATOM     17  C   UNL     1       0.782   8.814  20.992  0.00  0.00    +0.000 C 
ATOM     18  C   UNL     1      -0.180  10.031  20.871  0.00  0.00    +0.000 C 
ATOM     19  C   UNL     1       0.332  11.134  19.927  0.00  0.00    +0.000 C 
ATOM     20  C   UNL     1       0.603  10.584  18.519  0.00  0.00    +0.000 C 
ENDBRANCH   9  12
BRANCH   1  22
ATOM     21  C   UNL     1       6.871   4.583  17.831  0.00  0.00    +0.000 C 
ATOM     22  S   UNL     1       5.245   5.008  18.410  0.00  0.00    +0.000 S 
ATOM     23  O   UNL     1       5.410   5.646  19.692  0.00  0.00    +0.000 OA
ATOM     24  O   UNL     1       4.625   5.695  17.296  0.00  0.00    +0.000 OA
ENDBRANCH   1  22
TORSDOF 2
ENDMDL
MODEL 2
REMARK VINA RESULT:      -7.0      3.465      6.471
REMARK  Name = 
REMARK  3 active torsions:
REMARK  status: ('A' for Active; 'I' for Inactive)
REMARK    1  A    between atoms: C_1  and  S_2
REMARK    2  A    between atoms: S_2  and  N_5
REMARK    3  A    between atoms: C_13  and  C_15
REMARK                            x       y       z     vdW  Elec       q    Type
REMARK                         _______ _______ _______ _____ _____    ______ ____
ROOT
ATOM      1  N   UNL     1       5.318   5.050  19.329  0.00  0.00    +0.000 NA
ATOM      2  C   UNL     1       4.980   3.641  19.559  0.00  0.00    +0.000 C 
ATOM      3  C   UNL     1       4.191   2.966  18.411  0.00  0.00    +0.000 C 
ATOM      4  C   UNL     1       2.691   3.213  18.659  0.00  0.00    +0.000 C 
ATOM      5  C   UNL     1       2.227   4.456  17.924  0.00  0.00    +0.000 C 
ATOM      6  C   UNL     1       3.388   5.428  17.643  0.00  0.00    +0.000 C 
ATOM      7  C   UNL     1       4.148   5.914  18.914  0.00  0.00    +0.000 C 
ATOM      8  N   UNL     1       4.325   4.828  16.686  0.00  0.00    +0.000 N 
ATOM      9  C   UNL     1       5.045   5.763  15.889  0.00  0.00    +0.000 C 
ATOM     10  O   UNL     1       4.811   6.968  16.070  0.00  0.00    +0.000 OA
ATOM     11  C   UNL     1       4.591   3.390  16.944  0.00  0.00    +0.000 C 
ENDROOT
BRANCH   9  12
ATOM     12  C   UNL     1       5.984   5.401  14.843  0.00  0.00    +0.000 A 
ATOM     13  O   UNL     1       7.299   5.747  14.951  0.00  0.00    +0.000 OA
ATOM     14  N   UNL     1       8.047   5.097  13.972  0.00  0.00    +0.000 NA
ATOM     15  C   UNL     1       7.160   4.384  13.273  0.00  0.00    +0.000 A 
ATOM     16  C   UNL     1       5.839   4.577  13.725  0.00  0.00    +0.000 A 
ATOM     17  C   UNL     1       4.662   3.931  13.069  0.00  0.00    +0.000 C 
ATOM     18  C   UNL     1       5.072   2.836  12.042  0.00  0.00    +0.000 C 
ATOM     19  C   UNL     1       6.349   3.174  11.253  0.00  0.00    +0.000 C 
ATOM     20  C   UNL     1       7.536   3.430  12.193  0.00  0.00    +0.000 C 
ENDBRANCH   9  12
BRANCH   1  22
ATOM     21  C   UNL     1       7.902   5.492  20.141  0.00  0.00    +0.000 C 
ATOM     22  S   UNL     1       6.862   5.412  18.702  0.00  0.00    +0.000 S 
ATOM     23  O   UNL     1       6.834   6.735  18.131  0.00  0.00    +0.000 OA
ATOM     24  O   UNL     1       7.353   4.274  17.954  0.00  0.00    +0.000 OA
ENDBRANCH   1  22
TORSDOF 2
ENDMDL
MODEL 3
REMARK VINA RESULT:      -6.5      3.374      5.214
REMARK  Name = 
REMARK  3 active torsions:
REMARK  status: ('A' for Active; 'I' for Inactive)
REMARK    1  A    between atoms: C_1  and  S_2
REMARK    2  A    between atoms: S_2  and  N_5
REMARK    3  A    between atoms: C_13  and  C_15
REMARK                            x       y       z     vdW  Elec       q    Type
REMARK                         _______ _______ _______ _____ _____    ______ ____
ROOT
ATOM      1  N   UNL     1       6.992   5.338  16.038  0.00  0.00    +0.000 NA
ATOM      2  C   UNL     1       7.844   4.436  16.822  0.00  0.00    +0.000 C 
ATOM      3  C   UNL     1       7.535   4.404  18.338  0.00  0.00    +0.000 C 
ATOM      4  C   UNL     1       8.353   5.521  19.011  0.00  0.00    +0.000 C 
ATOM      5  C   UNL     1       7.533   6.794  19.115  0.00  0.00    +0.000 C 
ATOM      6  C   UNL     1       6.409   6.844  18.063  0.00  0.00    +0.000 C 
ATOM      7  C   UNL     1       6.900   6.744  16.587  0.00  0.00    +0.000 C 
ATOM      8  N   UNL     1       5.414   5.804  18.342  0.00  0.00    +0.000 N 
ATOM      9  C   UNL     1       4.095   6.102  17.893  0.00  0.00    +0.000 C 
ATOM     10  O   UNL     1       3.918   7.193  17.327  0.00  0.00    +0.000 OA
ATOM     11  C   UNL     1       6.013   4.506  18.744  0.00  0.00    +0.000 C 
ENDROOT
BRANCH   9  12
ATOM     12  C   UNL     1       2.941   5.249  18.104  0.00  0.00    +0.000 A 
ATOM     13  O   UNL     1       2.174   4.857  17.046  0.00  0.00    +0.000 OA
ATOM     14  N   UNL     1       1.283   3.863  17.443  0.00  0.00    +0.000 NA
ATOM     15  C   UNL     1       1.515   3.688  18.746  0.00  0.00    +0.000 A 
ATOM     16  C   UNL     1       2.498   4.569  19.240  0.00  0.00    +0.000 A 
ATOM     17  C   UNL     1       2.896   4.605  20.680  0.00  0.00    +0.000 C 
ATOM     18  C   UNL     1       2.323   3.407  21.492  0.00  0.00    +0.000 C 
ATOM     19  C   UNL     1       0.909   2.984  21.056  0.00  0.00    +0.000 C 
ATOM     20  C   UNL     1       0.867   2.625  19.564  0.00  0.00    +0.000 C 
ENDBRANCH   9  12
BRANCH   1  22
ATOM     21  C   UNL     1       6.297   3.927  13.789  0.00  0.00    +0.000 C 
ATOM     22  S   UNL     1       5.629   4.676  15.256  0.00  0.00    +0.000 S 
ATOM     23  O   UNL     1       4.771   5.751  14.826  0.00  0.00    +0.000 OA
ATOM     24  O   UNL     1       5.122   3.567  16.038  0.00  0.00    +0.000 OA
ENDBRANCH   1  22
TORSDOF 2
ENDMDL
MODEL 4
REMARK VINA RESULT:      -6.4      1.903      3.545
REMARK  Name = 
REMARK  3 active torsions:
REMARK  status: ('A' for Active; 'I' for Inactive)
REMARK    1  A    between atoms: C_1  and  S_2
REMARK    2  A    between atoms: S_2  and  N_5
REMARK    3  A    between atoms: C_13  and  C_15
REMARK                            x       y       z     vdW  Elec       q    Type
REMARK                         _______ _______ _______ _____ _____    ______ ____
ROOT
ATOM      1  N   UNL     1       3.468   3.572  17.826  0.00  0.00    +0.000 NA
ATOM      2  C   UNL     1       4.522   3.194  18.773  0.00  0.00    +0.000 C 
ATOM      3  C   UNL     1       5.359   4.376  19.320  0.00  0.00    +0.000 C 
ATOM      4  C   UNL     1       6.527   4.619  18.345  0.00  0.00    +0.000 C 
ATOM      5  C   UNL     1       6.153   5.671  17.318  0.00  0.00    +0.000 C 
ATOM      6  C   UNL     1       4.628   5.780  17.131  0.00  0.00    +0.000 C 
ATOM      7  C   UNL     1       3.934   4.455  16.691  0.00  0.00    +0.000 C 
ATOM      8  N   UNL     1       4.009   6.300  18.354  0.00  0.00    +0.000 N 
ATOM      9  C   UNL     1       2.793   7.015  18.150  0.00  0.00    +0.000 C 
ATOM     10  O   UNL     1       2.389   7.132  16.983  0.00  0.00    +0.000 OA
ATOM     11  C   UNL     1       4.577   5.718  19.597  0.00  0.00    +0.000 C 
ENDROOT
BRANCH   9  12
ATOM     12  C   UNL     1       2.033   7.662  19.204  0.00  0.00    +0.000 A 
ATOM     13  O   UNL     1       1.885   7.054  20.416  0.00  0.00    +0.000 OA
ATOM     14  N   UNL     1       1.339   7.947  21.335  0.00  0.00    +0.000 NA
ATOM     15  C   UNL     1       1.146   9.077  20.650  0.00  0.00    +0.000 A 
ATOM     16  C   UNL     1       1.500   8.950  19.292  0.00  0.00    +0.000 A 
ATOM     17  C   UNL     1       1.325  10.060  18.308  0.00  0.00    +0.000 C 
ATOM     18  C   UNL     1       0.981  11.417  18.987  0.00  0.00    +0.000 C 
ATOM     19  C   UNL     1       0.068  11.279  20.218  0.00  0.00    +0.000 C 
ATOM     20  C   UNL     1       0.686  10.350  21.272  0.00  0.00    +0.000 C 
ENDBRANCH   9  12
BRANCH   1  22
ATOM     21  C   UNL     1       1.251   2.129  18.562  0.00  0.00    +0.000 C 
ATOM     22  S   UNL     1       1.887   3.784  18.429  0.00  0.00    +0.000 S 
ATOM     23  O   UNL     1       1.094   4.458  17.431  0.00  0.00    +0.000 OA
ATOM     24  O   UNL     1       1.956   4.263  19.794  0.00  0.00    +0.000 OA
ENDBRANCH   1  22
TORSDOF 2
ENDMDL
MODEL 5
REMARK VINA RESULT:      -6.2      4.307      8.512
REMARK  Name = 
REMARK  3 active torsions:
REMARK  status: ('A' for Active; 'I' for Inactive)
REMARK    1  A    between atoms: C_1  and  S_2
REMARK    2  A    between atoms: S_2  and  N_5
REMARK    3  A    between atoms: C_13  and  C_15
REMARK                            x       y       z     vdW  Elec       q    Type
REMARK                         _______ _______ _______ _____ _____    ______ ____
ROOT
ATOM      1  N   UNL     1      -0.280  14.215  20.770  0.00  0.00    +0.000 NA
ATOM      2  C   UNL     1      -0.365  14.477  22.211  0.00  0.00    +0.000 C 
ATOM      3  C   UNL     1      -1.048  13.360  23.036  0.00  0.00    +0.000 C 
ATOM      4  C   UNL     1      -2.562  13.640  23.047  0.00  0.00    +0.000 C 
ATOM      5  C   UNL     1      -3.250  12.896  21.918  0.00  0.00    +0.000 C 
ATOM      6  C   UNL     1      -2.281  12.570  20.766  0.00  0.00    +0.000 C 
ATOM      7  C   UNL     1      -1.591  13.815  20.130  0.00  0.00    +0.000 C 
ATOM      8  N   UNL     1      -1.275  11.602  21.215  0.00  0.00    +0.000 N 
ATOM      9  C   UNL     1      -0.745  10.771  20.186  0.00  0.00    +0.000 C 
ATOM     10  O   UNL     1      -1.180  10.938  19.036  0.00  0.00    +0.000 OA
ATOM     11  C   UNL     1      -0.759  11.877  22.580  0.00  0.00    +0.000 C 
ENDROOT
BRANCH   9  12
ATOM     12  C   UNL     1       0.221   9.709  20.402  0.00  0.00    +0.000 A 
ATOM     13  O   UNL     1       0.231   9.021  21.580  0.00  0.00    +0.000 OA
ATOM     14  N   UNL     1       1.062   7.907  21.476  0.00  0.00    +0.000 NA
ATOM     15  C   UNL     1       1.556   7.957  20.237  0.00  0.00    +0.000 A 
ATOM     16  C   UNL     1       1.120   9.095  19.529  0.00  0.00    +0.000 A 
ATOM     17  C   UNL     1       1.579   9.404  18.141  0.00  0.00    +0.000 C 
ATOM     18  C   UNL     1       2.345   8.219  17.484  0.00  0.00    +0.000 C 
ATOM     19  C   UNL     1       3.228   7.431  18.468  0.00  0.00    +0.000 C 
ATOM     20  C   UNL     1       2.405   6.886  19.644  0.00  0.00    +0.000 C 
ENDBRANCH   9  12
BRANCH   1  22
ATOM     21  C   UNL     1       2.239  14.947  19.963  0.00  0.00    +0.000 C 
ATOM     22  S   UNL     1       1.164  13.545  20.159  0.00  0.00    +0.000 S 
ATOM     23  O   UNL     1       0.914  13.021  18.840  0.00  0.00    +0.000 OA
ATOM     24  O   UNL     1       1.790  12.741  21.188  0.00  0.00    +0.000 OA
ENDBRANCH   1  22
TORSDOF 2
ENDMDL
MODEL 6
REMARK VINA RESULT:      -6.2      1.587      2.223
REMARK  Name = 
REMARK  3 active torsions:
REMARK  status: ('A' for Active; 'I' for Inactive)
REMARK    1  A    between atoms: C_1  and  S_2
REMARK    2  A    between atoms: S_2  and  N_5
REMARK    3  A    between atoms: C_13  and  C_15
REMARK                            x       y       z     vdW  Elec       q    Type
REMARK                         _______ _______ _______ _____ _____    ______ ____
ROOT
ATOM      1  N   UNL     1       2.616   2.647  18.637  0.00  0.00    +0.000 NA
ATOM      2  C   UNL     1       1.277   2.255  19.090  0.00  0.00    +0.000 C 
ATOM      3  C   UNL     1       0.701   3.116  20.240  0.00  0.00    +0.000 C 
ATOM      4  C   UNL     1       1.170   2.500  21.571  0.00  0.00    +0.000 C 
ATOM      5  C   UNL     1       2.453   3.160  22.041  0.00  0.00    +0.000 C 
ATOM      6  C   UNL     1       3.238   3.791  20.876  0.00  0.00    +0.000 C 
ATOM      7  C   UNL     1       3.633   2.792  19.746  0.00  0.00    +0.000 C 
ATOM      8  N   UNL     1       2.488   4.921  20.319  0.00  0.00    +0.000 N 
ATOM      9  C   UNL     1       3.291   5.932  19.717  0.00  0.00    +0.000 C 
ATOM     10  O   UNL     1       4.521   5.767  19.728  0.00  0.00    +0.000 OA
ATOM     11  C   UNL     1       1.032   4.658  20.192  0.00  0.00    +0.000 C 
ENDROOT
BRANCH   9  12
ATOM     12  C   UNL     1       2.773   7.164  19.149  0.00  0.00    +0.000 A 
ATOM     13  O   UNL     1       3.034   7.483  17.849  0.00  0.00    +0.000 OA
ATOM     14  N   UNL     1       2.251   8.565  17.455  0.00  0.00    +0.000 NA
ATOM     15  C   UNL     1       1.544   8.895  18.539  0.00  0.00    +0.000 A 
ATOM     16  C   UNL     1       1.868   8.098  19.655  0.00  0.00    +0.000 A 
ATOM     17  C   UNL     1       1.251   8.309  21.000  0.00  0.00    +0.000 C 
ATOM     18  C   UNL     1       0.045   9.291  20.961  0.00  0.00    +0.000 C 
ATOM     19  C   UNL     1       0.222  10.450  19.965  0.00  0.00    +0.000 C 
ATOM     20  C   UNL     1       0.475   9.932  18.541  0.00  0.00    +0.000 C 
ENDBRANCH   9  12
BRANCH   1  22
ATOM     21  C   UNL     1       2.754   2.560  15.897  0.00  0.00    +0.000 C 
ATOM     22  S   UNL     1       2.735   3.674  17.281  0.00  0.00    +0.000 S 
ATOM     23  O   UNL     1       4.017   4.333  17.307  0.00  0.00    +0.000 OA
ATOM     24  O   UNL     1       1.502   4.421  17.138  0.00  0.00    +0.000 OA
ENDBRANCH   1  22
TORSDOF 2
ENDMDL
MODEL 7
REMARK VINA RESULT:      -6.0      2.233      3.178
REMARK  Name = 
REMARK  3 active torsions:
REMARK  status: ('A' for Active; 'I' for Inactive)
REMARK    1  A    between atoms: C_1  and  S_2
REMARK    2  A    between atoms: S_2  and  N_5
REMARK    3  A    between atoms: C_13  and  C_15
REMARK                            x       y       z     vdW  Elec       q    Type
REMARK                         _______ _______ _______ _____ _____    ______ ____
ROOT
ATOM      1  N   UNL     1       6.786   4.583  17.606  0.00  0.00    +0.000 NA
ATOM      2  C   UNL     1       7.449   5.051  16.384  0.00  0.00    +0.000 C 
ATOM      3  C   UNL     1       6.491   5.499  15.254  0.00  0.00    +0.000 C 
ATOM      4  C   UNL     1       6.141   4.258  14.412  0.00  0.00    +0.000 C 
ATOM      5  C   UNL     1       4.862   3.615  14.915  0.00  0.00    +0.000 C 
ATOM      6  C   UNL     1       4.586   3.957  16.391  0.00  0.00    +0.000 C 
ATOM      7  C   UNL     1       5.718   3.537  17.376  0.00  0.00    +0.000 C 
ATOM      8  N   UNL     1       4.294   5.388  16.528  0.00  0.00    +0.000 N 
ATOM      9  C   UNL     1       3.452   5.724  17.626  0.00  0.00    +0.000 C 
ATOM     10  O   UNL     1       3.049   4.793  18.341  0.00  0.00    +0.000 OA
ATOM     11  C   UNL     1       5.180   6.252  15.706  0.00  0.00    +0.000 C 
ENDROOT
BRANCH   9  12
ATOM     12  C   UNL     1       2.988   7.066  17.927  0.00  0.00    +0.000 A 
ATOM     13  O   UNL     1       3.019   8.034  16.967  0.00  0.00    +0.000 OA
ATOM     14  N   UNL     1       2.312   9.155  17.396  0.00  0.00    +0.000 NA
ATOM     15  C   UNL     1       1.885   8.849  18.623  0.00  0.00    +0.000 A 
ATOM     16  C   UNL     1       2.327   7.579  19.045  0.00  0.00    +0.000 A 
ATOM     17  C   UNL     1       2.025   7.032  20.402  0.00  0.00    +0.000 C 
ATOM     18  C   UNL     1       0.967   7.877  21.169  0.00  0.00    +0.000 C 
ATOM     19  C   UNL     1       1.083   9.391  20.917  0.00  0.00    +0.000 C 
ATOM     20  C   UNL     1       0.977   9.719  19.421  0.00  0.00    +0.000 C 
ENDBRANCH   9  12
BRANCH   1  22
ATOM     21  C   UNL     1       8.118   5.632  19.764  0.00  0.00    +0.000 C 
ATOM     22  S   UNL     1       6.577   5.695  18.881  0.00  0.00    +0.000 S 
ATOM     23  O   UNL     1       5.561   5.196  19.773  0.00  0.00    +0.000 OA
ATOM     24  O   UNL     1       6.517   7.037  18.340  0.00  0.00    +0.000 OA
ENDBRANCH   1  22
TORSDOF 2
ENDMDL
MODEL 8
REMARK VINA RESULT:      -6.0      8.063     11.603
REMARK  Name = 
REMARK  3 active torsions:
REMARK  status: ('A' for Active; 'I' for Inactive)
REMARK    1  A    between atoms: C_1  and  S_2
REMARK    2  A    between atoms: S_2  and  N_5
REMARK    3  A    between atoms: C_13  and  C_15
REMARK                            x       y       z     vdW  Elec       q    Type
REMARK                         _______ _______ _______ _____ _____    ______ ____
ROOT
ATOM      1  N   UNL     1      -7.372  13.756  21.626  0.00  0.00    +0.000 NA
ATOM      2  C   UNL     1      -7.917  12.533  21.025  0.00  0.00    +0.000 C 
ATOM      3  C   UNL     1      -7.054  11.925  19.893  0.00  0.00    +0.000 C 
ATOM      4  C   UNL     1      -7.477  12.587  18.569  0.00  0.00    +0.000 C 
ATOM      5  C   UNL     1      -6.598  13.786  18.268  0.00  0.00    +0.000 C 
ATOM      6  C   UNL     1      -5.961  14.370  19.542  0.00  0.00    +0.000 C 
ATOM      7  C   UNL     1      -6.984  14.824  20.628  0.00  0.00    +0.000 C 
ATOM      8  N   UNL     1      -5.005  13.413  20.109  0.00  0.00    +0.000 N 
ATOM      9  C   UNL     1      -3.942  14.000  20.854  0.00  0.00    +0.000 C 
ATOM     10  O   UNL     1      -3.923  15.238  20.943  0.00  0.00    +0.000 OA
ATOM     11  C   UNL     1      -5.490  12.009  20.083  0.00  0.00    +0.000 C 
ENDROOT
BRANCH   9  12
ATOM     12  C   UNL     1      -2.853  13.256  21.460  0.00  0.00    +0.000 A 
ATOM     13  O   UNL     1      -2.665  13.294  22.811  0.00  0.00    +0.000 OA
ATOM     14  N   UNL     1      -1.733  12.331  23.190  0.00  0.00    +0.000 NA
ATOM     15  C   UNL     1      -1.358  11.742  22.052  0.00  0.00    +0.000 A 
ATOM     16  C   UNL     1      -1.973  12.316  20.922  0.00  0.00    +0.000 A 
ATOM     17  C   UNL     1      -1.674  11.867  19.528  0.00  0.00    +0.000 C 
ATOM     18  C   UNL     1      -0.846  10.550  19.485  0.00  0.00    +0.000 C 
ATOM     19  C   UNL     1       0.199  10.439  20.610  0.00  0.00    +0.000 C 
ATOM     20  C   UNL     1      -0.454  10.560  21.994  0.00  0.00    +0.000 C 
ENDBRANCH   9  12
BRANCH   1  22
ATOM     21  C   UNL     1      -7.682  13.546  24.345  0.00  0.00    +0.000 C 
ATOM     22  S   UNL     1      -6.458  13.607  23.058  0.00  0.00    +0.000 S 
ATOM     23  O   UNL     1      -5.701  14.818  23.255  0.00  0.00    +0.000 OA
ATOM     24  O   UNL     1      -5.826  12.305  23.088  0.00  0.00    +0.000 OA
ENDBRANCH   1  22
TORSDOF 2
ENDMDL
MODEL 9
REMARK VINA RESULT:      -5.9      6.275     10.289
REMARK  Name = 
REMARK  3 active torsions:
REMARK  status: ('A' for Active; 'I' for Inactive)
REMARK    1  A    between atoms: C_1  and  S_2
REMARK    2  A    between atoms: S_2  and  N_5
REMARK    3  A    between atoms: C_13  and  C_15
REMARK                            x       y       z     vdW  Elec       q    Type
REMARK                         _______ _______ _______ _____ _____    ______ ____
ROOT
ATOM      1  N   UNL     1      -2.957  15.096  23.433  0.00  0.00    +0.000 NA
ATOM      2  C   UNL     1      -3.483  14.439  24.635  0.00  0.00    +0.000 C 
ATOM      3  C   UNL     1      -3.938  12.974  24.429  0.00  0.00    +0.000 C 
ATOM      4  C   UNL     1      -5.411  12.997  23.978  0.00  0.00    +0.000 C 
ATOM      5  C   UNL     1      -5.504  12.987  22.464  0.00  0.00    +0.000 C 
ATOM      6  C   UNL     1      -4.226  13.535  21.802  0.00  0.00    +0.000 C 
ATOM      7  C   UNL     1      -3.854  14.990  22.220  0.00  0.00    +0.000 C 
ATOM      8  N   UNL     1      -3.102  12.628  22.054  0.00  0.00    +0.000 N 
ATOM      9  C   UNL     1      -2.084  12.646  21.057  0.00  0.00    +0.000 C 
ATOM     10  O   UNL     1      -2.247  13.404  20.089  0.00  0.00    +0.000 OA
ATOM     11  C   UNL     1      -3.067  12.103  23.444  0.00  0.00    +0.000 C 
ENDROOT
BRANCH   9  12
ATOM     12  C   UNL     1      -0.907  11.796  21.068  0.00  0.00    +0.000 A 
ATOM     13  O   UNL     1      -0.258  11.538  22.239  0.00  0.00    +0.000 OA
ATOM     14  N   UNL     1       0.679  10.524  22.053  0.00  0.00    +0.000 NA
ATOM     15  C   UNL     1       0.592  10.203  20.760  0.00  0.00    +0.000 A 
ATOM     16  C   UNL     1      -0.338  11.005  20.069  0.00  0.00    +0.000 A 
ATOM     17  C   UNL     1      -0.575  10.876  18.599  0.00  0.00    +0.000 C 
ATOM     18  C   UNL     1       0.092   9.609  17.991  0.00  0.00    +0.000 C 
ATOM     19  C   UNL     1       1.453   9.263  18.622  0.00  0.00    +0.000 C 
ATOM     20  C   UNL     1       1.334   9.070  20.140  0.00  0.00    +0.000 C 
ENDBRANCH   9  12
BRANCH   1  22
ATOM     21  C   UNL     1      -0.722  16.541  24.104  0.00  0.00    +0.000 C 
ATOM     22  S   UNL     1      -1.268  15.111  23.201  0.00  0.00    +0.000 S 
ATOM     23  O   UNL     1      -0.992  15.363  21.809  0.00  0.00    +0.000 OA
ATOM     24  O   UNL     1      -0.680  13.987  23.899  0.00  0.00    +0.000 OA
ENDBRANCH   1  22
TORSDOF 2
ENDMDL
