MODEL 1
REMARK VINA RESULT:      -8.6      0.000      0.000
REMARK  Name = 
REMARK  2 active torsions:
REMARK  status: ('A' for Active; 'I' for Inactive)
REMARK    1  A    between atoms: C_8  and  N_9
REMARK    2  A    between atoms: C_13  and  C_14
REMARK                            x       y       z     vdW  Elec       q    Type
REMARK                         _______ _______ _______ _____ _____    ______ ____
ROOT
ATOM      1  N   UNL     1       1.006   2.504  22.528  0.00  0.00    +0.000 N 
ATOM      2  C   UNL     1       1.888   2.664  21.479  0.00  0.00    +0.000 A 
ATOM      3  N   UNL     1       3.091   2.096  21.599  0.00  0.00    +0.000 NA
ATOM      4  C   UNL     1       3.956   2.309  20.595  0.00  0.00    +0.000 A 
ATOM      5  N   UNL     1       5.194   1.664  20.726  0.00  0.00    +0.000 N 
ATOM      6  C   UNL     1       3.643   3.071  19.468  0.00  0.00    +0.000 A 
ATOM      7  C   UNL     1       4.550   3.373  18.416  0.00  0.00    +0.000 A 
ATOM      8  C   UNL     1       4.193   4.184  17.333  0.00  0.00    +0.000 A 
ATOM      9  C   UNL     1       2.864   4.616  17.301  0.00  0.00    +0.000 A 
ATOM     10  C   UNL     1       1.966   4.319  18.335  0.00  0.00    +0.000 A 
ATOM     11  C   UNL     1       2.344   3.567  19.436  0.00  0.00    +0.000 A 
ATOM     12  N   UNL     1       1.467   3.360  20.424  0.00  0.00    +0.000 NA
ATOM     13  H   UNL     1       1.246   1.686  23.067  0.00  0.00    +0.000 HD
ATOM     14  H   UNL     1       0.055   2.586  22.194  0.00  0.00    +0.000 HD
ATOM     15  H   UNL     1       5.232   1.264  21.659  0.00  0.00    +0.000 HD
ATOM     16  H   UNL     1       5.973   2.280  20.537  0.00  0.00    +0.000 HD
ENDROOT
BRANCH   8  17
ATOM     17  N   UNL     1       5.110   4.526  16.371  0.00  0.00    +0.000 N 
ATOM     18  C   UNL     1       4.751   4.792  14.984  0.00  0.00    +0.000 C 
ATOM     19  C   UNL     1       5.902   4.175  14.207  0.00  0.00    +0.000 C 
ATOM     20  C   UNL     1       7.116   4.424  15.092  0.00  0.00    +0.000 C 
ATOM     21  C   UNL     1       6.570   4.441  16.534  0.00  0.00    +0.000 C 
BRANCH  21  22
ATOM     22  C   UNL     1       7.124   5.631  17.304  0.00  0.00    +0.000 A 
ATOM     23  C   UNL     1       7.152   6.921  16.747  0.00  0.00    +0.000 A 
ATOM     24  C   UNL     1       7.737   7.990  17.422  0.00  0.00    +0.000 A 
ATOM     25  C   UNL     1       8.310   7.785  18.673  0.00  0.00    +0.000 A 
ATOM     26  C   UNL     1       8.279   6.518  19.253  0.00  0.00    +0.000 A 
ATOM     27  C   UNL     1       7.690   5.446  18.576  0.00  0.00    +0.000 A 
ENDBRANCH  21  22
ENDBRANCH   8  17
TORSDOF 2
ENDMDL
MODEL 2
REMARK VINA RESULT:      -8.6      0.168      1.019
REMARK  Name = 
REMARK  2 active torsions:
REMARK  status: ('A' for Active; 'I' for Inactive)
REMARK    1  A    between atoms: C_8  and  N_9
REMARK    2  A    between atoms: C_13  and  C_14
REMARK                            x       y       z     vdW  Elec       q    Type
REMARK                         _______ _______ _______ _____ _____    ______ ____
ROOT
ATOM      1  N   UNL     1       1.006   2.537  22.444  0.00  0.00    +0.000 N 
ATOM      2  C   UNL     1       1.888   2.677  21.392  0.00  0.00    +0.000 A 
ATOM      3  N   UNL     1       3.091   2.112  21.524  0.00  0.00    +0.000 NA
ATOM      4  C   UNL     1       3.956   2.305  20.516  0.00  0.00    +0.000 A 
ATOM      5  N   UNL     1       5.194   1.662  20.659  0.00  0.00    +0.000 N 
ATOM      6  C   UNL     1       3.644   3.045  19.374  0.00  0.00    +0.000 A 
ATOM      7  C   UNL     1       4.550   3.327  18.316  0.00  0.00    +0.000 A 
ATOM      8  C   UNL     1       4.194   4.116  17.218  0.00  0.00    +0.000 A 
ATOM      9  C   UNL     1       2.865   4.548  17.178  0.00  0.00    +0.000 A 
ATOM     10  C   UNL     1       1.967   4.271  18.217  0.00  0.00    +0.000 A 
ATOM     11  C   UNL     1       2.344   3.541  19.332  0.00  0.00    +0.000 A 
ATOM     12  N   UNL     1       1.468   3.353  20.324  0.00  0.00    +0.000 NA
ATOM     13  H   UNL     1       1.246   1.730  22.999  0.00  0.00    +0.000 HD
ATOM     14  H   UNL     1       0.056   2.612  22.108  0.00  0.00    +0.000 HD
ATOM     15  H   UNL     1       5.232   1.281  21.600  0.00  0.00    +0.000 HD
ATOM     16  H   UNL     1       5.974   2.275  20.459  0.00  0.00    +0.000 HD
ENDROOT
BRANCH   8  17
ATOM     17  N   UNL     1       5.111   4.440  16.250  0.00  0.00    +0.000 N 
ATOM     18  C   UNL     1       4.743   4.764  14.877  0.00  0.00    +0.000 C 
ATOM     19  C   UNL     1       5.848   4.113  14.063  0.00  0.00    +0.000 C 
ATOM     20  C   UNL     1       7.088   4.275  14.932  0.00  0.00    +0.000 C 
ATOM     21  C   UNL     1       6.567   4.277  16.384  0.00  0.00    +0.000 C 
BRANCH  21  22
ATOM     22  C   UNL     1       7.195   5.415  17.177  0.00  0.00    +0.000 A 
ATOM     23  C   UNL     1       7.730   5.212  18.460  0.00  0.00    +0.000 A 
ATOM     24  C   UNL     1       8.227   6.272  19.214  0.00  0.00    +0.000 A 
ATOM     25  C   UNL     1       8.194   7.562  18.696  0.00  0.00    +0.000 A 
ATOM     26  C   UNL     1       7.683   7.786  17.419  0.00  0.00    +0.000 A 
ATOM     27  C   UNL     1       7.186   6.721  16.661  0.00  0.00    +0.000 A 
ENDBRANCH  21  22
ENDBRANCH   8  17
TORSDOF 2
ENDMDL
MODEL 3
REMARK VINA RESULT:      -8.4      2.472      6.687
REMARK  Name = 
REMARK  2 active torsions:
REMARK  status: ('A' for Active; 'I' for Inactive)
REMARK    1  A    between atoms: C_8  and  N_9
REMARK    2  A    between atoms: C_13  and  C_14
REMARK                            x       y       z     vdW  Elec       q    Type
REMARK                         _______ _______ _______ _____ _____    ______ ____
ROOT
ATOM      1  N   UNL     1       8.830   5.939  12.890  0.00  0.00    +0.000 N 
ATOM      2  C   UNL     1       7.830   5.333  13.623  0.00  0.00    +0.000 A 
ATOM      3  N   UNL     1       6.921   4.624  12.948  0.00  0.00    +0.000 NA
ATOM      4  C   UNL     1       5.924   4.089  13.669  0.00  0.00    +0.000 A 
ATOM      5  N   UNL     1       5.011   3.311  12.942  0.00  0.00    +0.000 N 
ATOM      6  C   UNL     1       5.818   4.240  15.053  0.00  0.00    +0.000 A 
ATOM      7  C   UNL     1       4.745   3.744  15.844  0.00  0.00    +0.000 A 
ATOM      8  C   UNL     1       4.669   3.969  17.222  0.00  0.00    +0.000 A 
ATOM      9  C   UNL     1       5.751   4.641  17.796  0.00  0.00    +0.000 A 
ATOM     10  C   UNL     1       6.812   5.129  17.021  0.00  0.00    +0.000 A 
ATOM     11  C   UNL     1       6.851   4.957  15.647  0.00  0.00    +0.000 A 
ATOM     12  N   UNL     1       7.855   5.493  14.945  0.00  0.00    +0.000 NA
ATOM     13  H   UNL     1       8.954   5.468  12.007  0.00  0.00    +0.000 HD
ATOM     14  H   UNL     1       9.646   6.076  13.469  0.00  0.00    +0.000 HD
ATOM     15  H   UNL     1       5.225   3.433  11.957  0.00  0.00    +0.000 HD
ATOM     16  H   UNL     1       4.050   3.538  13.161  0.00  0.00    +0.000 HD
ENDROOT
BRANCH   8  17
ATOM     17  N   UNL     1       3.583   3.549  17.950  0.00  0.00    +0.000 N 
ATOM     18  C   UNL     1       3.556   2.296  18.694  0.00  0.00    +0.000 C 
ATOM     19  C   UNL     1       2.136   1.799  18.476  0.00  0.00    +0.000 C 
ATOM     20  C   UNL     1       1.303   3.073  18.444  0.00  0.00    +0.000 C 
ATOM     21  C   UNL     1       2.246   4.161  17.891  0.00  0.00    +0.000 C 
BRANCH  21  22
ATOM     22  C   UNL     1       2.162   5.423  18.737  0.00  0.00    +0.000 A 
ATOM     23  C   UNL     1       1.781   5.381  20.088  0.00  0.00    +0.000 A 
ATOM     24  C   UNL     1       1.625   6.548  20.834  0.00  0.00    +0.000 A 
ATOM     25  C   UNL     1       1.847   7.783  20.236  0.00  0.00    +0.000 A 
ATOM     26  C   UNL     1       2.242   7.849  18.902  0.00  0.00    +0.000 A 
ATOM     27  C   UNL     1       2.401   6.679  18.154  0.00  0.00    +0.000 A 
ENDBRANCH  21  22
ENDBRANCH   8  17
TORSDOF 2
ENDMDL
MODEL 4
REMARK VINA RESULT:      -8.4      2.437      6.605
REMARK  Name = 
REMARK  2 active torsions:
REMARK  status: ('A' for Active; 'I' for Inactive)
REMARK    1  A    between atoms: C_8  and  N_9
REMARK    2  A    between atoms: C_13  and  C_14
REMARK                            x       y       z     vdW  Elec       q    Type
REMARK                         _______ _______ _______ _____ _____    ______ ____
ROOT
ATOM      1  N   UNL     1       8.809   5.948  12.929  0.00  0.00    +0.000 N 
ATOM      2  C   UNL     1       7.818   5.328  13.662  0.00  0.00    +0.000 A 
ATOM      3  N   UNL     1       6.909   4.621  12.986  0.00  0.00    +0.000 NA
ATOM      4  C   UNL     1       5.920   4.072  13.708  0.00  0.00    +0.000 A 
ATOM      5  N   UNL     1       5.007   3.297  12.979  0.00  0.00    +0.000 N 
ATOM      6  C   UNL     1       5.822   4.207  15.094  0.00  0.00    +0.000 A 
ATOM      7  C   UNL     1       4.758   3.697  15.887  0.00  0.00    +0.000 A 
ATOM      8  C   UNL     1       4.690   3.906  17.268  0.00  0.00    +0.000 A 
ATOM      9  C   UNL     1       5.772   4.578  17.842  0.00  0.00    +0.000 A 
ATOM     10  C   UNL     1       6.825   5.081  17.065  0.00  0.00    +0.000 A 
ATOM     11  C   UNL     1       6.856   4.925  15.689  0.00  0.00    +0.000 A 
ATOM     12  N   UNL     1       7.851   5.473  14.986  0.00  0.00    +0.000 NA
ATOM     13  H   UNL     1       8.930   5.486  12.040  0.00  0.00    +0.000 HD
ATOM     14  H   UNL     1       9.629   6.083  13.505  0.00  0.00    +0.000 HD
ATOM     15  H   UNL     1       5.213   3.430  11.994  0.00  0.00    +0.000 HD
ATOM     16  H   UNL     1       4.046   3.516  13.207  0.00  0.00    +0.000 HD
ENDROOT
BRANCH   8  17
ATOM     17  N   UNL     1       3.611   3.473  17.999  0.00  0.00    +0.000 N 
ATOM     18  C   UNL     1       3.630   2.261  18.808  0.00  0.00    +0.000 C 
ATOM     19  C   UNL     1       2.241   1.683  18.594  0.00  0.00    +0.000 C 
ATOM     20  C   UNL     1       1.347   2.910  18.478  0.00  0.00    +0.000 C 
ATOM     21  C   UNL     1       2.247   4.013  17.884  0.00  0.00    +0.000 C 
BRANCH  21  22
ATOM     22  C   UNL     1       2.086   5.313  18.658  0.00  0.00    +0.000 A 
ATOM     23  C   UNL     1       2.350   6.560  18.069  0.00  0.00    +0.000 A 
ATOM     24  C   UNL     1       2.281   7.740  18.806  0.00  0.00    +0.000 A 
ATOM     25  C   UNL     1       1.947   7.692  20.155  0.00  0.00    +0.000 A 
ATOM     26  C   UNL     1       1.664   6.468  20.758  0.00  0.00    +0.000 A 
ATOM     27  C   UNL     1       1.731   5.284  20.017  0.00  0.00    +0.000 A 
ENDBRANCH  21  22
ENDBRANCH   8  17
TORSDOF 2
ENDMDL
MODEL 5
REMARK VINA RESULT:      -8.0      4.400      5.629
REMARK  Name = 
REMARK  2 active torsions:
REMARK  status: ('A' for Active; 'I' for Inactive)
REMARK    1  A    between atoms: C_8  and  N_9
REMARK    2  A    between atoms: C_13  and  C_14
REMARK                            x       y       z     vdW  Elec       q    Type
REMARK                         _______ _______ _______ _____ _____    ______ ____
ROOT
ATOM      1  N   UNL     1      -0.478  12.002  21.115  0.00  0.00    +0.000 N 
ATOM      2  C   UNL     1       0.243  10.981  20.529  0.00  0.00    +0.000 A 
ATOM      3  N   UNL     1       0.774  11.218  19.327  0.00  0.00    +0.000 NA
ATOM      4  C   UNL     1       1.423  10.196  18.748  0.00  0.00    +0.000 A 
ATOM      5  N   UNL     1       2.010  10.487  17.509  0.00  0.00    +0.000 N 
ATOM      6  C   UNL     1       1.560   8.943  19.347  0.00  0.00    +0.000 A 
ATOM      7  C   UNL     1       2.183   7.818  18.741  0.00  0.00    +0.000 A 
ATOM      8  C   UNL     1       2.249   6.571  19.372  0.00  0.00    +0.000 A 
ATOM      9  C   UNL     1       1.737   6.513  20.671  0.00  0.00    +0.000 A 
ATOM     10  C   UNL     1       1.124   7.620  21.274  0.00  0.00    +0.000 A 
ATOM     11  C   UNL     1       1.007   8.835  20.619  0.00  0.00    +0.000 A 
ATOM     12  N   UNL     1       0.362   9.844  21.213  0.00  0.00    +0.000 NA
ATOM     13  H   UNL     1      -0.198  12.893  20.734  0.00  0.00    +0.000 HD
ATOM     14  H   UNL     1      -0.472  11.896  22.119  0.00  0.00    +0.000 HD
ATOM     15  H   UNL     1       1.692  11.410  17.230  0.00  0.00    +0.000 HD
ATOM     16  H   UNL     1       1.811   9.782  16.811  0.00  0.00    +0.000 HD
ENDROOT
BRANCH   8  17
ATOM     17  N   UNL     1       2.784   5.480  18.734  0.00  0.00    +0.000 N 
ATOM     18  C   UNL     1       2.070   4.721  17.715  0.00  0.00    +0.000 C 
ATOM     19  C   UNL     1       2.471   3.286  18.012  0.00  0.00    +0.000 C 
ATOM     20  C   UNL     1       3.915   3.399  18.483  0.00  0.00    +0.000 C 
ATOM     21  C   UNL     1       4.018   4.790  19.141  0.00  0.00    +0.000 C 
BRANCH  21  22
ATOM     22  C   UNL     1       5.262   5.521  18.658  0.00  0.00    +0.000 A 
ATOM     23  C   UNL     1       5.264   6.264  17.465  0.00  0.00    +0.000 A 
ATOM     24  C   UNL     1       6.427   6.861  16.985  0.00  0.00    +0.000 A 
ATOM     25  C   UNL     1       7.616   6.723  17.692  0.00  0.00    +0.000 A 
ATOM     26  C   UNL     1       7.635   6.006  18.887  0.00  0.00    +0.000 A 
ATOM     27  C   UNL     1       6.467   5.408  19.370  0.00  0.00    +0.000 A 
ENDBRANCH  21  22
ENDBRANCH   8  17
TORSDOF 2
ENDMDL
MODEL 6
REMARK VINA RESULT:      -8.0      4.321      5.624
REMARK  Name = 
REMARK  2 active torsions:
REMARK  status: ('A' for Active; 'I' for Inactive)
REMARK    1  A    between atoms: C_8  and  N_9
REMARK    2  A    between atoms: C_13  and  C_14
REMARK                            x       y       z     vdW  Elec       q    Type
REMARK                         _______ _______ _______ _____ _____    ______ ____
ROOT
ATOM      1  N   UNL     1      -0.414  11.876  21.135  0.00  0.00    +0.000 N 
ATOM      2  C   UNL     1       0.297  10.861  20.527  0.00  0.00    +0.000 A 
ATOM      3  N   UNL     1       0.788  11.104  19.309  0.00  0.00    +0.000 NA
ATOM      4  C   UNL     1       1.428  10.087  18.710  0.00  0.00    +0.000 A 
ATOM      5  N   UNL     1       1.975  10.384  17.453  0.00  0.00    +0.000 N 
ATOM      6  C   UNL     1       1.595   8.835  19.303  0.00  0.00    +0.000 A 
ATOM      7  C   UNL     1       2.208   7.716  18.678  0.00  0.00    +0.000 A 
ATOM      8  C   UNL     1       2.304   6.469  19.306  0.00  0.00    +0.000 A 
ATOM      9  C   UNL     1       1.833   6.406  20.620  0.00  0.00    +0.000 A 
ATOM     10  C   UNL     1       1.230   7.508  21.242  0.00  0.00    +0.000 A 
ATOM     11  C   UNL     1       1.082   8.723  20.592  0.00  0.00    +0.000 A 
ATOM     12  N   UNL     1       0.447   9.725  21.206  0.00  0.00    +0.000 NA
ATOM     13  H   UNL     1      -0.153  12.770  20.746  0.00  0.00    +0.000 HD
ATOM     14  H   UNL     1      -0.376  11.770  22.139  0.00  0.00    +0.000 HD
ATOM     15  H   UNL     1       1.640  11.304  17.184  0.00  0.00    +0.000 HD
ATOM     16  H   UNL     1       1.760   9.677  16.762  0.00  0.00    +0.000 HD
ENDROOT
BRANCH   8  17
ATOM     17  N   UNL     1       2.828   5.383  18.651  0.00  0.00    +0.000 N 
ATOM     18  C   UNL     1       2.112   4.654  17.613  0.00  0.00    +0.000 C 
ATOM     19  C   UNL     1       2.490   3.208  17.885  0.00  0.00    +0.000 C 
ATOM     20  C   UNL     1       3.932   3.292  18.369  0.00  0.00    +0.000 C 
ATOM     21  C   UNL     1       4.050   4.668  19.055  0.00  0.00    +0.000 C 
BRANCH  21  22
ATOM     22  C   UNL     1       5.308   5.390  18.595  0.00  0.00    +0.000 A 
ATOM     23  C   UNL     1       6.508   5.318  19.322  0.00  0.00    +0.000 A 
ATOM     24  C   UNL     1       7.631   6.048  18.942  0.00  0.00    +0.000 A 
ATOM     25  C   UNL     1       7.573   6.870  17.822  0.00  0.00    +0.000 A 
ATOM     26  C   UNL     1       6.400   6.945  17.075  0.00  0.00    +0.000 A 
ATOM     27  C   UNL     1       5.272   6.211  17.455  0.00  0.00    +0.000 A 
ENDBRANCH  21  22
ENDBRANCH   8  17
TORSDOF 2
ENDMDL
MODEL 7
REMARK VINA RESULT:      -7.9      4.436      6.459
REMARK  Name = 
REMARK  2 active torsions:
REMARK  status: ('A' for Active; 'I' for Inactive)
REMARK    1  A    between atoms: C_8  and  N_9
REMARK    2  A    between atoms: C_13  and  C_14
REMARK                            x       y       z     vdW  Elec       q    Type
REMARK                         _______ _______ _______ _____ _____    ______ ____
ROOT
ATOM      1  N   UNL     1      -0.408  12.366  20.872  0.00  0.00    +0.000 N 
ATOM      2  C   UNL     1       0.210  11.161  20.606  0.00  0.00    +0.000 A 
ATOM      3  N   UNL     1       0.600  10.430  21.653  0.00  0.00    +0.000 NA
ATOM      4  C   UNL     1       1.250   9.288  21.376  0.00  0.00    +0.000 A 
ATOM      5  N   UNL     1       1.605   8.517  22.492  0.00  0.00    +0.000 N 
ATOM      6  C   UNL     1       1.512   8.857  20.075  0.00  0.00    +0.000 A 
ATOM      7  C   UNL     1       2.252   7.690  19.740  0.00  0.00    +0.000 A 
ATOM      8  C   UNL     1       2.525   7.333  18.416  0.00  0.00    +0.000 A 
ATOM      9  C   UNL     1       1.959   8.148  17.432  0.00  0.00    +0.000 A 
ATOM     10  C   UNL     1       1.227   9.298  17.756  0.00  0.00    +0.000 A 
ATOM     11  C   UNL     1       1.013   9.680  19.071  0.00  0.00    +0.000 A 
ATOM     12  N   UNL     1       0.359  10.817  19.328  0.00  0.00    +0.000 NA
ATOM     13  H   UNL     1      -0.809  12.358  21.798  0.00  0.00    +0.000 HD
ATOM     14  H   UNL     1      -1.007  12.624  20.101  0.00  0.00    +0.000 HD
ATOM     15  H   UNL     1       1.412   9.073  23.320  0.00  0.00    +0.000 HD
ATOM     16  H   UNL     1       2.566   8.201  22.454  0.00  0.00    +0.000 HD
ENDROOT
BRANCH   8  17
ATOM     17  N   UNL     1       3.309   6.246  18.121  0.00  0.00    +0.000 N 
ATOM     18  C   UNL     1       4.726   6.347  17.799  0.00  0.00    +0.000 C 
ATOM     19  C   UNL     1       4.905   5.309  16.703  0.00  0.00    +0.000 C 
ATOM     20  C   UNL     1       3.948   4.192  17.098  0.00  0.00    +0.000 C 
ATOM     21  C   UNL     1       2.800   4.891  17.855  0.00  0.00    +0.000 C 
BRANCH  21  22
ATOM     22  C   UNL     1       2.475   4.145  19.142  0.00  0.00    +0.000 A 
ATOM     23  C   UNL     1       3.471   3.495  19.889  0.00  0.00    +0.000 A 
ATOM     24  C   UNL     1       3.156   2.744  21.019  0.00  0.00    +0.000 A 
ATOM     25  C   UNL     1       1.830   2.629  21.423  0.00  0.00    +0.000 A 
ATOM     26  C   UNL     1       0.827   3.280  20.708  0.00  0.00    +0.000 A 
ATOM     27  C   UNL     1       1.143   4.034  19.575  0.00  0.00    +0.000 A 
ENDBRANCH  21  22
ENDBRANCH   8  17
TORSDOF 2
ENDMDL
MODEL 8
REMARK VINA RESULT:      -7.9      4.416      6.391
REMARK  Name = 
REMARK  2 active torsions:
REMARK  status: ('A' for Active; 'I' for Inactive)
REMARK    1  A    between atoms: C_8  and  N_9
REMARK    2  A    between atoms: C_13  and  C_14
REMARK                            x       y       z     vdW  Elec       q    Type
REMARK                         _______ _______ _______ _____ _____    ______ ____
ROOT
ATOM      1  N   UNL     1      -0.458  12.299  20.904  0.00  0.00    +0.000 N 
ATOM      2  C   UNL     1       0.181  11.105  20.638  0.00  0.00    +0.000 A 
ATOM      3  N   UNL     1       0.608  10.393  21.684  0.00  0.00    +0.000 NA
ATOM      4  C   UNL     1       1.277   9.263  21.406  0.00  0.00    +0.000 A 
ATOM      5  N   UNL     1       1.673   8.513  22.522  0.00  0.00    +0.000 N 
ATOM      6  C   UNL     1       1.523   8.824  20.104  0.00  0.00    +0.000 A 
ATOM      7  C   UNL     1       2.281   7.670  19.766  0.00  0.00    +0.000 A 
ATOM      8  C   UNL     1       2.534   7.305  18.439  0.00  0.00    +0.000 A 
ATOM      9  C   UNL     1       1.931   8.097  17.459  0.00  0.00    +0.000 A 
ATOM     10  C   UNL     1       1.180   9.234  17.787  0.00  0.00    +0.000 A 
ATOM     11  C   UNL     1       0.985   9.625  19.102  0.00  0.00    +0.000 A 
ATOM     12  N   UNL     1       0.311  10.750  19.360  0.00  0.00    +0.000 NA
ATOM     13  H   UNL     1      -0.841  12.292  21.838  0.00  0.00    +0.000 HD
ATOM     14  H   UNL     1      -1.079  12.535  20.143  0.00  0.00    +0.000 HD
ATOM     15  H   UNL     1       1.484   9.073  23.348  0.00  0.00    +0.000 HD
ATOM     16  H   UNL     1       2.639   8.218  22.467  0.00  0.00    +0.000 HD
ENDROOT
BRANCH   8  17
ATOM     17  N   UNL     1       3.336   6.232  18.140  0.00  0.00    +0.000 N 
ATOM     18  C   UNL     1       4.767   6.350  17.889  0.00  0.00    +0.000 C 
ATOM     19  C   UNL     1       5.001   5.356  16.763  0.00  0.00    +0.000 C 
ATOM     20  C   UNL     1       4.031   4.222  17.069  0.00  0.00    +0.000 C 
ATOM     21  C   UNL     1       2.846   4.887  17.799  0.00  0.00    +0.000 C 
BRANCH  21  22
ATOM     22  C   UNL     1       2.465   4.091  19.039  0.00  0.00    +0.000 A 
ATOM     23  C   UNL     1       1.132   3.994  19.471  0.00  0.00    +0.000 A 
ATOM     24  C   UNL     1       0.799   3.334  20.652  0.00  0.00    +0.000 A 
ATOM     25  C   UNL     1       1.800   2.760  21.427  0.00  0.00    +0.000 A 
ATOM     26  C   UNL     1       3.128   2.829  21.010  0.00  0.00    +0.000 A 
ATOM     27  C   UNL     1       3.462   3.489  19.824  0.00  0.00    +0.000 A 
ENDBRANCH  21  22
ENDBRANCH   8  17
TORSDOF 2
ENDMDL
MODEL 9
REMARK VINA RESULT:      -7.8      4.531      6.031
REMARK  Name = 
REMARK  2 active torsions:
REMARK  status: ('A' for Active; 'I' for Inactive)
REMARK    1  A    between atoms: C_8  and  N_9
REMARK    2  A    between atoms: C_13  and  C_14
REMARK                            x       y       z     vdW  Elec       q    Type
REMARK                         _______ _______ _______ _____ _____    ______ ____
ROOT
ATOM      1  N   UNL     1       0.640  12.936  20.065  0.00  0.00    +0.000 N 
ATOM      2  C   UNL     1       0.872  11.576  20.102  0.00  0.00    +0.000 A 
ATOM      3  N   UNL     1       0.724  10.963  21.279  0.00  0.00    +0.000 NA
ATOM      4  C   UNL     1       1.008   9.651  21.309  0.00  0.00    +0.000 A 
ATOM      5  N   UNL     1       0.799   9.023  22.545  0.00  0.00    +0.000 N 
ATOM      6  C   UNL     1       1.432   8.937  20.187  0.00  0.00    +0.000 A 
ATOM      7  C   UNL     1       1.805   7.565  20.192  0.00  0.00    +0.000 A 
ATOM      8  C   UNL     1       2.268   6.913  19.044  0.00  0.00    +0.000 A 
ATOM      9  C   UNL     1       2.268   7.668  17.868  0.00  0.00    +0.000 A 
ATOM     10  C   UNL     1       1.899   9.020  17.857  0.00  0.00    +0.000 A 
ATOM     11  C   UNL     1       1.500   9.676  19.011  0.00  0.00    +0.000 A 
ATOM     12  N   UNL     1       1.215  10.981  18.960  0.00  0.00    +0.000 NA
ATOM     13  H   UNL     1       0.039  13.211  20.827  0.00  0.00    +0.000 HD
ATOM     14  H   UNL     1       0.372  13.214  19.131  0.00  0.00    +0.000 HD
ATOM     15  H   UNL     1       0.598   9.750  23.226  0.00  0.00    +0.000 HD
ATOM     16  H   UNL     1       1.579   8.440  22.820  0.00  0.00    +0.000 HD
ENDROOT
BRANCH   8  17
ATOM     17  N   UNL     1       2.697   5.611  19.092  0.00  0.00    +0.000 N 
ATOM     18  C   UNL     1       1.791   4.474  19.182  0.00  0.00    +0.000 C 
ATOM     19  C   UNL     1       2.518   3.527  20.121  0.00  0.00    +0.000 C 
ATOM     20  C   UNL     1       3.989   3.732  19.782  0.00  0.00    +0.000 C 
ATOM     21  C   UNL     1       4.093   5.194  19.301  0.00  0.00    +0.000 C 
BRANCH  21  22
ATOM     22  C   UNL     1       4.908   5.280  18.019  0.00  0.00    +0.000 A 
ATOM     23  C   UNL     1       4.555   4.551  16.870  0.00  0.00    +0.000 A 
ATOM     24  C   UNL     1       5.351   4.568  15.727  0.00  0.00    +0.000 A 
ATOM     25  C   UNL     1       6.522   5.317  15.714  0.00  0.00    +0.000 A 
ATOM     26  C   UNL     1       6.885   6.061  16.835  0.00  0.00    +0.000 A 
ATOM     27  C   UNL     1       6.085   6.046  17.981  0.00  0.00    +0.000 A 
ENDBRANCH  21  22
ENDBRANCH   8  17
TORSDOF 2
ENDMDL
