MODEL 1
REMARK VINA RESULT:      -6.9      0.000      0.000
REMARK  Name = 
REMARK  5 active torsions:
REMARK  status: ('A' for Active; 'I' for Inactive)
REMARK    1  A    between atoms: N_1  and  C_2
REMARK    2  A    between atoms: C_2  and  C_3
REMARK    3  A    between atoms: C_3  and  N_4
REMARK    4  A    between atoms: N_4  and  C_15
REMARK    5  A    between atoms: C_5  and  C_7
REMARK                            x       y       z     vdW  Elec       q    Type
REMARK                         _______ _______ _______ _____ _____    ______ ____
ROOT
ATOM      1  N   UNL     1       2.520   6.148  19.746  0.00  0.00    +0.000 N 
ATOM      2  C   UNL     1       2.315   7.514  19.570  0.00  0.00    +0.000 C 
ATOM      3  O   UNL     1       2.877   8.017  18.608  0.00  0.00    +0.000 OA
ENDROOT
BRANCH   2   4
ATOM      4  C   UNL     1       1.451   8.470  20.408  0.00  0.00    +0.000 A 
ATOM      5  C   UNL     1       1.419   8.484  21.827  0.00  0.00    +0.000 A 
ATOM      6  C   UNL     1       0.526   9.275  22.546  0.00  0.00    +0.000 A 
ATOM      7  C   UNL     1      -0.353  10.120  21.888  0.00  0.00    +0.000 A 
ATOM      8 CL   UNL     1      -1.497  11.083  22.805  0.00  0.00    +0.000 Cl
ATOM      9  C   UNL     1      -0.321  10.195  20.503  0.00  0.00    +0.000 A 
ATOM     10  C   UNL     1       0.559   9.395  19.758  0.00  0.00    +0.000 A 
ATOM     11 CL   UNL     1       0.445   9.638  18.010  0.00  0.00    +0.000 Cl
ENDBRANCH   2   4
BRANCH   1  12
ATOM     12  C   UNL     1       3.297   5.459  18.762  0.00  0.00    +0.000 A 
ATOM     13  C   UNL     1       2.690   4.776  17.700  0.00  0.00    +0.000 A 
ATOM     14  C   UNL     1       3.480   4.112  16.753  0.00  0.00    +0.000 A 
ATOM     15  C   UNL     1       4.879   4.136  16.855  0.00  0.00    +0.000 A 
ATOM     16 CL   UNL     1       5.840   3.301  15.643  0.00  0.00    +0.000 Cl
ATOM     17  C   UNL     1       5.488   4.822  17.918  0.00  0.00    +0.000 A 
ATOM     18 CL   UNL     1       7.238   4.889  18.083  0.00  0.00    +0.000 Cl
ATOM     19  C   UNL     1       4.697   5.472  18.866  0.00  0.00    +0.000 A 
ENDBRANCH   1  12
BRANCH   1  20
ATOM     20  C   UNL     1       2.030   5.328  20.849  0.00  0.00    +0.000 C 
BRANCH  20  21
ATOM     21  C   UNL     1       0.935   4.324  20.418  0.00  0.00    +0.000 C 
BRANCH  21  22
ATOM     22  N   UNL     1       1.047   3.062  21.137  0.00  0.00    +0.000 NA
ATOM     23  H   UNL     1       0.605   3.183  22.077  0.00  0.00    +0.000 HD
ATOM     24  H   UNL     1       2.059   2.848  21.294  0.00  0.00    +0.000 HD
ENDBRANCH  21  22
ENDBRANCH  20  21
ENDBRANCH   1  20
TORSDOF 5
ENDMDL
MODEL 2
REMARK VINA RESULT:      -6.3      4.289      5.881
REMARK  Name = 
REMARK  5 active torsions:
REMARK  status: ('A' for Active; 'I' for Inactive)
REMARK    1  A    between atoms: N_1  and  C_2
REMARK    2  A    between atoms: C_2  and  C_3
REMARK    3  A    between atoms: C_3  and  N_4
REMARK    4  A    between atoms: N_4  and  C_15
REMARK    5  A    between atoms: C_5  and  C_7
REMARK                            x       y       z     vdW  Elec       q    Type
REMARK                         _______ _______ _______ _____ _____    ______ ____
ROOT
ATOM      1  N   UNL     1       5.924   4.307  16.983  0.00  0.00    +0.000 N 
ATOM      2  C   UNL     1       4.571   4.076  17.215  0.00  0.00    +0.000 C 
ATOM      3  O   UNL     1       3.849   4.101  16.229  0.00  0.00    +0.000 OA
ENDROOT
BRANCH   2   4
ATOM      4  C   UNL     1       3.866   3.763  18.545  0.00  0.00    +0.000 A 
ATOM      5  C   UNL     1       4.117   2.609  19.332  0.00  0.00    +0.000 A 
ATOM      6  C   UNL     1       3.365   2.297  20.462  0.00  0.00    +0.000 A 
ATOM      7  C   UNL     1       2.350   3.139  20.885  0.00  0.00    +0.000 A 
ATOM      8 CL   UNL     1       1.385   2.715  22.288  0.00  0.00    +0.000 Cl
ATOM      9  C   UNL     1       2.103   4.315  20.192  0.00  0.00    +0.000 A 
ATOM     10  C   UNL     1       2.837   4.640  19.041  0.00  0.00    +0.000 A 
ATOM     11 CL   UNL     1       2.370   6.177  18.302  0.00  0.00    +0.000 Cl
ENDBRANCH   2   4
BRANCH   1  12
ATOM     12  C   UNL     1       6.347   4.479  15.627  0.00  0.00    +0.000 A 
ATOM     13  C   UNL     1       7.304   5.441  15.277  0.00  0.00    +0.000 A 
ATOM     14  C   UNL     1       7.696   5.583  13.941  0.00  0.00    +0.000 A 
ATOM     15  C   UNL     1       7.144   4.760  12.948  0.00  0.00    +0.000 A 
ATOM     16 CL   UNL     1       7.667   4.958  11.282  0.00  0.00    +0.000 Cl
ATOM     17  C   UNL     1       6.186   3.794  13.298  0.00  0.00    +0.000 A 
ATOM     18 CL   UNL     1       5.473   2.731  12.091  0.00  0.00    +0.000 Cl
ATOM     19  C   UNL     1       5.789   3.663  14.629  0.00  0.00    +0.000 A 
ENDBRANCH   1  12
BRANCH   1  20
ATOM     20  C   UNL     1       6.977   4.407  17.989  0.00  0.00    +0.000 C 
BRANCH  20  21
ATOM     21  C   UNL     1       6.761   5.577  18.978  0.00  0.00    +0.000 C 
BRANCH  21  22
ATOM     22  N   UNL     1       7.714   5.533  20.079  0.00  0.00    +0.000 NA
ATOM     23  H   UNL     1       7.193   5.721  20.967  0.00  0.00    +0.000 HD
ATOM     24  H   UNL     1       8.411   6.303  19.958  0.00  0.00    +0.000 HD
ENDBRANCH  21  22
ENDBRANCH  20  21
ENDBRANCH   1  20
TORSDOF 5
ENDMDL
MODEL 3
REMARK VINA RESULT:      -6.3      3.469      5.241
REMARK  Name = 
REMARK  5 active torsions:
REMARK  status: ('A' for Active; 'I' for Inactive)
REMARK    1  A    between atoms: N_1  and  C_2
REMARK    2  A    between atoms: C_2  and  C_3
REMARK    3  A    between atoms: C_3  and  N_4
REMARK    4  A    between atoms: N_4  and  C_15
REMARK    5  A    between atoms: C_5  and  C_7
REMARK                            x       y       z     vdW  Elec       q    Type
REMARK                         _______ _______ _______ _____ _____    ______ ____
ROOT
ATOM      1  N   UNL     1       0.054  10.254  19.983  0.00  0.00    +0.000 N 
ATOM      2  C   UNL     1       0.300  10.730  21.268  0.00  0.00    +0.000 C 
ATOM      3  O   UNL     1       1.278  10.259  21.832  0.00  0.00    +0.000 OA
ENDROOT
BRANCH   2   4
ATOM      4  C   UNL     1      -0.476  11.793  22.062  0.00  0.00    +0.000 A 
ATOM      5  C   UNL     1      -1.597  11.516  22.888  0.00  0.00    +0.000 A 
ATOM      6  C   UNL     1      -2.352  12.521  23.486  0.00  0.00    +0.000 A 
ATOM      7  C   UNL     1      -2.005  13.852  23.322  0.00  0.00    +0.000 A 
ATOM      8 CL   UNL     1      -2.985  15.111  24.051  0.00  0.00    +0.000 Cl
ATOM      9  C   UNL     1      -0.879  14.179  22.579  0.00  0.00    +0.000 A 
ATOM     10  C   UNL     1      -0.114  13.183  21.954  0.00  0.00    +0.000 A 
ATOM     11 CL   UNL     1       1.276  13.803  21.054  0.00  0.00    +0.000 Cl
ENDBRANCH   2   4
BRANCH   1  12
ATOM     12  C   UNL     1       0.990   9.328  19.425  0.00  0.00    +0.000 A 
ATOM     13  C   UNL     1       1.669   9.605  18.231  0.00  0.00    +0.000 A 
ATOM     14  C   UNL     1       2.579   8.677  17.712  0.00  0.00    +0.000 A 
ATOM     15  C   UNL     1       2.826   7.471  18.388  0.00  0.00    +0.000 A 
ATOM     16 CL   UNL     1       3.983   6.334  17.714  0.00  0.00    +0.000 Cl
ATOM     17  C   UNL     1       2.148   7.193  19.586  0.00  0.00    +0.000 A 
ATOM     18 CL   UNL     1       2.430   5.701  20.474  0.00  0.00    +0.000 Cl
ATOM     19  C   UNL     1       1.232   8.116  20.093  0.00  0.00    +0.000 A 
ENDBRANCH   1  12
BRANCH   1  20
ATOM     20  C   UNL     1      -1.081  10.593  19.130  0.00  0.00    +0.000 C 
BRANCH  20  21
ATOM     21  C   UNL     1      -0.970  12.005  18.507  0.00  0.00    +0.000 C 
BRANCH  21  22
ATOM     22  N   UNL     1      -1.745  12.114  17.279  0.00  0.00    +0.000 NA
ATOM     23  H   UNL     1      -2.710  11.755  17.470  0.00  0.00    +0.000 HD
ATOM     24  H   UNL     1      -1.320  11.493  16.551  0.00  0.00    +0.000 HD
ENDBRANCH  21  22
ENDBRANCH  20  21
ENDBRANCH   1  20
TORSDOF 5
ENDMDL
MODEL 4
REMARK VINA RESULT:      -6.3      3.237      8.543
REMARK  Name = 
REMARK  5 active torsions:
REMARK  status: ('A' for Active; 'I' for Inactive)
REMARK    1  A    between atoms: N_1  and  C_2
REMARK    2  A    between atoms: C_2  and  C_3
REMARK    3  A    between atoms: C_3  and  N_4
REMARK    4  A    between atoms: N_4  and  C_15
REMARK    5  A    between atoms: C_5  and  C_7
REMARK                            x       y       z     vdW  Elec       q    Type
REMARK                         _______ _______ _______ _____ _____    ______ ____
ROOT
ATOM      1  N   UNL     1      -0.276  10.671  20.543  0.00  0.00    +0.000 N 
ATOM      2  C   UNL     1       0.812   9.879  20.897  0.00  0.00    +0.000 C 
ATOM      3  O   UNL     1       1.409  10.215  21.911  0.00  0.00    +0.000 OA
ENDROOT
BRANCH   2   4
ATOM      4  C   UNL     1       1.349   8.618  20.199  0.00  0.00    +0.000 A 
ATOM      5  C   UNL     1       1.344   7.321  20.775  0.00  0.00    +0.000 A 
ATOM      6  C   UNL     1       1.957   6.230  20.165  0.00  0.00    +0.000 A 
ATOM      7  C   UNL     1       2.573   6.369  18.932  0.00  0.00    +0.000 A 
ATOM      8 CL   UNL     1       3.374   4.995  18.190  0.00  0.00    +0.000 Cl
ATOM      9  C   UNL     1       2.552   7.600  18.291  0.00  0.00    +0.000 A 
ATOM     10  C   UNL     1       1.954   8.716  18.896  0.00  0.00    +0.000 A 
ATOM     11 CL   UNL     1       2.034  10.189  17.922  0.00  0.00    +0.000 Cl
ENDBRANCH   2   4
BRANCH   1  12
ATOM     12  C   UNL     1      -0.633  11.742  21.421  0.00  0.00    +0.000 A 
ATOM     13  C   UNL     1       0.115  12.926  21.470  0.00  0.00    +0.000 A 
ATOM     14  C   UNL     1      -0.262  13.956  22.340  0.00  0.00    +0.000 A 
ATOM     15  C   UNL     1      -1.393  13.815  23.159  0.00  0.00    +0.000 A 
ATOM     16 CL   UNL     1      -1.844  15.132  24.231  0.00  0.00    +0.000 Cl
ATOM     17  C   UNL     1      -2.144  12.630  23.109  0.00  0.00    +0.000 A 
ATOM     18 CL   UNL     1      -3.576  12.409  24.108  0.00  0.00    +0.000 Cl
ATOM     19  C   UNL     1      -1.758  11.601  22.249  0.00  0.00    +0.000 A 
ENDBRANCH   1  12
BRANCH   1  20
ATOM     20  C   UNL     1      -1.103  10.534  19.348  0.00  0.00    +0.000 C 
BRANCH  20  21
ATOM     21  C   UNL     1      -1.027  11.766  18.415  0.00  0.00    +0.000 C 
BRANCH  21  22
ATOM     22  N   UNL     1      -2.341  12.140  17.911  0.00  0.00    +0.000 NA
ATOM     23  H   UNL     1      -2.642  11.418  17.216  0.00  0.00    +0.000 HD
ATOM     24  H   UNL     1      -2.264  13.051  17.401  0.00  0.00    +0.000 HD
ENDBRANCH  21  22
ENDBRANCH  20  21
ENDBRANCH   1  20
TORSDOF 5
ENDMDL
MODEL 5
REMARK VINA RESULT:      -6.3      2.829      3.876
REMARK  Name = 
REMARK  5 active torsions:
REMARK  status: ('A' for Active; 'I' for Inactive)
REMARK    1  A    between atoms: N_1  and  C_2
REMARK    2  A    between atoms: C_2  and  C_3
REMARK    3  A    between atoms: C_3  and  N_4
REMARK    4  A    between atoms: N_4  and  C_15
REMARK    5  A    between atoms: C_5  and  C_7
REMARK                            x       y       z     vdW  Elec       q    Type
REMARK                         _______ _______ _______ _____ _____    ______ ____
ROOT
ATOM      1  N   UNL     1       1.408   8.653  20.306  0.00  0.00    +0.000 N 
ATOM      2  C   UNL     1       1.034   9.585  19.342  0.00  0.00    +0.000 C 
ATOM      3  O   UNL     1       1.209   9.249  18.180  0.00  0.00    +0.000 OA
ENDROOT
BRANCH   2   4
ATOM      4  C   UNL     1       0.402  10.972  19.544  0.00  0.00    +0.000 A 
ATOM      5  C   UNL     1       1.050  12.063  20.179  0.00  0.00    +0.000 A 
ATOM      6  C   UNL     1       0.397  13.260  20.459  0.00  0.00    +0.000 A 
ATOM      7  C   UNL     1      -0.924  13.444  20.086  0.00  0.00    +0.000 A 
ATOM      8 CL   UNL     1      -1.747  14.944  20.477  0.00  0.00    +0.000 Cl
ATOM      9  C   UNL     1      -1.589  12.435  19.404  0.00  0.00    +0.000 A 
ATOM     10  C   UNL     1      -0.955  11.215  19.127  0.00  0.00    +0.000 A 
ATOM     11 CL   UNL     1      -1.970  10.060  18.253  0.00  0.00    +0.000 Cl
ENDBRANCH   2   4
BRANCH   1  12
ATOM     12  C   UNL     1       1.888   7.383  19.853  0.00  0.00    +0.000 A 
ATOM     13  C   UNL     1       2.707   7.273  18.721  0.00  0.00    +0.000 A 
ATOM     14  C   UNL     1       3.159   6.016  18.305  0.00  0.00    +0.000 A 
ATOM     15  C   UNL     1       2.807   4.862  19.021  0.00  0.00    +0.000 A 
ATOM     16 CL   UNL     1       3.402   3.301  18.477  0.00  0.00    +0.000 Cl
ATOM     17  C   UNL     1       1.988   4.971  20.157  0.00  0.00    +0.000 A 
ATOM     18 CL   UNL     1       1.527   3.556  21.094  0.00  0.00    +0.000 Cl
ATOM     19  C   UNL     1       1.529   6.226  20.562  0.00  0.00    +0.000 A 
ENDBRANCH   1  12
BRANCH   1  20
ATOM     20  C   UNL     1       1.376   8.834  21.754  0.00  0.00    +0.000 C 
BRANCH  20  21
ATOM     21  C   UNL     1      -0.049   9.082  22.302  0.00  0.00    +0.000 C 
BRANCH  21  22
ATOM     22  N   UNL     1      -0.039  10.002  23.431  0.00  0.00    +0.000 NA
ATOM     23  H   UNL     1      -0.315   9.468  24.288  0.00  0.00    +0.000 HD
ATOM     24  H   UNL     1      -0.764  10.740  23.277  0.00  0.00    +0.000 HD
ENDBRANCH  21  22
ENDBRANCH  20  21
ENDBRANCH   1  20
TORSDOF 5
ENDMDL
MODEL 6
REMARK VINA RESULT:      -6.2      2.383      3.248
REMARK  Name = 
REMARK  5 active torsions:
REMARK  status: ('A' for Active; 'I' for Inactive)
REMARK    1  A    between atoms: N_1  and  C_2
REMARK    2  A    between atoms: C_2  and  C_3
REMARK    3  A    between atoms: C_3  and  N_4
REMARK    4  A    between atoms: N_4  and  C_15
REMARK    5  A    between atoms: C_5  and  C_7
REMARK                            x       y       z     vdW  Elec       q    Type
REMARK                         _______ _______ _______ _____ _____    ______ ____
ROOT
ATOM      1  N   UNL     1       1.838   8.347  19.279  0.00  0.00    +0.000 N 
ATOM      2  C   UNL     1       1.457   9.451  18.522  0.00  0.00    +0.000 C 
ATOM      3  O   UNL     1       1.799   9.436  17.348  0.00  0.00    +0.000 OA
ENDROOT
BRANCH   2   4
ATOM      4  C   UNL     1       0.636  10.676  18.958  0.00  0.00    +0.000 A 
ATOM      5  C   UNL     1       1.099  11.671  19.857  0.00  0.00    +0.000 A 
ATOM      6  C   UNL     1       0.279  12.693  20.328  0.00  0.00    +0.000 A 
ATOM      7  C   UNL     1      -1.033  12.796  19.898  0.00  0.00    +0.000 A 
ATOM      8 CL   UNL     1      -2.067  14.065  20.527  0.00  0.00    +0.000 Cl
ATOM      9  C   UNL     1      -1.521  11.888  18.968  0.00  0.00    +0.000 A 
ATOM     10  C   UNL     1      -0.717  10.841  18.493  0.00  0.00    +0.000 A 
ATOM     11 CL   UNL     1      -1.522   9.793  17.318  0.00  0.00    +0.000 Cl
ENDBRANCH   2   4
BRANCH   1  12
ATOM     12  C   UNL     1       2.521   7.284  18.607  0.00  0.00    +0.000 A 
ATOM     13  C   UNL     1       3.753   7.493  17.972  0.00  0.00    +0.000 A 
ATOM     14  C   UNL     1       4.395   6.431  17.325  0.00  0.00    +0.000 A 
ATOM     15  C   UNL     1       3.818   5.152  17.316  0.00  0.00    +0.000 A 
ATOM     16 CL   UNL     1       4.656   3.839  16.504  0.00  0.00    +0.000 Cl
ATOM     17  C   UNL     1       2.584   4.941  17.954  0.00  0.00    +0.000 A 
ATOM     18 CL   UNL     1       1.825   3.354  17.980  0.00  0.00    +0.000 Cl
ATOM     19  C   UNL     1       1.942   6.005  18.588  0.00  0.00    +0.000 A 
ENDBRANCH   1  12
BRANCH   1  20
ATOM     20  C   UNL     1       1.626   8.154  20.709  0.00  0.00    +0.000 C 
BRANCH  20  21
ATOM     21  C   UNL     1       0.131   8.188  21.109  0.00  0.00    +0.000 C 
BRANCH  21  22
ATOM     22  N   UNL     1      -0.114   9.126  22.196  0.00  0.00    +0.000 NA
ATOM     23  H   UNL     1      -1.110   9.020  22.499  0.00  0.00    +0.000 HD
ATOM     24  H   UNL     1      -0.000  10.102  21.837  0.00  0.00    +0.000 HD
ENDBRANCH  21  22
ENDBRANCH  20  21
ENDBRANCH   1  20
TORSDOF 5
ENDMDL
MODEL 7
REMARK VINA RESULT:      -6.1      3.366      8.434
REMARK  Name = 
REMARK  5 active torsions:
REMARK  status: ('A' for Active; 'I' for Inactive)
REMARK    1  A    between atoms: N_1  and  C_2
REMARK    2  A    between atoms: C_2  and  C_3
REMARK    3  A    between atoms: C_3  and  N_4
REMARK    4  A    between atoms: N_4  and  C_15
REMARK    5  A    between atoms: C_5  and  C_7
REMARK                            x       y       z     vdW  Elec       q    Type
REMARK                         _______ _______ _______ _____ _____    ______ ____
ROOT
ATOM      1  N   UNL     1      -0.258  10.767  20.580  0.00  0.00    +0.000 N 
ATOM      2  C   UNL     1       0.841   9.970  20.886  0.00  0.00    +0.000 C 
ATOM      3  O   UNL     1       1.466  10.284  21.888  0.00  0.00    +0.000 OA
ENDROOT
BRANCH   2   4
ATOM      4  C   UNL     1       1.358   8.725  20.145  0.00  0.00    +0.000 A 
ATOM      5  C   UNL     1       1.385   7.418  20.698  0.00  0.00    +0.000 A 
ATOM      6  C   UNL     1       1.981   6.342  20.045  0.00  0.00    +0.000 A 
ATOM      7  C   UNL     1       2.547   6.507  18.791  0.00  0.00    +0.000 A 
ATOM      8 CL   UNL     1       3.327   5.152  17.995  0.00  0.00    +0.000 Cl
ATOM      9  C   UNL     1       2.491   7.748  18.174  0.00  0.00    +0.000 A 
ATOM     10  C   UNL     1       1.910   8.849  18.821  0.00  0.00    +0.000 A 
ATOM     11 CL   UNL     1       1.940  10.340  17.869  0.00  0.00    +0.000 Cl
ENDBRANCH   2   4
BRANCH   1  12
ATOM     12  C   UNL     1      -0.590  11.819  21.491  0.00  0.00    +0.000 A 
ATOM     13  C   UNL     1      -1.623  11.675  22.427  0.00  0.00    +0.000 A 
ATOM     14  C   UNL     1      -1.922  12.724  23.305  0.00  0.00    +0.000 A 
ATOM     15  C   UNL     1      -1.186  13.918  23.261  0.00  0.00    +0.000 A 
ATOM     16 CL   UNL     1      -1.582  15.209  24.385  0.00  0.00    +0.000 Cl
ATOM     17  C   UNL     1      -0.150  14.062  22.325  0.00  0.00    +0.000 A 
ATOM     18 CL   UNL     1       0.807  15.536  22.237  0.00  0.00    +0.000 Cl
ATOM     19  C   UNL     1       0.137  13.019  21.444  0.00  0.00    +0.000 A 
ENDBRANCH   1  12
BRANCH   1  20
ATOM     20  C   UNL     1      -1.118  10.655  19.407  0.00  0.00    +0.000 C 
BRANCH  20  21
ATOM     21  C   UNL     1      -1.704  12.014  18.953  0.00  0.00    +0.000 C 
BRANCH  21  22
ATOM     22  N   UNL     1      -1.407  12.288  17.554  0.00  0.00    +0.000 NA
ATOM     23  H   UNL     1      -1.786  11.500  16.980  0.00  0.00    +0.000 HD
ATOM     24  H   UNL     1      -0.369  12.299  17.421  0.00  0.00    +0.000 HD
ENDBRANCH  21  22
ENDBRANCH  20  21
ENDBRANCH   1  20
TORSDOF 5
ENDMDL
MODEL 8
REMARK VINA RESULT:      -6.1      2.645      7.128
REMARK  Name = 
REMARK  5 active torsions:
REMARK  status: ('A' for Active; 'I' for Inactive)
REMARK    1  A    between atoms: N_1  and  C_2
REMARK    2  A    between atoms: C_2  and  C_3
REMARK    3  A    between atoms: C_3  and  N_4
REMARK    4  A    between atoms: N_4  and  C_15
REMARK    5  A    between atoms: C_5  and  C_7
REMARK                            x       y       z     vdW  Elec       q    Type
REMARK                         _______ _______ _______ _____ _____    ______ ____
ROOT
ATOM      1  N   UNL     1       1.251   8.925  20.335  0.00  0.00    +0.000 N 
ATOM      2  C   UNL     1       1.716   8.063  19.346  0.00  0.00    +0.000 C 
ATOM      3  O   UNL     1       1.698   8.502  18.205  0.00  0.00    +0.000 OA
ENDROOT
BRANCH   2   4
ATOM      4  C   UNL     1       2.278   6.640  19.500  0.00  0.00    +0.000 A 
ATOM      5  C   UNL     1       1.799   5.687  20.437  0.00  0.00    +0.000 A 
ATOM      6  C   UNL     1       2.419   4.457  20.635  0.00  0.00    +0.000 A 
ATOM      7  C   UNL     1       3.526   4.098  19.883  0.00  0.00    +0.000 A 
ATOM      8 CL   UNL     1       4.321   2.561  20.169  0.00  0.00    +0.000 Cl
ATOM      9  C   UNL     1       3.999   4.963  18.907  0.00  0.00    +0.000 A 
ATOM     10  C   UNL     1       3.399   6.215  18.702  0.00  0.00    +0.000 A 
ATOM     11 CL   UNL     1       4.148   7.169  17.415  0.00  0.00    +0.000 Cl
ENDBRANCH   2   4
BRANCH   1  12
ATOM     12  C   UNL     1       0.869  10.246  19.940  0.00  0.00    +0.000 A 
ATOM     13  C   UNL     1       1.576  11.373  20.381  0.00  0.00    +0.000 A 
ATOM     14  C   UNL     1       1.177  12.652  19.976  0.00  0.00    +0.000 A 
ATOM     15  C   UNL     1       0.076  12.813  19.120  0.00  0.00    +0.000 A 
ATOM     16 CL   UNL     1      -0.391  14.433  18.622  0.00  0.00    +0.000 Cl
ATOM     17  C   UNL     1      -0.632  11.685  18.676  0.00  0.00    +0.000 A 
ATOM     18 CL   UNL     1      -2.011  11.835  17.595  0.00  0.00    +0.000 Cl
ATOM     19  C   UNL     1      -0.237  10.412  19.092  0.00  0.00    +0.000 A 
ENDBRANCH   1  12
BRANCH   1  20
ATOM     20  C   UNL     1       1.097   8.622  21.754  0.00  0.00    +0.000 C 
BRANCH  20  21
ATOM     21  C   UNL     1      -0.321   8.932  22.289  0.00  0.00    +0.000 C 
BRANCH  21  22
ATOM     22  N   UNL     1      -0.274   9.639  23.562  0.00  0.00    +0.000 NA
ATOM     23  H   UNL     1       0.719   9.648  23.892  0.00  0.00    +0.000 HD
ATOM     24  H   UNL     1      -0.833   9.107  24.268  0.00  0.00    +0.000 HD
ENDBRANCH  21  22
ENDBRANCH  20  21
ENDBRANCH   1  20
TORSDOF 5
ENDMDL
MODEL 9
REMARK VINA RESULT:      -6.1      2.850      3.984
REMARK  Name = 
REMARK  5 active torsions:
REMARK  status: ('A' for Active; 'I' for Inactive)
REMARK    1  A    between atoms: N_1  and  C_2
REMARK    2  A    between atoms: C_2  and  C_3
REMARK    3  A    between atoms: C_3  and  N_4
REMARK    4  A    between atoms: N_4  and  C_15
REMARK    5  A    between atoms: C_5  and  C_7
REMARK                            x       y       z     vdW  Elec       q    Type
REMARK                         _______ _______ _______ _____ _____    ______ ____
ROOT
ATOM      1  N   UNL     1       1.600   8.647  19.992  0.00  0.00    +0.000 N 
ATOM      2  C   UNL     1       1.406   9.396  18.835  0.00  0.00    +0.000 C 
ATOM      3  O   UNL     1       1.563   8.798  17.781  0.00  0.00    +0.000 OA
ENDROOT
BRANCH   2   4
ATOM      4  C   UNL     1       0.990  10.871  18.706  0.00  0.00    +0.000 A 
ATOM      5  C   UNL     1       1.899  11.961  18.701  0.00  0.00    +0.000 A 
ATOM      6  C   UNL     1       1.475  13.287  18.714  0.00  0.00    +0.000 A 
ATOM      7  C   UNL     1       0.124  13.594  18.695  0.00  0.00    +0.000 A 
ATOM      8 CL   UNL     1      -0.398  15.268  18.749  0.00  0.00    +0.000 Cl
ATOM      9  C   UNL     1      -0.809  12.568  18.634  0.00  0.00    +0.000 A 
ATOM     10  C   UNL     1      -0.404  11.225  18.637  0.00  0.00    +0.000 A 
ATOM     11 CL   UNL     1      -1.742  10.071  18.556  0.00  0.00    +0.000 Cl
ENDBRANCH   2   4
BRANCH   1  12
ATOM     12  C   UNL     1       1.891   7.254  19.842  0.00  0.00    +0.000 A 
ATOM     13  C   UNL     1       1.355   6.298  20.716  0.00  0.00    +0.000 A 
ATOM     14  C   UNL     1       1.658   4.943  20.541  0.00  0.00    +0.000 A 
ATOM     15  C   UNL     1       2.490   4.532  19.488  0.00  0.00    +0.000 A 
ATOM     16 CL   UNL     1       2.841   2.822  19.291  0.00  0.00    +0.000 Cl
ATOM     17  C   UNL     1       3.025   5.489  18.610  0.00  0.00    +0.000 A 
ATOM     18 CL   UNL     1       4.064   5.023  17.269  0.00  0.00    +0.000 Cl
ATOM     19  C   UNL     1       2.730   6.840  18.795  0.00  0.00    +0.000 A 
ENDBRANCH   1  12
BRANCH   1  20
ATOM     20  C   UNL     1       1.551   9.136  21.366  0.00  0.00    +0.000 C 
BRANCH  20  21
ATOM     21  C   UNL     1       0.108   9.359  21.879  0.00  0.00    +0.000 C 
BRANCH  21  22
ATOM     22  N   UNL     1       0.093  10.042  23.165  0.00  0.00    +0.000 NA
ATOM     23  H   UNL     1      -0.823  10.537  23.261  0.00  0.00    +0.000 HD
ATOM     24  H   UNL     1       0.844  10.770  23.173  0.00  0.00    +0.000 HD
ENDBRANCH  21  22
ENDBRANCH  20  21
ENDBRANCH   1  20
TORSDOF 5
ENDMDL
