MODEL 1
REMARK VINA RESULT:      -8.6      0.000      0.000
REMARK  Name = 
REMARK  6 active torsions:
REMARK  status: ('A' for Active; 'I' for Inactive)
REMARK    1  A    between atoms: C_1  and  N_2
REMARK    2  A    between atoms: C_8  and  O_9
REMARK    3  A    between atoms: O_9  and  C_10
REMARK    4  A    between atoms: C_10  and  C_12
REMARK    5  A    between atoms: C_12  and  C_13
REMARK    6  A    between atoms: C_13  and  C_14
REMARK                            x       y       z     vdW  Elec       q    Type
REMARK                         _______ _______ _______ _____ _____    ______ ____
ROOT
ATOM      1  O   UNL     1       7.380   6.919  16.850  0.00  0.00    +0.000 OA
ENDROOT
BRANCH   1   9
ATOM      2  C   UNL     1       1.193   3.812  19.337  0.00  0.00    +0.000 C 
ATOM      3  N   UNL     1       2.382   4.253  18.636  0.00  0.00    +0.000 N 
ATOM      4  C   UNL     1       2.855   3.737  17.476  0.00  0.00    +0.000 C 
ATOM      5  O   UNL     1       2.328   2.827  16.855  0.00  0.00    +0.000 OA
ATOM      6  C   UNL     1       4.081   4.427  17.100  0.00  0.00    +0.000 A 
ATOM      7  C   UNL     1       4.928   4.259  16.016  0.00  0.00    +0.000 A 
ATOM      8  C   UNL     1       6.052   5.090  15.924  0.00  0.00    +0.000 A 
ATOM      9  C   UNL     1       6.315   6.075  16.920  0.00  0.00    +0.000 A 
ATOM     10  C   UNL     1       5.424   6.219  18.007  0.00  0.00    +0.000 A 
ATOM     11  C   UNL     1       4.315   5.375  18.069  0.00  0.00    +0.000 A 
ATOM     12  C   UNL     1       3.217   5.245  19.032  0.00  0.00    +0.000 C 
ATOM     13  O   UNL     1       3.063   5.915  20.042  0.00  0.00    +0.000 OA
ENDBRANCH   1   9
BRANCH   1  14
ATOM     14  C   UNL     1       7.927   7.681  17.840  0.00  0.00    +0.000 C 
ATOM     15  O   UNL     1       8.422   7.172  18.834  0.00  0.00    +0.000 OA
BRANCH  14  16
ATOM     16  C   UNL     1       7.926   9.179  17.721  0.00  0.00    +0.000 C 
BRANCH  16  17
ATOM     17  C   UNL     1       8.900   9.823  18.716  0.00  0.00    +0.000 C 
BRANCH  17  18
ATOM     18  C   UNL     1       9.520  11.079  18.168  0.00  0.00    +0.000 A 
ATOM     19  C   UNL     1      10.910  11.188  18.006  0.00  0.00    +0.000 A 
ATOM     20  C   UNL     1      11.464  12.367  17.509  0.00  0.00    +0.000 A 
ATOM     21  C   UNL     1      10.628  13.438  17.181  0.00  0.00    +0.000 A 
ATOM     22  N   UNL     1      11.168  14.647  16.686  0.00  0.00    +0.000 N 
ATOM     23  N   UNL     1       9.283  13.317  17.346  0.00  0.00    +0.000 NA
ATOM     24  C   UNL     1       8.718  12.178  17.823  0.00  0.00    +0.000 A 
ATOM     25  H   UNL     1      12.185  14.756  16.553  0.00  0.00    +0.000 HD
ATOM     26  H   UNL     1      10.546  15.436  16.455  0.00  0.00    +0.000 HD
ENDBRANCH  17  18
ENDBRANCH  16  17
ENDBRANCH  14  16
ENDBRANCH   1  14
TORSDOF 5
ENDMDL
MODEL 2
REMARK VINA RESULT:      -8.4      1.090      1.126
REMARK  Name = 
REMARK  6 active torsions:
REMARK  status: ('A' for Active; 'I' for Inactive)
REMARK    1  A    between atoms: C_1  and  N_2
REMARK    2  A    between atoms: C_8  and  O_9
REMARK    3  A    between atoms: O_9  and  C_10
REMARK    4  A    between atoms: C_10  and  C_12
REMARK    5  A    between atoms: C_12  and  C_13
REMARK    6  A    between atoms: C_13  and  C_14
REMARK                            x       y       z     vdW  Elec       q    Type
REMARK                         _______ _______ _______ _____ _____    ______ ____
ROOT
ATOM      1  O   UNL     1       6.469   7.362  16.865  0.00  0.00    +0.000 OA
ENDROOT
BRANCH   1   9
ATOM      2  C   UNL     1       0.871   3.384  19.500  0.00  0.00    +0.000 C 
ATOM      3  N   UNL     1       1.994   3.968  18.795  0.00  0.00    +0.000 N 
ATOM      4  C   UNL     1       2.643   3.416  17.742  0.00  0.00    +0.000 C 
ATOM      5  O   UNL     1       2.355   2.343  17.235  0.00  0.00    +0.000 OA
ATOM      6  C   UNL     1       3.729   4.292  17.325  0.00  0.00    +0.000 A 
ATOM      7  C   UNL     1       4.667   4.164  16.313  0.00  0.00    +0.000 A 
ATOM      8  C   UNL     1       5.605   5.192  16.152  0.00  0.00    +0.000 A 
ATOM      9  C   UNL     1       5.594   6.332  17.008  0.00  0.00    +0.000 A 
ATOM     10  C   UNL     1       4.616   6.427  18.025  0.00  0.00    +0.000 A 
ATOM     11  C   UNL     1       3.698   5.385  18.158  0.00  0.00    +0.000 A 
ATOM     12  C   UNL     1       2.583   5.156  19.082  0.00  0.00    +0.000 C 
ATOM     13  O   UNL     1       2.226   5.904  19.979  0.00  0.00    +0.000 OA
ENDBRANCH   1   9
BRANCH   1  14
ATOM     14  C   UNL     1       7.532   7.691  17.654  0.00  0.00    +0.000 C 
ATOM     15  O   UNL     1       8.088   6.856  18.351  0.00  0.00    +0.000 OA
BRANCH  14  16
ATOM     16  C   UNL     1       8.040   9.105  17.678  0.00  0.00    +0.000 C 
BRANCH  16  17
ATOM     17  C   UNL     1       8.911   9.370  18.912  0.00  0.00    +0.000 C 
BRANCH  17  18
ATOM     18  C   UNL     1       9.386  10.795  18.974  0.00  0.00    +0.000 A 
ATOM     19  C   UNL     1      10.146  11.258  20.059  0.00  0.00    +0.000 A 
ATOM     20  C   UNL     1      10.562  12.588  20.103  0.00  0.00    +0.000 A 
ATOM     21  C   UNL     1      10.213  13.455  19.063  0.00  0.00    +0.000 A 
ATOM     22  N   UNL     1      10.616  14.810  19.091  0.00  0.00    +0.000 N 
ATOM     23  N   UNL     1       9.475  12.992  18.019  0.00  0.00    +0.000 NA
ATOM     24  C   UNL     1       9.060  11.699  17.951  0.00  0.00    +0.000 A 
ATOM     25  H   UNL     1      11.177  15.179  19.873  0.00  0.00    +0.000 HD
ATOM     26  H   UNL     1      10.347  15.446  18.325  0.00  0.00    +0.000 HD
ENDBRANCH  17  18
ENDBRANCH  16  17
ENDBRANCH  14  16
ENDBRANCH   1  14
TORSDOF 5
ENDMDL
MODEL 3
REMARK VINA RESULT:      -8.3      4.006      7.102
REMARK  Name = 
REMARK  6 active torsions:
REMARK  status: ('A' for Active; 'I' for Inactive)
REMARK    1  A    between atoms: C_1  and  N_2
REMARK    2  A    between atoms: C_8  and  O_9
REMARK    3  A    between atoms: O_9  and  C_10
REMARK    4  A    between atoms: C_10  and  C_12
REMARK    5  A    between atoms: C_12  and  C_13
REMARK    6  A    between atoms: C_13  and  C_14
REMARK                            x       y       z     vdW  Elec       q    Type
REMARK                         _______ _______ _______ _____ _____    ______ ____
ROOT
ATOM      1  O   UNL     1       2.609   2.644  19.671  0.00  0.00    +0.000 OA
ENDROOT
BRANCH   1   9
ATOM      2  C   UNL     1       8.016   7.075  17.382  0.00  0.00    +0.000 C 
ATOM      3  N   UNL     1       6.881   6.193  17.568  0.00  0.00    +0.000 N 
ATOM      4  C   UNL     1       6.034   5.774  16.597  0.00  0.00    +0.000 C 
ATOM      5  O   UNL     1       6.124   6.082  15.418  0.00  0.00    +0.000 OA
ATOM      6  C   UNL     1       5.011   4.918  17.179  0.00  0.00    +0.000 A 
ATOM      7  C   UNL     1       3.934   4.262  16.604  0.00  0.00    +0.000 A 
ATOM      8  C   UNL     1       3.109   3.496  17.437  0.00  0.00    +0.000 A 
ATOM      9  C   UNL     1       3.370   3.400  18.835  0.00  0.00    +0.000 A 
ATOM     10  C   UNL     1       4.482   4.080  19.382  0.00  0.00    +0.000 A 
ATOM     11  C   UNL     1       5.283   4.834  18.524  0.00  0.00    +0.000 A 
ATOM     12  C   UNL     1       6.480   5.652  18.745  0.00  0.00    +0.000 C 
ATOM     13  O   UNL     1       7.041   5.832  19.815  0.00  0.00    +0.000 OA
ENDBRANCH   1   9
BRANCH   1  14
ATOM     14  C   UNL     1       1.648   3.053  20.549  0.00  0.00    +0.000 C 
ATOM     15  O   UNL     1       1.291   2.342  21.476  0.00  0.00    +0.000 OA
BRANCH  14  16
ATOM     16  C   UNL     1       1.005   4.400  20.383  0.00  0.00    +0.000 C 
BRANCH  16  17
ATOM     17  C   UNL     1       1.885   5.519  20.957  0.00  0.00    +0.000 C 
BRANCH  17  18
ATOM     18  C   UNL     1       1.816   6.773  20.129  0.00  0.00    +0.000 A 
ATOM     19  C   UNL     1       2.266   6.787  18.800  0.00  0.00    +0.000 A 
ATOM     20  C   UNL     1       2.207   7.965  18.056  0.00  0.00    +0.000 A 
ATOM     21  C   UNL     1       1.703   9.129  18.645  0.00  0.00    +0.000 A 
ATOM     22  N   UNL     1       1.642  10.337  17.913  0.00  0.00    +0.000 N 
ATOM     23  N   UNL     1       1.273   9.099  19.935  0.00  0.00    +0.000 NA
ATOM     24  C   UNL     1       1.316   7.963  20.680  0.00  0.00    +0.000 A 
ATOM     25  H   UNL     1       1.963  10.378  16.934  0.00  0.00    +0.000 HD
ATOM     26  H   UNL     1       1.278  11.193  18.357  0.00  0.00    +0.000 HD
ENDBRANCH  17  18
ENDBRANCH  16  17
ENDBRANCH  14  16
ENDBRANCH   1  14
TORSDOF 5
ENDMDL
MODEL 4
REMARK VINA RESULT:      -8.2      1.380      1.733
REMARK  Name = 
REMARK  6 active torsions:
REMARK  status: ('A' for Active; 'I' for Inactive)
REMARK    1  A    between atoms: C_1  and  N_2
REMARK    2  A    between atoms: C_8  and  O_9
REMARK    3  A    between atoms: O_9  and  C_10
REMARK    4  A    between atoms: C_10  and  C_12
REMARK    5  A    between atoms: C_12  and  C_13
REMARK    6  A    between atoms: C_13  and  C_14
REMARK                            x       y       z     vdW  Elec       q    Type
REMARK                         _______ _______ _______ _____ _____    ______ ____
ROOT
ATOM      1  O   UNL     1       7.260   7.072  17.180  0.00  0.00    +0.000 OA
ENDROOT
BRANCH   1   9
ATOM      2  C   UNL     1       2.291   2.294  19.749  0.00  0.00    +0.000 C 
ATOM      3  N   UNL     1       3.053   3.366  19.140  0.00  0.00    +0.000 N 
ATOM      4  C   UNL     1       2.544   4.378  18.397  0.00  0.00    +0.000 C 
ATOM      5  O   UNL     1       1.357   4.526  18.147  0.00  0.00    +0.000 OA
ATOM      6  C   UNL     1       3.624   5.241  17.943  0.00  0.00    +0.000 A 
ATOM      7  C   UNL     1       3.612   6.385  17.161  0.00  0.00    +0.000 A 
ATOM      8  C   UNL     1       4.836   7.010  16.889  0.00  0.00    +0.000 A 
ATOM      9  C   UNL     1       6.056   6.478  17.399  0.00  0.00    +0.000 A 
ATOM     10  C   UNL     1       6.026   5.313  18.198  0.00  0.00    +0.000 A 
ATOM     11  C   UNL     1       4.790   4.716  18.449  0.00  0.00    +0.000 A 
ATOM     12  C   UNL     1       4.398   3.525  19.209  0.00  0.00    +0.000 C 
ATOM     13  O   UNL     1       5.151   2.778  19.816  0.00  0.00    +0.000 OA
ENDBRANCH   1   9
BRANCH   1  14
ATOM     14  C   UNL     1       7.997   7.841  18.033  0.00  0.00    +0.000 C 
ATOM     15  O   UNL     1       8.613   7.346  18.964  0.00  0.00    +0.000 OA
BRANCH  14  16
ATOM     16  C   UNL     1       8.059   9.329  17.836  0.00  0.00    +0.000 C 
BRANCH  16  17
ATOM     17  C   UNL     1       9.075   9.980  18.783  0.00  0.00    +0.000 C 
BRANCH  17  18
ATOM     18  C   UNL     1       9.641  11.253  18.217  0.00  0.00    +0.000 A 
ATOM     19  C   UNL     1       8.806  12.334  17.893  0.00  0.00    +0.000 A 
ATOM     20  C   UNL     1       9.351  13.499  17.355  0.00  0.00    +0.000 A 
ATOM     21  C   UNL     1      10.729  13.580  17.137  0.00  0.00    +0.000 A 
ATOM     22  N   UNL     1      11.302  14.748  16.583  0.00  0.00    +0.000 N 
ATOM     23  N   UNL     1      11.525  12.523  17.454  0.00  0.00    +0.000 NA
ATOM     24  C   UNL     1      11.019  11.378  17.983  0.00  0.00    +0.000 A 
ATOM     25  H   UNL     1      10.716  15.559  16.337  0.00  0.00    +0.000 HD
ATOM     26  H   UNL     1      12.319  14.796  16.416  0.00  0.00    +0.000 HD
ENDBRANCH  17  18
ENDBRANCH  16  17
ENDBRANCH  14  16
ENDBRANCH   1  14
TORSDOF 5
ENDMDL
MODEL 5
REMARK VINA RESULT:      -8.2      5.397      7.478
REMARK  Name = 
REMARK  6 active torsions:
REMARK  status: ('A' for Active; 'I' for Inactive)
REMARK    1  A    between atoms: C_1  and  N_2
REMARK    2  A    between atoms: C_8  and  O_9
REMARK    3  A    between atoms: O_9  and  C_10
REMARK    4  A    between atoms: C_10  and  C_12
REMARK    5  A    between atoms: C_12  and  C_13
REMARK    6  A    between atoms: C_13  and  C_14
REMARK                            x       y       z     vdW  Elec       q    Type
REMARK                         _______ _______ _______ _____ _____    ______ ____
ROOT
ATOM      1  O   UNL     1       3.073   7.013  18.476  0.00  0.00    +0.000 OA
ENDROOT
BRANCH   1   9
ATOM      2  C   UNL     1      -1.188  11.327  22.640  0.00  0.00    +0.000 C 
ATOM      3  N   UNL     1      -0.433  10.638  21.614  0.00  0.00    +0.000 N 
ATOM      4  C   UNL     1      -0.449  10.923  20.290  0.00  0.00    +0.000 C 
ATOM      5  O   UNL     1      -1.105  11.819  19.781  0.00  0.00    +0.000 OA
ATOM      6  C   UNL     1       0.421   9.996  19.580  0.00  0.00    +0.000 A 
ATOM      7  C   UNL     1       0.727   9.880  18.234  0.00  0.00    +0.000 A 
ATOM      8  C   UNL     1       1.616   8.870  17.846  0.00  0.00    +0.000 A 
ATOM      9  C   UNL     1       2.185   7.987  18.810  0.00  0.00    +0.000 A 
ATOM     10  C   UNL     1       1.852   8.142  20.175  0.00  0.00    +0.000 A 
ATOM     11  C   UNL     1       0.962   9.158  20.527  0.00  0.00    +0.000 A 
ATOM     12  C   UNL     1       0.405   9.590  21.812  0.00  0.00    +0.000 C 
ATOM     13  O   UNL     1       0.644   9.094  22.903  0.00  0.00    +0.000 OA
ENDBRANCH   1   9
BRANCH   1  14
ATOM     14  C   UNL     1       3.044   5.689  18.799  0.00  0.00    +0.000 C 
ATOM     15  O   UNL     1       2.072   4.994  18.546  0.00  0.00    +0.000 OA
BRANCH  14  16
ATOM     16  C   UNL     1       4.224   5.058  19.483  0.00  0.00    +0.000 C 
BRANCH  16  17
ATOM     17  C   UNL     1       4.747   3.846  18.700  0.00  0.00    +0.000 C 
BRANCH  17  18
ATOM     18  C   UNL     1       5.498   4.253  17.463  0.00  0.00    +0.000 A 
ATOM     19  C   UNL     1       4.881   4.232  16.202  0.00  0.00    +0.000 A 
ATOM     20  C   UNL     1       5.602   4.600  15.067  0.00  0.00    +0.000 A 
ATOM     21  C   UNL     1       6.941   4.982  15.192  0.00  0.00    +0.000 A 
ATOM     22  N   UNL     1       7.694   5.349  14.054  0.00  0.00    +0.000 N 
ATOM     23  N   UNL     1       7.525   4.995  16.421  0.00  0.00    +0.000 NA
ATOM     24  C   UNL     1       6.844   4.645  17.544  0.00  0.00    +0.000 A 
ATOM     25  H   UNL     1       7.268   5.346  13.115  0.00  0.00    +0.000 HD
ATOM     26  H   UNL     1       8.684   5.621  14.154  0.00  0.00    +0.000 HD
ENDBRANCH  17  18
ENDBRANCH  16  17
ENDBRANCH  14  16
ENDBRANCH   1  14
TORSDOF 5
ENDMDL
MODEL 6
REMARK VINA RESULT:      -8.1      4.987      7.173
REMARK  Name = 
REMARK  6 active torsions:
REMARK  status: ('A' for Active; 'I' for Inactive)
REMARK    1  A    between atoms: C_1  and  N_2
REMARK    2  A    between atoms: C_8  and  O_9
REMARK    3  A    between atoms: O_9  and  C_10
REMARK    4  A    between atoms: C_10  and  C_12
REMARK    5  A    between atoms: C_12  and  C_13
REMARK    6  A    between atoms: C_13  and  C_14
REMARK                            x       y       z     vdW  Elec       q    Type
REMARK                         _______ _______ _______ _____ _____    ______ ____
ROOT
ATOM      1  O   UNL     1       2.199   2.284  20.031  0.00  0.00    +0.000 OA
ENDROOT
BRANCH   1   9
ATOM      2  C   UNL     1       7.568   5.303  16.009  0.00  0.00    +0.000 C 
ATOM      3  N   UNL     1       6.385   4.672  16.560  0.00  0.00    +0.000 N 
ATOM      4  C   UNL     1       5.298   4.273  15.857  0.00  0.00    +0.000 C 
ATOM      5  O   UNL     1       5.175   4.385  14.647  0.00  0.00    +0.000 OA
ATOM      6  C   UNL     1       4.311   3.707  16.765  0.00  0.00    +0.000 A 
ATOM      7  C   UNL     1       3.053   3.175  16.529  0.00  0.00    +0.000 A 
ATOM      8  C   UNL     1       2.325   2.698  17.627  0.00  0.00    +0.000 A 
ATOM      9  C   UNL     1       2.864   2.762  18.945  0.00  0.00    +0.000 A 
ATOM     10  C   UNL     1       4.154   3.306  19.142  0.00  0.00    +0.000 A 
ATOM     11  C   UNL     1       4.851   3.773  18.028  0.00  0.00    +0.000 A 
ATOM     12  C   UNL     1       6.172   4.389  17.869  0.00  0.00    +0.000 C 
ATOM     13  O   UNL     1       6.971   4.621  18.764  0.00  0.00    +0.000 OA
ENDBRANCH   1   9
BRANCH   1  14
ATOM     14  C   UNL     1       1.550   2.981  21.006  0.00  0.00    +0.000 C 
ATOM     15  O   UNL     1       1.365   2.503  22.114  0.00  0.00    +0.000 OA
BRANCH  14  16
ATOM     16  C   UNL     1       1.043   4.368  20.725  0.00  0.00    +0.000 C 
BRANCH  16  17
ATOM     17  C   UNL     1       2.080   5.434  21.104  0.00  0.00    +0.000 C 
BRANCH  17  18
ATOM     18  C   UNL     1       1.990   6.648  20.222  0.00  0.00    +0.000 A 
ATOM     19  C   UNL     1       1.378   7.827  20.674  0.00  0.00    +0.000 A 
ATOM     20  C   UNL     1       1.293   8.936  19.833  0.00  0.00    +0.000 A 
ATOM     21  C   UNL     1       1.816   8.863  18.538  0.00  0.00    +0.000 A 
ATOM     22  N   UNL     1       1.732   9.971  17.665  0.00  0.00    +0.000 N 
ATOM     23  N   UNL     1       2.404   7.712  18.114  0.00  0.00    +0.000 NA
ATOM     24  C   UNL     1       2.504   6.619  18.915  0.00  0.00    +0.000 A 
ATOM     25  H   UNL     1       1.290  10.852  17.969  0.00  0.00    +0.000 HD
ATOM     26  H   UNL     1       2.112   9.906  16.708  0.00  0.00    +0.000 HD
ENDBRANCH  17  18
ENDBRANCH  16  17
ENDBRANCH  14  16
ENDBRANCH   1  14
TORSDOF 5
ENDMDL
MODEL 7
REMARK VINA RESULT:      -8.1      1.469      1.717
REMARK  Name = 
REMARK  6 active torsions:
REMARK  status: ('A' for Active; 'I' for Inactive)
REMARK    1  A    between atoms: C_1  and  N_2
REMARK    2  A    between atoms: C_8  and  O_9
REMARK    3  A    between atoms: O_9  and  C_10
REMARK    4  A    between atoms: C_10  and  C_12
REMARK    5  A    between atoms: C_12  and  C_13
REMARK    6  A    between atoms: C_13  and  C_14
REMARK                            x       y       z     vdW  Elec       q    Type
REMARK                         _______ _______ _______ _____ _____    ______ ____
ROOT
ATOM      1  O   UNL     1       7.297   6.175  18.563  0.00  0.00    +0.000 OA
ENDROOT
BRANCH   1   9
ATOM      2  C   UNL     1       0.783   2.941  19.666  0.00  0.00    +0.000 C 
ATOM      3  N   UNL     1       2.058   3.453  19.205  0.00  0.00    +0.000 N 
ATOM      4  C   UNL     1       2.654   3.152  18.026  0.00  0.00    +0.000 C 
ATOM      5  O   UNL     1       2.183   2.407  17.181  0.00  0.00    +0.000 OA
ATOM      6  C   UNL     1       3.933   3.843  17.937  0.00  0.00    +0.000 A 
ATOM      7  C   UNL     1       4.898   3.850  16.943  0.00  0.00    +0.000 A 
ATOM      8  C   UNL     1       6.045   4.629  17.146  0.00  0.00    +0.000 A 
ATOM      9  C   UNL     1       6.212   5.386  18.342  0.00  0.00    +0.000 A 
ATOM     10  C   UNL     1       5.200   5.357  19.329  0.00  0.00    +0.000 A 
ATOM     11  C   UNL     1       4.072   4.571  19.095  0.00  0.00    +0.000 A 
ATOM     12  C   UNL     1       2.864   4.307  19.883  0.00  0.00    +0.000 C 
ATOM     13  O   UNL     1       2.606   4.773  20.983  0.00  0.00    +0.000 OA
ENDBRANCH   1   9
BRANCH   1  14
ATOM     14  C   UNL     1       7.713   7.266  17.857  0.00  0.00    +0.000 C 
ATOM     15  O   UNL     1       7.412   7.416  16.683  0.00  0.00    +0.000 OA
BRANCH  14  16
ATOM     16  C   UNL     1       8.560   8.312  18.524  0.00  0.00    +0.000 C 
BRANCH  16  17
ATOM     17  C   UNL     1       8.249   9.716  17.988  0.00  0.00    +0.000 C 
BRANCH  17  18
ATOM     18  C   UNL     1       9.152  10.761  18.582  0.00  0.00    +0.000 A 
ATOM     19  C   UNL     1       9.451  10.763  19.953  0.00  0.00    +0.000 A 
ATOM     20  C   UNL     1      10.278  11.751  20.486  0.00  0.00    +0.000 A 
ATOM     21  C   UNL     1      10.801  12.740  19.646  0.00  0.00    +0.000 A 
ATOM     22  N   UNL     1      11.634  13.757  20.165  0.00  0.00    +0.000 N 
ATOM     23  N   UNL     1      10.500  12.725  18.320  0.00  0.00    +0.000 NA
ATOM     24  C   UNL     1       9.700  11.771  17.776  0.00  0.00    +0.000 A 
ATOM     25  H   UNL     1      11.874  13.784  21.168  0.00  0.00    +0.000 HD
ATOM     26  H   UNL     1      12.008  14.488  19.542  0.00  0.00    +0.000 HD
ENDBRANCH  17  18
ENDBRANCH  16  17
ENDBRANCH  14  16
ENDBRANCH   1  14
TORSDOF 5
ENDMDL
MODEL 8
REMARK VINA RESULT:      -8.1      4.846      7.140
REMARK  Name = 
REMARK  6 active torsions:
REMARK  status: ('A' for Active; 'I' for Inactive)
REMARK    1  A    between atoms: C_1  and  N_2
REMARK    2  A    between atoms: C_8  and  O_9
REMARK    3  A    between atoms: O_9  and  C_10
REMARK    4  A    between atoms: C_10  and  C_12
REMARK    5  A    between atoms: C_12  and  C_13
REMARK    6  A    between atoms: C_13  and  C_14
REMARK                            x       y       z     vdW  Elec       q    Type
REMARK                         _______ _______ _______ _____ _____    ______ ____
ROOT
ATOM      1  O   UNL     1       3.712   2.834  19.846  0.00  0.00    +0.000 OA
ENDROOT
BRANCH   1   9
ATOM      2  C   UNL     1       7.305   5.329  13.932  0.00  0.00    +0.000 C 
ATOM      3  N   UNL     1       6.716   5.048  15.226  0.00  0.00    +0.000 N 
ATOM      4  C   UNL     1       6.953   5.732  16.371  0.00  0.00    +0.000 C 
ATOM      5  O   UNL     1       7.697   6.696  16.461  0.00  0.00    +0.000 OA
ATOM      6  C   UNL     1       6.195   5.135  17.461  0.00  0.00    +0.000 A 
ATOM      7  C   UNL     1       6.111   5.468  18.804  0.00  0.00    +0.000 A 
ATOM      8  C   UNL     1       5.281   4.692  19.623  0.00  0.00    +0.000 A 
ATOM      9  C   UNL     1       4.549   3.592  19.089  0.00  0.00    +0.000 A 
ATOM     10  C   UNL     1       4.657   3.289  17.712  0.00  0.00    +0.000 A 
ATOM     11  C   UNL     1       5.494   4.081  16.925  0.00  0.00    +0.000 A 
ATOM     12  C   UNL     1       5.840   4.049  15.501  0.00  0.00    +0.000 C 
ATOM     13  O   UNL     1       5.419   3.254  14.675  0.00  0.00    +0.000 OA
ENDBRANCH   1   9
BRANCH   1  14
ATOM     14  C   UNL     1       2.707   3.244  20.673  0.00  0.00    +0.000 C 
ATOM     15  O   UNL     1       2.564   2.763  21.786  0.00  0.00    +0.000 OA
BRANCH  14  16
ATOM     16  C   UNL     1       1.748   4.307  20.217  0.00  0.00    +0.000 C 
BRANCH  16  17
ATOM     17  C   UNL     1       1.944   5.614  20.997  0.00  0.00    +0.000 C 
BRANCH  17  18
ATOM     18  C   UNL     1       1.919   6.818  20.096  0.00  0.00    +0.000 A 
ATOM     19  C   UNL     1       2.448   6.761  18.798  0.00  0.00    +0.000 A 
ATOM     20  C   UNL     1       2.428   7.895  17.986  0.00  0.00    +0.000 A 
ATOM     21  C   UNL     1       1.884   9.086  18.476  0.00  0.00    +0.000 A 
ATOM     22  N   UNL     1       1.862  10.250  17.674  0.00  0.00    +0.000 N 
ATOM     23  N   UNL     1       1.377   9.125  19.738  0.00  0.00    +0.000 NA
ATOM     24  C   UNL     1       1.381   8.034  20.548  0.00  0.00    +0.000 A 
ATOM     25  H   UNL     1       2.241  10.238  16.715  0.00  0.00    +0.000 HD
ATOM     26  H   UNL     1       1.468  11.127  18.047  0.00  0.00    +0.000 HD
ENDBRANCH  17  18
ENDBRANCH  16  17
ENDBRANCH  14  16
ENDBRANCH   1  14
TORSDOF 5
ENDMDL
MODEL 9
REMARK VINA RESULT:      -8.0      6.465      8.651
REMARK  Name = 
REMARK  6 active torsions:
REMARK  status: ('A' for Active; 'I' for Inactive)
REMARK    1  A    between atoms: C_1  and  N_2
REMARK    2  A    between atoms: C_8  and  O_9
REMARK    3  A    between atoms: O_9  and  C_10
REMARK    4  A    between atoms: C_10  and  C_12
REMARK    5  A    between atoms: C_12  and  C_13
REMARK    6  A    between atoms: C_13  and  C_14
REMARK                            x       y       z     vdW  Elec       q    Type
REMARK                         _______ _______ _______ _____ _____    ______ ____
ROOT
ATOM      1  O   UNL     1       1.383   8.425  21.025  0.00  0.00    +0.000 OA
ENDROOT
BRANCH   1   9
ATOM      2  C   UNL     1       3.255   1.719  18.651  0.00  0.00    +0.000 C 
ATOM      3  N   UNL     1       2.962   3.121  18.868  0.00  0.00    +0.000 N 
ATOM      4  C   UNL     1       3.175   4.123  17.982  0.00  0.00    +0.000 C 
ATOM      5  O   UNL     1       3.640   3.971  16.862  0.00  0.00    +0.000 OA
ATOM      6  C   UNL     1       2.776   5.392  18.574  0.00  0.00    +0.000 A 
ATOM      7  C   UNL     1       2.808   6.683  18.072  0.00  0.00    +0.000 A 
ATOM      8  C   UNL     1       2.347   7.719  18.894  0.00  0.00    +0.000 A 
ATOM      9  C   UNL     1       1.864   7.450  20.209  0.00  0.00    +0.000 A 
ATOM     10  C   UNL     1       1.843   6.118  20.681  0.00  0.00    +0.000 A 
ATOM     11  C   UNL     1       2.310   5.110  19.837  0.00  0.00    +0.000 A 
ATOM     12  C   UNL     1       2.436   3.658  19.998  0.00  0.00    +0.000 C 
ATOM     13  O   UNL     1       2.125   3.014  20.988  0.00  0.00    +0.000 OA
ENDBRANCH   1   9
BRANCH   1  14
ATOM     14  C   UNL     1       0.093   8.839  21.187  0.00  0.00    +0.000 C 
ATOM     15  O   UNL     1      -0.746   8.117  21.703  0.00  0.00    +0.000 OA
BRANCH  14  16
ATOM     16  C   UNL     1      -0.319  10.207  20.722  0.00  0.00    +0.000 C 
BRANCH  16  17
ATOM     17  C   UNL     1      -0.122  10.371  19.209  0.00  0.00    +0.000 C 
BRANCH  17  18
ATOM     18  C   UNL     1      -1.425  10.590  18.490  0.00  0.00    +0.000 A 
ATOM     19  C   UNL     1      -1.756   9.841  17.350  0.00  0.00    +0.000 A 
ATOM     20  C   UNL     1      -2.963  10.072  16.691  0.00  0.00    +0.000 A 
ATOM     21  C   UNL     1      -3.834  11.055  17.168  0.00  0.00    +0.000 A 
ATOM     22  N   UNL     1      -5.058  11.313  16.510  0.00  0.00    +0.000 N 
ATOM     23  N   UNL     1      -3.497  11.774  18.273  0.00  0.00    +0.000 NA
ATOM     24  C   UNL     1      -2.329  11.566  18.937  0.00  0.00    +0.000 A 
ATOM     25  H   UNL     1      -5.330  10.778  15.672  0.00  0.00    +0.000 HD
ATOM     26  H   UNL     1      -5.691  12.046  16.863  0.00  0.00    +0.000 HD
ENDBRANCH  17  18
ENDBRANCH  16  17
ENDBRANCH  14  16
ENDBRANCH   1  14
TORSDOF 5
ENDMDL
