MODEL 1
REMARK VINA RESULT:      -6.4      0.000      0.000
REMARK  Name = 
REMARK  7 active torsions:
REMARK  status: ('A' for Active; 'I' for Inactive)
REMARK    1  A    between atoms: C_1  and  C_2
REMARK    2  A    between atoms: C_2  and  O_3
REMARK    3  A    between atoms: O_3  and  C_4
REMARK    4  A    between atoms: C_4  and  C_6
REMARK    5  A    between atoms: N_21  and  C_22
REMARK    6  A    between atoms: C_22  and  C_23
REMARK    7  A    between atoms: C_30  and  C_31
REMARK                            x       y       z     vdW  Elec       q    Type
REMARK                         _______ _______ _______ _____ _____    ______ ____
ROOT
ATOM      1  C   UNL     1      -0.515  11.661  20.277  0.00  0.00    +0.000 C 
ATOM      2  C   UNL     1       0.548  12.704  19.820  0.00  0.00    +0.000 C 
ATOM      3  C   UNL     1       1.626  12.475  18.787  0.00  0.00    +0.000 C 
ATOM      4  O   UNL     1       2.462  13.650  18.694  0.00  0.00    +0.000 OA
ATOM      5  C   UNL     1       1.797  14.849  18.606  0.00  0.00    +0.000 A 
ATOM      6  C   UNL     1       2.554  15.954  18.217  0.00  0.00    +0.000 A 
ATOM      7  C   UNL     1       1.935  17.188  18.008  0.00  0.00    +0.000 A 
ATOM      8  C   UNL     1       0.555  17.306  18.153  0.00  0.00    +0.000 A 
ATOM      9  C   UNL     1      -0.196  16.211  18.577  0.00  0.00    +0.000 A 
ATOM     10  C   UNL     1       0.432  14.995  18.884  0.00  0.00    +0.000 A 
ATOM     11  C   UNL     1      -0.340  13.827  19.393  0.00  0.00    +0.000 C 
ATOM     12  N   UNL     1      -1.181  13.869  20.578  0.00  0.00    +0.000 N 
ATOM     13  C   UNL     1      -1.387  14.958  21.381  0.00  0.00    +0.000 C 
ATOM     14  O   UNL     1      -0.671  15.946  21.450  0.00  0.00    +0.000 OA
ATOM     15  C   UNL     1      -2.605  14.781  22.237  0.00  0.00    +0.000 C 
ATOM     16  N   UNL     1      -3.664  14.205  21.390  0.00  0.00    +0.000 N 
ATOM     17  C   UNL     1      -3.306  12.971  20.608  0.00  0.00    +0.000 C 
ATOM     18  O   UNL     1      -4.142  12.297  20.023  0.00  0.00    +0.000 OA
ATOM     19  C   UNL     1      -1.756  12.512  20.849  0.00  0.00    +0.000 C 
ATOM     20  C   UNL     1      -1.894  11.923  22.289  0.00  0.00    +0.000 C 
ENDROOT
BRANCH   1  21
ATOM     21  C   UNL     1      -0.271  10.307  19.648  0.00  0.00    +0.000 C 
ATOM     22  O   UNL     1       0.288   9.438  20.326  0.00  0.00    +0.000 OA
BRANCH  21  23
ATOM     23  O   UNL     1      -0.568  10.134  18.348  0.00  0.00    +0.000 OA
BRANCH  23  25
ATOM     24  C   UNL     1      -2.375  11.296  17.083  0.00  0.00    +0.000 C 
ATOM     25  C   UNL     1      -1.999  10.211  18.091  0.00  0.00    +0.000 C 
ENDBRANCH  23  25
ENDBRANCH  21  23
ENDBRANCH   1  21
BRANCH  16  26
ATOM     26  C   UNL     1      -5.071  14.625  21.745  0.00  0.00    +0.000 C 
BRANCH  26  27
ATOM     27  C   UNL     1      -5.757  13.937  23.007  0.00  0.00    +0.000 C 
ATOM     28  C   UNL     1      -6.993  14.654  23.562  0.00  0.00    +0.000 C 
ATOM     29  C   UNL     1      -7.697  13.568  24.359  0.00  0.00    +0.000 C 
ATOM     30  C   UNL     1      -7.404  12.322  23.557  0.00  0.00    +0.000 C 
ATOM     31  O   UNL     1      -6.284  12.623  22.714  0.00  0.00    +0.000 OA
ENDBRANCH  26  27
ENDBRANCH  16  26
TORSDOF 5
ENDMDL
MODEL 2
REMARK VINA RESULT:      -6.4      7.920     12.661
REMARK  Name = 
REMARK  7 active torsions:
REMARK  status: ('A' for Active; 'I' for Inactive)
REMARK    1  A    between atoms: C_1  and  C_2
REMARK    2  A    between atoms: C_2  and  O_3
REMARK    3  A    between atoms: O_3  and  C_4
REMARK    4  A    between atoms: C_4  and  C_6
REMARK    5  A    between atoms: N_21  and  C_22
REMARK    6  A    between atoms: C_22  and  C_23
REMARK    7  A    between atoms: C_30  and  C_31
REMARK                            x       y       z     vdW  Elec       q    Type
REMARK                         _______ _______ _______ _____ _____    ______ ____
ROOT
ATOM      1  C   UNL     1       3.457   7.617  18.260  0.00  0.00    +0.000 C 
ATOM      2  C   UNL     1       2.848   6.485  19.140  0.00  0.00    +0.000 C 
ATOM      3  C   UNL     1       1.456   6.471  19.724  0.00  0.00    +0.000 C 
ATOM      4  O   UNL     1       1.289   5.291  20.543  0.00  0.00    +0.000 OA
ATOM      5  C   UNL     1       1.712   4.111  19.981  0.00  0.00    +0.000 A 
ATOM      6  C   UNL     1       1.296   2.937  20.609  0.00  0.00    +0.000 A 
ATOM      7  C   UNL     1       1.599   1.696  20.045  0.00  0.00    +0.000 A 
ATOM      8  C   UNL     1       2.288   1.632  18.837  0.00  0.00    +0.000 A 
ATOM      9  C   UNL     1       2.735   2.804  18.229  0.00  0.00    +0.000 A 
ATOM     10  C   UNL     1       2.520   4.048  18.839  0.00  0.00    +0.000 A 
ATOM     11  C   UNL     1       3.037   5.309  18.238  0.00  0.00    +0.000 C 
ATOM     12  N   UNL     1       4.438   5.536  17.917  0.00  0.00    +0.000 N 
ATOM     13  C   UNL     1       5.462   4.649  18.110  0.00  0.00    +0.000 C 
ATOM     14  O   UNL     1       5.448   3.689  18.866  0.00  0.00    +0.000 OA
ATOM     15  C   UNL     1       6.666   5.024  17.300  0.00  0.00    +0.000 C 
ATOM     16  N   UNL     1       6.197   5.419  15.960  0.00  0.00    +0.000 N 
ATOM     17  C   UNL     1       5.103   6.449  15.906  0.00  0.00    +0.000 C 
ATOM     18  O   UNL     1       4.763   6.993  14.865  0.00  0.00    +0.000 OA
ATOM     19  C   UNL     1       4.626   6.927  17.394  0.00  0.00    +0.000 C 
ATOM     20  C   UNL     1       5.854   7.815  17.773  0.00  0.00    +0.000 C 
ENDROOT
BRANCH   1  21
ATOM     21  C   UNL     1       2.521   8.799  18.150  0.00  0.00    +0.000 C 
ATOM     22  O   UNL     1       2.199   9.190  17.023  0.00  0.00    +0.000 OA
BRANCH  21  23
ATOM     23  O   UNL     1       2.161   9.447  19.272  0.00  0.00    +0.000 OA
BRANCH  23  25
ATOM     24  C   UNL     1      -0.182   9.930  19.974  0.00  0.00    +0.000 C 
ATOM     25  C   UNL     1       0.996  10.298  19.074  0.00  0.00    +0.000 C 
ENDBRANCH  23  25
ENDBRANCH  21  23
ENDBRANCH   1  21
BRANCH  16  26
ATOM     26  C   UNL     1       7.146   5.105  14.829  0.00  0.00    +0.000 C 
BRANCH  26  27
ATOM     27  C   UNL     1       6.734   3.953  13.809  0.00  0.00    +0.000 C 
ATOM     28  C   UNL     1       5.252   3.914  13.418  0.00  0.00    +0.000 C 
ATOM     29  C   UNL     1       5.254   3.118  12.122  0.00  0.00    +0.000 C 
ATOM     30  C   UNL     1       6.560   3.526  11.482  0.00  0.00    +0.000 C 
ATOM     31  O   UNL     1       7.375   4.086  12.520  0.00  0.00    +0.000 OA
ENDBRANCH  26  27
ENDBRANCH  16  26
TORSDOF 5
ENDMDL
MODEL 3
REMARK VINA RESULT:      -6.4      3.010      6.878
REMARK  Name = 
REMARK  7 active torsions:
REMARK  status: ('A' for Active; 'I' for Inactive)
REMARK    1  A    between atoms: C_1  and  C_2
REMARK    2  A    between atoms: C_2  and  O_3
REMARK    3  A    between atoms: O_3  and  C_4
REMARK    4  A    between atoms: C_4  and  C_6
REMARK    5  A    between atoms: N_21  and  C_22
REMARK    6  A    between atoms: C_22  and  C_23
REMARK    7  A    between atoms: C_30  and  C_31
REMARK                            x       y       z     vdW  Elec       q    Type
REMARK                         _______ _______ _______ _____ _____    ______ ____
ROOT
ATOM      1  C   UNL     1      -1.559  12.107  19.369  0.00  0.00    +0.000 C 
ATOM      2  C   UNL     1      -0.680  13.382  19.203  0.00  0.00    +0.000 C 
ATOM      3  C   UNL     1      -1.026  14.766  19.699  0.00  0.00    +0.000 C 
ATOM      4  O   UNL     1       0.000  15.697  19.287  0.00  0.00    +0.000 OA
ATOM      5  C   UNL     1       1.295  15.291  19.507  0.00  0.00    +0.000 A 
ATOM      6  C   UNL     1       2.281  16.272  19.404  0.00  0.00    +0.000 A 
ATOM      7  C   UNL     1       3.608  15.965  19.710  0.00  0.00    +0.000 A 
ATOM      8  C   UNL     1       3.942  14.687  20.153  0.00  0.00    +0.000 A 
ATOM      9  C   UNL     1       2.962  13.698  20.222  0.00  0.00    +0.000 A 
ATOM     10  C   UNL     1       1.646  13.972  19.822  0.00  0.00    +0.000 A 
ATOM     11  C   UNL     1       0.593  12.918  19.832  0.00  0.00    +0.000 C 
ATOM     12  N   UNL     1       0.710  11.654  19.122  0.00  0.00    +0.000 N 
ATOM     13  C   UNL     1       1.774  11.253  18.361  0.00  0.00    +0.000 C 
ATOM     14  O   UNL     1       2.627  11.982  17.878  0.00  0.00    +0.000 OA
ATOM     15  C   UNL     1       1.752   9.771  18.133  0.00  0.00    +0.000 C 
ATOM     16  N   UNL     1       1.401   9.129  19.412  0.00  0.00    +0.000 N 
ATOM     17  C   UNL     1       0.169   9.639  20.105  0.00  0.00    +0.000 C 
ATOM     18  O   UNL     1      -0.329   9.068  21.066  0.00  0.00    +0.000 OA
ATOM     19  C   UNL     1      -0.548  10.856  19.284  0.00  0.00    +0.000 C 
ATOM     20  C   UNL     1      -1.182  10.029  18.121  0.00  0.00    +0.000 C 
ENDROOT
BRANCH   1  21
ATOM     21  C   UNL     1      -2.899  12.433  19.989  0.00  0.00    +0.000 C 
ATOM     22  O   UNL     1      -3.011  12.358  21.218  0.00  0.00    +0.000 OA
BRANCH  21  23
ATOM     23  O   UNL     1      -3.943  12.685  19.180  0.00  0.00    +0.000 OA
BRANCH  23  25
ATOM     24  C   UNL     1      -4.558  11.582  17.030  0.00  0.00    +0.000 C 
ATOM     25  C   UNL     1      -4.462  11.478  18.551  0.00  0.00    +0.000 C 
ENDBRANCH  23  25
ENDBRANCH  21  23
ENDBRANCH   1  21
BRANCH  16  26
ATOM     26  C   UNL     1       2.025   7.773  19.642  0.00  0.00    +0.000 C 
BRANCH  26  27
ATOM     27  C   UNL     1       2.435   6.916  18.364  0.00  0.00    +0.000 C 
ATOM     28  C   UNL     1       3.938   6.839  18.072  0.00  0.00    +0.000 C 
ATOM     29  C   UNL     1       4.058   5.610  17.185  0.00  0.00    +0.000 C 
ATOM     30  C   UNL     1       2.986   4.697  17.732  0.00  0.00    +0.000 C 
ATOM     31  O   UNL     1       2.087   5.518  18.489  0.00  0.00    +0.000 OA
ENDBRANCH  26  27
ENDBRANCH  16  26
TORSDOF 5
ENDMDL
MODEL 4
REMARK VINA RESULT:      -6.3      2.953      7.011
REMARK  Name = 
REMARK  7 active torsions:
REMARK  status: ('A' for Active; 'I' for Inactive)
REMARK    1  A    between atoms: C_1  and  C_2
REMARK    2  A    between atoms: C_2  and  O_3
REMARK    3  A    between atoms: O_3  and  C_4
REMARK    4  A    between atoms: C_4  and  C_6
REMARK    5  A    between atoms: N_21  and  C_22
REMARK    6  A    between atoms: C_22  and  C_23
REMARK    7  A    between atoms: C_30  and  C_31
REMARK                            x       y       z     vdW  Elec       q    Type
REMARK                         _______ _______ _______ _____ _____    ______ ____
ROOT
ATOM      1  C   UNL     1      -1.484  12.201  19.432  0.00  0.00    +0.000 C 
ATOM      2  C   UNL     1      -0.593  13.465  19.246  0.00  0.00    +0.000 C 
ATOM      3  C   UNL     1      -0.910  14.853  19.749  0.00  0.00    +0.000 C 
ATOM      4  O   UNL     1       0.119  15.770  19.313  0.00  0.00    +0.000 OA
ATOM      5  C   UNL     1       1.412  15.348  19.504  0.00  0.00    +0.000 A 
ATOM      6  C   UNL     1       2.409  16.316  19.378  0.00  0.00    +0.000 A 
ATOM      7  C   UNL     1       3.738  15.992  19.653  0.00  0.00    +0.000 A 
ATOM      8  C   UNL     1       4.066  14.710  20.089  0.00  0.00    +0.000 A 
ATOM      9  C   UNL     1       3.075  13.734  20.181  0.00  0.00    +0.000 A 
ATOM     10  C   UNL     1       1.754  14.025  19.811  0.00  0.00    +0.000 A 
ATOM     11  C   UNL     1       0.688  12.984  19.846  0.00  0.00    +0.000 C 
ATOM     12  N   UNL     1       0.772  11.719  19.134  0.00  0.00    +0.000 N 
ATOM     13  C   UNL     1       1.813  11.304  18.348  0.00  0.00    +0.000 C 
ATOM     14  O   UNL     1       2.665  12.023  17.845  0.00  0.00    +0.000 OA
ATOM     15  C   UNL     1       1.768   9.823  18.122  0.00  0.00    +0.000 C 
ATOM     16  N   UNL     1       1.438   9.185  19.408  0.00  0.00    +0.000 N 
ATOM     17  C   UNL     1       0.228   9.711  20.130  0.00  0.00    +0.000 C 
ATOM     18  O   UNL     1      -0.255   9.147  21.102  0.00  0.00    +0.000 OA
ATOM     19  C   UNL     1      -0.492  10.937  19.324  0.00  0.00    +0.000 C 
ATOM     20  C   UNL     1      -1.162  10.118  18.176  0.00  0.00    +0.000 C 
ENDROOT
BRANCH   1  21
ATOM     21  C   UNL     1      -2.805  12.544  20.083  0.00  0.00    +0.000 C 
ATOM     22  O   UNL     1      -3.845  12.318  19.454  0.00  0.00    +0.000 OA
BRANCH  21  23
ATOM     23  O   UNL     1      -2.798  13.180  21.267  0.00  0.00    +0.000 OA
BRANCH  23  25
ATOM     24  C   UNL     1      -1.360  12.096  22.992  0.00  0.00    +0.000 C 
ATOM     25  C   UNL     1      -2.757  12.257  22.393  0.00  0.00    +0.000 C 
ENDBRANCH  23  25
ENDBRANCH  21  23
ENDBRANCH   1  21
BRANCH  16  26
ATOM     26  C   UNL     1       2.050   7.822  19.625  0.00  0.00    +0.000 C 
BRANCH  26  27
ATOM     27  C   UNL     1       2.481   6.987  18.338  0.00  0.00    +0.000 C 
ATOM     28  C   UNL     1       3.989   6.915  18.071  0.00  0.00    +0.000 C 
ATOM     29  C   UNL     1       4.124   5.702  17.165  0.00  0.00    +0.000 C 
ATOM     30  C   UNL     1       3.043   4.780  17.677  0.00  0.00    +0.000 C 
ATOM     31  O   UNL     1       2.131   5.587  18.433  0.00  0.00    +0.000 OA
ENDBRANCH  26  27
ENDBRANCH  16  26
TORSDOF 5
ENDMDL
MODEL 5
REMARK VINA RESULT:      -6.2      1.265      1.449
REMARK  Name = 
REMARK  7 active torsions:
REMARK  status: ('A' for Active; 'I' for Inactive)
REMARK    1  A    between atoms: C_1  and  C_2
REMARK    2  A    between atoms: C_2  and  O_3
REMARK    3  A    between atoms: O_3  and  C_4
REMARK    4  A    between atoms: C_4  and  C_6
REMARK    5  A    between atoms: N_21  and  C_22
REMARK    6  A    between atoms: C_22  and  C_23
REMARK    7  A    between atoms: C_30  and  C_31
REMARK                            x       y       z     vdW  Elec       q    Type
REMARK                         _______ _______ _______ _____ _____    ______ ____
ROOT
ATOM      1  C   UNL     1       0.146  11.621  20.157  0.00  0.00    +0.000 C 
ATOM      2  C   UNL     1       1.308  12.485  19.582  0.00  0.00    +0.000 C 
ATOM      3  C   UNL     1       2.178  12.125  18.402  0.00  0.00    +0.000 C 
ATOM      4  O   UNL     1       3.191  13.140  18.223  0.00  0.00    +0.000 OA
ATOM      5  C   UNL     1       2.746  14.440  18.261  0.00  0.00    +0.000 A 
ATOM      6  C   UNL     1       3.630  15.415  17.799  0.00  0.00    +0.000 A 
ATOM      7  C   UNL     1       3.219  16.746  17.711  0.00  0.00    +0.000 A 
ATOM      8  C   UNL     1       1.915  17.096  18.053  0.00  0.00    +0.000 A 
ATOM      9  C   UNL     1       1.044  16.127  18.549  0.00  0.00    +0.000 A 
ATOM     10  C   UNL     1       1.479  14.806  18.732  0.00  0.00    +0.000 A 
ATOM     11  C   UNL     1       0.586  13.766  19.314  0.00  0.00    +0.000 C 
ATOM     12  N   UNL     1      -0.068  13.893  20.607  0.00  0.00    +0.000 N 
ATOM     13  C   UNL     1       0.035  14.959  21.459  0.00  0.00    +0.000 C 
ATOM     14  O   UNL     1       0.919  15.803  21.452  0.00  0.00    +0.000 OA
ATOM     15  C   UNL     1      -1.070  14.953  22.473  0.00  0.00    +0.000 C 
ATOM     16  N   UNL     1      -2.319  14.613  21.769  0.00  0.00    +0.000 N 
ATOM     17  C   UNL     1      -2.295  13.378  20.913  0.00  0.00    +0.000 C 
ATOM     18  O   UNL     1      -3.309  12.890  20.433  0.00  0.00    +0.000 OA
ATOM     19  C   UNL     1      -0.834  12.645  20.920  0.00  0.00    +0.000 C 
ATOM     20  C   UNL     1      -0.882  12.016  22.349  0.00  0.00    +0.000 C 
ENDROOT
BRANCH   1  21
ATOM     21  C   UNL     1       0.057  10.280  19.464  0.00  0.00    +0.000 C 
ATOM     22  O   UNL     1       0.613   9.310  19.991  0.00  0.00    +0.000 OA
BRANCH  21  23
ATOM     23  O   UNL     1      -0.526  10.213  18.254  0.00  0.00    +0.000 OA
BRANCH  23  25
ATOM     24  C   UNL     1      -2.671   9.910  17.020  0.00  0.00    +0.000 C 
ATOM     25  C   UNL     1      -1.979  10.272  18.333  0.00  0.00    +0.000 C 
ENDBRANCH  23  25
ENDBRANCH  21  23
ENDBRANCH   1  21
BRANCH  16  26
ATOM     26  C   UNL     1      -3.567  15.253  22.330  0.00  0.00    +0.000 C 
BRANCH  26  27
ATOM     27  C   UNL     1      -4.328  14.494  23.505  0.00  0.00    +0.000 C 
ATOM     28  C   UNL     1      -5.548  13.669  23.079  0.00  0.00    +0.000 C 
ATOM     29  C   UNL     1      -5.734  12.700  24.236  0.00  0.00    +0.000 C 
ATOM     30  C   UNL     1      -4.315  12.434  24.680  0.00  0.00    +0.000 C 
ATOM     31  O   UNL     1      -3.508  13.495  24.153  0.00  0.00    +0.000 OA
ENDBRANCH  26  27
ENDBRANCH  16  26
TORSDOF 5
ENDMDL
MODEL 6
REMARK VINA RESULT:      -6.1      0.928      1.029
REMARK  Name = 
REMARK  7 active torsions:
REMARK  status: ('A' for Active; 'I' for Inactive)
REMARK    1  A    between atoms: C_1  and  C_2
REMARK    2  A    between atoms: C_2  and  O_3
REMARK    3  A    between atoms: O_3  and  C_4
REMARK    4  A    between atoms: C_4  and  C_6
REMARK    5  A    between atoms: N_21  and  C_22
REMARK    6  A    between atoms: C_22  and  C_23
REMARK    7  A    between atoms: C_30  and  C_31
REMARK                            x       y       z     vdW  Elec       q    Type
REMARK                         _______ _______ _______ _____ _____    ______ ____
ROOT
ATOM      1  C   UNL     1       0.063  12.553  21.148  0.00  0.00    +0.000 C 
ATOM      2  C   UNL     1       0.916  13.661  20.462  0.00  0.00    +0.000 C 
ATOM      3  C   UNL     1       2.084  13.431  19.533  0.00  0.00    +0.000 C 
ATOM      4  O   UNL     1       2.664  14.703  19.163  0.00  0.00    +0.000 OA
ATOM      5  C   UNL     1       1.772  15.672  18.771  0.00  0.00    +0.000 A 
ATOM      6  C   UNL     1       2.308  16.789  18.130  0.00  0.00    +0.000 A 
ATOM      7  C   UNL     1       1.463  17.771  17.612  0.00  0.00    +0.000 A 
ATOM      8  C   UNL     1       0.082  17.619  17.703  0.00  0.00    +0.000 A 
ATOM      9  C   UNL     1      -0.453  16.520  18.375  0.00  0.00    +0.000 A 
ATOM     10  C   UNL     1       0.391  15.580  18.983  0.00  0.00    +0.000 A 
ATOM     11  C   UNL     1      -0.155  14.429  19.755  0.00  0.00    +0.000 C 
ATOM     12  N   UNL     1      -1.065  14.570  20.881  0.00  0.00    +0.000 N 
ATOM     13  C   UNL     1      -1.546  15.748  21.385  0.00  0.00    +0.000 C 
ATOM     14  O   UNL     1      -1.056  16.855  21.216  0.00  0.00    +0.000 OA
ATOM     15  C   UNL     1      -2.756  15.521  22.240  0.00  0.00    +0.000 C 
ATOM     16  N   UNL     1      -3.613  14.542  21.547  0.00  0.00    +0.000 N 
ATOM     17  C   UNL     1      -2.955  13.266  21.102  0.00  0.00    +0.000 C 
ATOM     18  O   UNL     1      -3.592  12.306  20.691  0.00  0.00    +0.000 OA
ATOM     19  C   UNL     1      -1.363  13.226  21.472  0.00  0.00    +0.000 C 
ATOM     20  C   UNL     1      -1.474  12.984  23.011  0.00  0.00    +0.000 C 
ENDROOT
BRANCH   1  21
ATOM     21  C   UNL     1       0.624  11.175  20.879  0.00  0.00    +0.000 C 
ATOM     22  O   UNL     1       1.273  10.621  21.773  0.00  0.00    +0.000 OA
BRANCH  21  23
ATOM     23  O   UNL     1       0.491  10.651  19.648  0.00  0.00    +0.000 OA
BRANCH  23  25
ATOM     24  C   UNL     1      -1.454  11.044  18.139  0.00  0.00    +0.000 C 
ATOM     25  C   UNL     1      -0.887  10.292  19.342  0.00  0.00    +0.000 C 
ENDBRANCH  23  25
ENDBRANCH  21  23
ENDBRANCH   1  21
BRANCH  16  26
ATOM     26  C   UNL     1      -5.097  14.720  21.766  0.00  0.00    +0.000 C 
BRANCH  26  27
ATOM     27  C   UNL     1      -5.746  14.038  23.052  0.00  0.00    +0.000 C 
ATOM     28  C   UNL     1      -7.033  14.691  23.568  0.00  0.00    +0.000 C 
ATOM     29  C   UNL     1      -7.669  13.592  24.405  0.00  0.00    +0.000 C 
ATOM     30  C   UNL     1      -7.284  12.338  23.657  0.00  0.00    +0.000 C 
ATOM     31  O   UNL     1      -6.180  12.680  22.809  0.00  0.00    +0.000 OA
ENDBRANCH  26  27
ENDBRANCH  16  26
TORSDOF 5
ENDMDL
MODEL 7
REMARK VINA RESULT:      -6.1      8.164     10.717
REMARK  Name = 
REMARK  7 active torsions:
REMARK  status: ('A' for Active; 'I' for Inactive)
REMARK    1  A    between atoms: C_1  and  C_2
REMARK    2  A    between atoms: C_2  and  O_3
REMARK    3  A    between atoms: O_3  and  C_4
REMARK    4  A    between atoms: C_4  and  C_6
REMARK    5  A    between atoms: N_21  and  C_22
REMARK    6  A    between atoms: C_22  and  C_23
REMARK    7  A    between atoms: C_30  and  C_31
REMARK                            x       y       z     vdW  Elec       q    Type
REMARK                         _______ _______ _______ _____ _____    ______ ____
ROOT
ATOM      1  C   UNL     1       6.912  15.016  20.773  0.00  0.00    +0.000 C 
ATOM      2  C   UNL     1       7.822  14.332  19.711  0.00  0.00    +0.000 C 
ATOM      3  C   UNL     1       8.337  14.971  18.443  0.00  0.00    +0.000 C 
ATOM      4  O   UNL     1       9.084  13.996  17.681  0.00  0.00    +0.000 OA
ATOM      5  C   UNL     1      10.001  13.259  18.392  0.00  0.00    +0.000 A 
ATOM      6  C   UNL     1      10.933  12.538  17.647  0.00  0.00    +0.000 A 
ATOM      7  C   UNL     1      11.959  11.844  18.291  0.00  0.00    +0.000 A 
ATOM      8  C   UNL     1      12.071  11.901  19.679  0.00  0.00    +0.000 A 
ATOM      9  C   UNL     1      11.118  12.592  20.425  0.00  0.00    +0.000 A 
ATOM     10  C   UNL     1      10.030  13.209  19.791  0.00  0.00    +0.000 A 
ATOM     11  C   UNL     1       8.968  13.905  20.570  0.00  0.00    +0.000 C 
ATOM     12  N   UNL     1       8.193  13.271  21.625  0.00  0.00    +0.000 N 
ATOM     13  C   UNL     1       8.320  11.976  22.049  0.00  0.00    +0.000 C 
ATOM     14  O   UNL     1       8.836  11.061  21.424  0.00  0.00    +0.000 OA
ATOM     15  C   UNL     1       7.689  11.781  23.395  0.00  0.00    +0.000 C 
ATOM     16  N   UNL     1       8.062  12.934  24.233  0.00  0.00    +0.000 N 
ATOM     17  C   UNL     1       7.809  14.297  23.654  0.00  0.00    +0.000 C 
ATOM     18  O   UNL     1       7.897  15.321  24.317  0.00  0.00    +0.000 OA
ATOM     19  C   UNL     1       7.166  14.225  22.153  0.00  0.00    +0.000 C 
ATOM     20  C   UNL     1       5.715  13.786  22.527  0.00  0.00    +0.000 C 
ENDROOT
BRANCH   1  21
ATOM     21  C   UNL     1       6.478  16.394  20.327  0.00  0.00    +0.000 C 
ATOM     22  O   UNL     1       7.299  17.315  20.387  0.00  0.00    +0.000 OA
BRANCH  21  23
ATOM     23  O   UNL     1       5.191  16.590  19.988  0.00  0.00    +0.000 OA
BRANCH  23  25
ATOM     24  C   UNL     1       4.172  15.617  17.931  0.00  0.00    +0.000 C 
ATOM     25  C   UNL     1       5.012  16.733  18.550  0.00  0.00    +0.000 C 
ENDBRANCH  23  25
ENDBRANCH  21  23
ENDBRANCH   1  21
BRANCH  16  26
ATOM     26  C   UNL     1       8.216  12.634  25.706  0.00  0.00    +0.000 C 
BRANCH  26  27
ATOM     27  C   UNL     1       7.020  11.881  26.441  0.00  0.00    +0.000 C 
ATOM     28  C   UNL     1       7.071  11.894  27.973  0.00  0.00    +0.000 C 
ATOM     29  C   UNL     1       5.636  11.593  28.372  0.00  0.00    +0.000 C 
ATOM     30  C   UNL     1       4.837  12.269  27.282  0.00  0.00    +0.000 C 
ATOM     31  O   UNL     1       5.732  12.484  26.183  0.00  0.00    +0.000 OA
ENDBRANCH  26  27
ENDBRANCH  16  26
TORSDOF 5
ENDMDL
MODEL 8
REMARK VINA RESULT:      -6.0      1.297      1.754
REMARK  Name = 
REMARK  7 active torsions:
REMARK  status: ('A' for Active; 'I' for Inactive)
REMARK    1  A    between atoms: C_1  and  C_2
REMARK    2  A    between atoms: C_2  and  O_3
REMARK    3  A    between atoms: O_3  and  C_4
REMARK    4  A    between atoms: C_4  and  C_6
REMARK    5  A    between atoms: N_21  and  C_22
REMARK    6  A    between atoms: C_22  and  C_23
REMARK    7  A    between atoms: C_30  and  C_31
REMARK                            x       y       z     vdW  Elec       q    Type
REMARK                         _______ _______ _______ _____ _____    ______ ____
ROOT
ATOM      1  C   UNL     1       0.116  11.391  19.645  0.00  0.00    +0.000 C 
ATOM      2  C   UNL     1       1.224  12.435  19.311  0.00  0.00    +0.000 C 
ATOM      3  C   UNL     1       2.254  12.312  18.213  0.00  0.00    +0.000 C 
ATOM      4  O   UNL     1       3.154  13.441  18.268  0.00  0.00    +0.000 OA
ATOM      5  C   UNL     1       2.557  14.673  18.391  0.00  0.00    +0.000 A 
ATOM      6  C   UNL     1       3.365  15.783  18.146  0.00  0.00    +0.000 A 
ATOM      7  C   UNL     1       2.813  17.066  18.151  0.00  0.00    +0.000 A 
ATOM      8  C   UNL     1       1.447  17.233  18.368  0.00  0.00    +0.000 A 
ATOM      9  C   UNL     1       0.648  16.126  18.648  0.00  0.00    +0.000 A 
ATOM     10  C   UNL     1       1.213  14.846  18.741  0.00  0.00    +0.000 A 
ATOM     11  C   UNL     1       0.390  13.656  19.095  0.00  0.00    +0.000 C 
ATOM     12  N   UNL     1      -0.411  13.559  20.306  0.00  0.00    +0.000 N 
ATOM     13  C   UNL     1      -0.528  14.520  21.273  0.00  0.00    +0.000 C 
ATOM     14  O   UNL     1       0.247  15.446  21.463  0.00  0.00    +0.000 OA
ATOM     15  C   UNL     1      -1.728  14.277  22.139  0.00  0.00    +0.000 C 
ATOM     16  N   UNL     1      -2.844  13.896  21.256  0.00  0.00    +0.000 N 
ATOM     17  C   UNL     1      -2.582  12.781  20.282  0.00  0.00    +0.000 C 
ATOM     18  O   UNL     1      -3.474  12.250  19.633  0.00  0.00    +0.000 OA
ATOM     19  C   UNL     1      -1.055  12.209  20.388  0.00  0.00    +0.000 C 
ATOM     20  C   UNL     1      -1.183  11.412  21.726  0.00  0.00    +0.000 C 
ENDROOT
BRANCH   1  21
ATOM     21  C   UNL     1       0.262  10.141  18.807  0.00  0.00    +0.000 C 
ATOM     22  O   UNL     1      -0.549   9.948  17.895  0.00  0.00    +0.000 OA
BRANCH  21  23
ATOM     23  O   UNL     1       1.194   9.235  19.152  0.00  0.00    +0.000 OA
BRANCH  23  25
ATOM     24  C   UNL     1       2.653   7.402  18.300  0.00  0.00    +0.000 C 
ATOM     25  C   UNL     1       1.897   8.694  17.998  0.00  0.00    +0.000 C 
ENDBRANCH  23  25
ENDBRANCH  21  23
ENDBRANCH   1  21
BRANCH  16  26
ATOM     26  C   UNL     1      -4.212  14.330  21.726  0.00  0.00    +0.000 C 
BRANCH  26  27
ATOM     27  C   UNL     1      -5.107  13.262  22.497  0.00  0.00    +0.000 C 
ATOM     28  C   UNL     1      -5.869  13.792  23.717  0.00  0.00    +0.000 C 
ATOM     29  C   UNL     1      -6.973  12.766  23.912  0.00  0.00    +0.000 C 
ATOM     30  C   UNL     1      -7.297  12.350  22.497  0.00  0.00    +0.000 C 
ATOM     31  O   UNL     1      -6.183  12.738  21.683  0.00  0.00    +0.000 OA
ENDBRANCH  26  27
ENDBRANCH  16  26
TORSDOF 5
ENDMDL
MODEL 9
REMARK VINA RESULT:      -6.0      6.696     11.267
REMARK  Name = 
REMARK  7 active torsions:
REMARK  status: ('A' for Active; 'I' for Inactive)
REMARK    1  A    between atoms: C_1  and  C_2
REMARK    2  A    between atoms: C_2  and  O_3
REMARK    3  A    between atoms: O_3  and  C_4
REMARK    4  A    between atoms: C_4  and  C_6
REMARK    5  A    between atoms: N_21  and  C_22
REMARK    6  A    between atoms: C_22  and  C_23
REMARK    7  A    between atoms: C_30  and  C_31
REMARK                            x       y       z     vdW  Elec       q    Type
REMARK                         _______ _______ _______ _____ _____    ______ ____
ROOT
ATOM      1  C   UNL     1       5.223  16.179  20.312  0.00  0.00    +0.000 C 
ATOM      2  C   UNL     1       5.253  15.565  21.743  0.00  0.00    +0.000 C 
ATOM      3  C   UNL     1       4.051  15.110  22.536  0.00  0.00    +0.000 C 
ATOM      4  O   UNL     1       4.475  14.671  23.846  0.00  0.00    +0.000 OA
ATOM      5  C   UNL     1       5.559  13.827  23.869  0.00  0.00    +0.000 A 
ATOM      6  C   UNL     1       5.802  13.157  25.069  0.00  0.00    +0.000 A 
ATOM      7  C   UNL     1       6.822  12.207  25.146  0.00  0.00    +0.000 A 
ATOM      8  C   UNL     1       7.576  11.903  24.015  0.00  0.00    +0.000 A 
ATOM      9  C   UNL     1       7.356  12.598  22.827  0.00  0.00    +0.000 A 
ATOM     10  C   UNL     1       6.400  13.622  22.768  0.00  0.00    +0.000 A 
ATOM     11  C   UNL     1       6.187  14.419  21.528  0.00  0.00    +0.000 C 
ATOM     12  N   UNL     1       7.242  15.154  20.849  0.00  0.00    +0.000 N 
ATOM     13  C   UNL     1       8.553  15.223  21.235  0.00  0.00    +0.000 C 
ATOM     14  O   UNL     1       8.987  14.979  22.351  0.00  0.00    +0.000 OA
ATOM     15  C   UNL     1       9.427  15.695  20.112  0.00  0.00    +0.000 C 
ATOM     16  N   UNL     1       8.993  15.001  18.887  0.00  0.00    +0.000 N 
ATOM     17  C   UNL     1       7.527  15.062  18.562  0.00  0.00    +0.000 C 
ATOM     18  O   UNL     1       7.075  14.692  17.487  0.00  0.00    +0.000 OA
ATOM     19  C   UNL     1       6.677  15.900  19.678  0.00  0.00    +0.000 C 
ATOM     20  C   UNL     1       7.128  17.346  19.297  0.00  0.00    +0.000 C 
ENDROOT
BRANCH   1  21
ATOM     21  C   UNL     1       3.806  16.396  19.831  0.00  0.00    +0.000 C 
ATOM     22  O   UNL     1       3.376  17.553  19.777  0.00  0.00    +0.000 OA
BRANCH  21  23
ATOM     23  O   UNL     1       3.034  15.323  19.585  0.00  0.00    +0.000 OA
BRANCH  23  25
ATOM     24  C   UNL     1       2.742  13.235  18.253  0.00  0.00    +0.000 C 
ATOM     25  C   UNL     1       3.524  14.531  18.465  0.00  0.00    +0.000 C 
ENDBRANCH  23  25
ENDBRANCH  21  23
ENDBRANCH   1  21
BRANCH  16  26
ATOM     26  C   UNL     1      10.090  14.713  17.890  0.00  0.00    +0.000 C 
BRANCH  26  27
ATOM     27  C   UNL     1      10.794  13.285  17.950  0.00  0.00    +0.000 C 
ATOM     28  C   UNL     1      11.963  13.165  18.935  0.00  0.00    +0.000 C 
ATOM     29  C   UNL     1      12.080  11.665  19.155  0.00  0.00    +0.000 C 
ATOM     30  C   UNL     1      10.645  11.203  19.075  0.00  0.00    +0.000 C 
ATOM     31  O   UNL     1       9.909  12.240  18.415  0.00  0.00    +0.000 OA
ENDBRANCH  26  27
ENDBRANCH  16  26
TORSDOF 5
ENDMDL
