MODEL 1
REMARK VINA RESULT:      -7.6      0.000      0.000
REMARK  Name = 
REMARK  9 active torsions:
REMARK  status: ('A' for Active; 'I' for Inactive)
REMARK    1  A    between atoms: C_1  and  C_2
REMARK    2  A    between atoms: C_2  and  C_3
REMARK    3  A    between atoms: C_3  and  N_4
REMARK    4  A    between atoms: N_6  and  C_7
REMARK    5  A    between atoms: C_7  and  C_8
REMARK    6  A    between atoms: C_8  and  C_9
REMARK    7  A    between atoms: N_12  and  C_13
REMARK    8  A    between atoms: C_13  and  C_14
REMARK    9  A    between atoms: N_22  and  C_23
REMARK                            x       y       z     vdW  Elec       q    Type
REMARK                         _______ _______ _______ _____ _____    ______ ____
ROOT
ATOM      1  N   UNL     1       6.037   4.017  17.551  0.00  0.00    +0.000 N 
ATOM      2  C   UNL     1       4.700   4.286  17.664  0.00  0.00    +0.000 C 
ATOM      3  N   UNL     1       4.008   5.347  17.474  0.00  0.00    +0.000 NA
ATOM      4  N   UNL     1       4.078   3.130  18.061  0.00  0.00    +0.000 N 
ATOM      5  H   UNL     1       6.356   3.121  17.893  0.00  0.00    +0.000 HD
ATOM      6  H   UNL     1       4.415   2.252  17.699  0.00  0.00    +0.000 HD
ENDROOT
BRANCH   4   7
ATOM      7  C   UNL     1       3.048   3.042  19.009  0.00  0.00    +0.000 A 
ATOM      8  C   UNL     1       3.363   2.902  20.366  0.00  0.00    +0.000 A 
ATOM      9  C   UNL     1       2.352   2.764  21.320  0.00  0.00    +0.000 A 
ATOM     10  C   UNL     1       1.013   2.772  20.930  0.00  0.00    +0.000 A 
ATOM     11  C   UNL     1       0.686   2.902  19.585  0.00  0.00    +0.000 A 
ATOM     12  C   UNL     1       1.697   3.017  18.631  0.00  0.00    +0.000 A 
ENDBRANCH   4   7
BRANCH   1  13
ATOM     13  C   UNL     1       7.050   4.836  16.958  0.00  0.00    +0.000 C 
BRANCH  13  15
ATOM     14  C   UNL     1       7.660   7.141  17.771  0.00  0.00    +0.000 C 
ATOM     15  C   UNL     1       7.835   5.648  17.975  0.00  0.00    +0.000 C 
ENDBRANCH  13  15
ENDBRANCH   1  13
BRANCH   3  16
ATOM     16  C   UNL     1       4.493   6.678  17.157  0.00  0.00    +0.000 C 
BRANCH  16  17
ATOM     17  C   UNL     1       3.671   7.768  17.861  0.00  0.00    +0.000 C 
BRANCH  17  18
ATOM     18  C   UNL     1       2.216   7.333  18.185  0.00  0.00    +0.000 C 
ATOM     19  C   UNL     1       1.178   8.336  17.657  0.00  0.00    +0.000 C 
ATOM     20  C   UNL     1       1.145   9.637  18.471  0.00  0.00    +0.000 C 
ATOM     21  N   UNL     1       0.900   9.431  19.913  0.00  0.00    +0.000 NA
ATOM     22  C   UNL     1       1.820   8.432  20.465  0.00  0.00    +0.000 C 
ATOM     23  C   UNL     1       1.909   7.125  19.673  0.00  0.00    +0.000 C 
BRANCH  21  24
ATOM     24  C   UNL     1       1.093  10.732  20.611  0.00  0.00    +0.000 C 
BRANCH  24  25
ATOM     25  C   UNL     1      -0.119  11.258  21.361  0.00  0.00    +0.000 A 
ATOM     26  C   UNL     1      -0.873  12.332  20.850  0.00  0.00    +0.000 A 
ATOM     27  C   UNL     1      -2.004  12.792  21.526  0.00  0.00    +0.000 A 
ATOM     28  C   UNL     1      -2.393  12.193  22.721  0.00  0.00    +0.000 A 
ATOM     29  C   UNL     1      -1.647  11.135  23.245  0.00  0.00    +0.000 A 
ATOM     30  C   UNL     1      -0.516  10.672  22.570  0.00  0.00    +0.000 A 
ENDBRANCH  24  25
ENDBRANCH  21  24
ENDBRANCH  17  18
ENDBRANCH  16  17
ENDBRANCH   3  16
TORSDOF 8
ENDMDL
MODEL 2
REMARK VINA RESULT:      -7.5      1.320      2.313
REMARK  Name = 
REMARK  9 active torsions:
REMARK  status: ('A' for Active; 'I' for Inactive)
REMARK    1  A    between atoms: C_1  and  C_2
REMARK    2  A    between atoms: C_2  and  C_3
REMARK    3  A    between atoms: C_3  and  N_4
REMARK    4  A    between atoms: N_6  and  C_7
REMARK    5  A    between atoms: C_7  and  C_8
REMARK    6  A    between atoms: C_8  and  C_9
REMARK    7  A    between atoms: N_12  and  C_13
REMARK    8  A    between atoms: C_13  and  C_14
REMARK    9  A    between atoms: N_22  and  C_23
REMARK                            x       y       z     vdW  Elec       q    Type
REMARK                         _______ _______ _______ _____ _____    ______ ____
ROOT
ATOM      1  N   UNL     1       5.264   6.014  17.659  0.00  0.00    +0.000 N 
ATOM      2  C   UNL     1       3.923   5.831  17.861  0.00  0.00    +0.000 C 
ATOM      3  N   UNL     1       2.931   6.639  17.891  0.00  0.00    +0.000 NA
ATOM      4  N   UNL     1       3.714   4.489  18.056  0.00  0.00    +0.000 N 
ATOM      5  H   UNL     1       5.866   5.217  17.819  0.00  0.00    +0.000 HD
ATOM      6  H   UNL     1       4.266   3.832  17.528  0.00  0.00    +0.000 HD
ENDROOT
BRANCH   4   7
ATOM      7  C   UNL     1       2.844   3.928  19.003  0.00  0.00    +0.000 A 
ATOM      8  C   UNL     1       1.666   3.300  18.578  0.00  0.00    +0.000 A 
ATOM      9  C   UNL     1       0.764   2.779  19.507  0.00  0.00    +0.000 A 
ATOM     10  C   UNL     1       1.030   2.872  20.873  0.00  0.00    +0.000 A 
ATOM     11  C   UNL     1       2.192   3.500  21.309  0.00  0.00    +0.000 A 
ATOM     12  C   UNL     1       3.082   4.040  20.381  0.00  0.00    +0.000 A 
ENDBRANCH   4   7
BRANCH   1  13
ATOM     13  C   UNL     1       5.929   7.193  17.197  0.00  0.00    +0.000 C 
BRANCH  13  15
ATOM     14  C   UNL     1       7.981   8.553  17.731  0.00  0.00    +0.000 C 
ATOM     15  C   UNL     1       7.430   7.170  17.442  0.00  0.00    +0.000 C 
ENDBRANCH  13  15
ENDBRANCH   1  13
BRANCH   3  16
ATOM     16  C   UNL     1       2.964   8.088  17.811  0.00  0.00    +0.000 C 
BRANCH  16  17
ATOM     17  C   UNL     1       1.882   8.734  18.689  0.00  0.00    +0.000 C 
BRANCH  17  18
ATOM     18  C   UNL     1       1.172   9.937  18.011  0.00  0.00    +0.000 C 
ATOM     19  C   UNL     1       1.705  11.287  18.519  0.00  0.00    +0.000 C 
ATOM     20  C   UNL     1       1.243  11.607  19.946  0.00  0.00    +0.000 C 
ATOM     21  N   UNL     1      -0.225  11.595  20.115  0.00  0.00    +0.000 NA
ATOM     22  C   UNL     1      -0.804  10.356  19.589  0.00  0.00    +0.000 C 
ATOM     23  C   UNL     1      -0.352   9.978  18.175  0.00  0.00    +0.000 C 
BRANCH  21  24
ATOM     24  C   UNL     1      -0.531  11.717  21.567  0.00  0.00    +0.000 C 
BRANCH  24  25
ATOM     25  C   UNL     1      -1.913  12.249  21.901  0.00  0.00    +0.000 A 
ATOM     26  C   UNL     1      -2.677  12.928  20.933  0.00  0.00    +0.000 A 
ATOM     27  C   UNL     1      -3.961  13.389  21.233  0.00  0.00    +0.000 A 
ATOM     28  C   UNL     1      -4.494  13.183  22.503  0.00  0.00    +0.000 A 
ATOM     29  C   UNL     1      -3.742  12.522  23.476  0.00  0.00    +0.000 A 
ATOM     30  C   UNL     1      -2.459  12.060  23.177  0.00  0.00    +0.000 A 
ENDBRANCH  24  25
ENDBRANCH  21  24
ENDBRANCH  17  18
ENDBRANCH  16  17
ENDBRANCH   3  16
TORSDOF 8
ENDMDL
MODEL 3
REMARK VINA RESULT:      -7.5      1.279      2.098
REMARK  Name = 
REMARK  9 active torsions:
REMARK  status: ('A' for Active; 'I' for Inactive)
REMARK    1  A    between atoms: C_1  and  C_2
REMARK    2  A    between atoms: C_2  and  C_3
REMARK    3  A    between atoms: C_3  and  N_4
REMARK    4  A    between atoms: N_6  and  C_7
REMARK    5  A    between atoms: C_7  and  C_8
REMARK    6  A    between atoms: C_8  and  C_9
REMARK    7  A    between atoms: N_12  and  C_13
REMARK    8  A    between atoms: C_13  and  C_14
REMARK    9  A    between atoms: N_22  and  C_23
REMARK                            x       y       z     vdW  Elec       q    Type
REMARK                         _______ _______ _______ _____ _____    ______ ____
ROOT
ATOM      1  N   UNL     1       5.239   5.923  17.556  0.00  0.00    +0.000 N 
ATOM      2  C   UNL     1       3.898   5.783  17.788  0.00  0.00    +0.000 C 
ATOM      3  N   UNL     1       2.932   6.623  17.835  0.00  0.00    +0.000 NA
ATOM      4  N   UNL     1       3.651   4.450  17.995  0.00  0.00    +0.000 N 
ATOM      5  H   UNL     1       5.819   5.109  17.708  0.00  0.00    +0.000 HD
ATOM      6  H   UNL     1       4.171   3.774  17.459  0.00  0.00    +0.000 HD
ENDROOT
BRANCH   4   7
ATOM      7  C   UNL     1       2.785   3.921  18.964  0.00  0.00    +0.000 A 
ATOM      8  C   UNL     1       3.192   3.862  20.302  0.00  0.00    +0.000 A 
ATOM      9  C   UNL     1       2.363   3.296  21.273  0.00  0.00    +0.000 A 
ATOM     10  C   UNL     1       1.113   2.787  20.919  0.00  0.00    +0.000 A 
ATOM     11  C   UNL     1       0.700   2.832  19.592  0.00  0.00    +0.000 A 
ATOM     12  C   UNL     1       1.537   3.378  18.620  0.00  0.00    +0.000 A 
ENDBRANCH   4   7
BRANCH   1  13
ATOM     13  C   UNL     1       5.931   7.079  17.073  0.00  0.00    +0.000 C 
BRANCH  13  15
ATOM     14  C   UNL     1       7.664   6.186  18.668  0.00  0.00    +0.000 C 
ATOM     15  C   UNL     1       7.380   7.144  17.527  0.00  0.00    +0.000 C 
ENDBRANCH  13  15
ENDBRANCH   1  13
BRANCH   3  16
ATOM     16  C   UNL     1       3.009   8.070  17.747  0.00  0.00    +0.000 C 
BRANCH  16  17
ATOM     17  C   UNL     1       2.020   8.754  18.702  0.00  0.00    +0.000 C 
BRANCH  17  18
ATOM     18  C   UNL     1       1.274   9.956  18.063  0.00  0.00    +0.000 C 
ATOM     19  C   UNL     1       1.724  11.301  18.654  0.00  0.00    +0.000 C 
ATOM     20  C   UNL     1       1.204  11.525  20.080  0.00  0.00    +0.000 C 
ATOM     21  N   UNL     1      -0.266  11.435  20.200  0.00  0.00    +0.000 NA
ATOM     22  C   UNL     1      -0.768  10.198  19.593  0.00  0.00    +0.000 C 
ATOM     23  C   UNL     1      -0.255   9.916  18.178  0.00  0.00    +0.000 C 
BRANCH  21  24
ATOM     24  C   UNL     1      -0.621  11.467  21.645  0.00  0.00    +0.000 C 
BRANCH  24  25
ATOM     25  C   UNL     1      -1.948  12.127  21.977  0.00  0.00    +0.000 A 
ATOM     26  C   UNL     1      -2.643  12.876  21.008  0.00  0.00    +0.000 A 
ATOM     27  C   UNL     1      -3.877  13.456  21.307  0.00  0.00    +0.000 A 
ATOM     28  C   UNL     1      -4.430  13.301  22.575  0.00  0.00    +0.000 A 
ATOM     29  C   UNL     1      -3.746  12.570  23.549  0.00  0.00    +0.000 A 
ATOM     30  C   UNL     1      -2.512  11.989  23.252  0.00  0.00    +0.000 A 
ENDBRANCH  24  25
ENDBRANCH  21  24
ENDBRANCH  17  18
ENDBRANCH  16  17
ENDBRANCH   3  16
TORSDOF 8
ENDMDL
MODEL 4
REMARK VINA RESULT:      -7.4      0.456      1.060
REMARK  Name = 
REMARK  9 active torsions:
REMARK  status: ('A' for Active; 'I' for Inactive)
REMARK    1  A    between atoms: C_1  and  C_2
REMARK    2  A    between atoms: C_2  and  C_3
REMARK    3  A    between atoms: C_3  and  N_4
REMARK    4  A    between atoms: N_6  and  C_7
REMARK    5  A    between atoms: C_7  and  C_8
REMARK    6  A    between atoms: C_8  and  C_9
REMARK    7  A    between atoms: N_12  and  C_13
REMARK    8  A    between atoms: C_13  and  C_14
REMARK    9  A    between atoms: N_22  and  C_23
REMARK                            x       y       z     vdW  Elec       q    Type
REMARK                         _______ _______ _______ _____ _____    ______ ____
ROOT
ATOM      1  N   UNL     1       6.261   4.234  17.713  0.00  0.00    +0.000 N 
ATOM      2  C   UNL     1       4.902   4.381  17.645  0.00  0.00    +0.000 C 
ATOM      3  N   UNL     1       4.150   5.371  17.338  0.00  0.00    +0.000 NA
ATOM      4  N   UNL     1       4.339   3.179  17.990  0.00  0.00    +0.000 N 
ATOM      5  H   UNL     1       6.611   3.375  18.118  0.00  0.00    +0.000 HD
ATOM      6  H   UNL     1       4.796   2.330  17.699  0.00  0.00    +0.000 HD
ENDROOT
BRANCH   4   7
ATOM      7  C   UNL     1       3.205   3.012  18.800  0.00  0.00    +0.000 A 
ATOM      8  C   UNL     1       3.321   3.123  20.190  0.00  0.00    +0.000 A 
ATOM      9  C   UNL     1       2.215   2.913  21.015  0.00  0.00    +0.000 A 
ATOM     10  C   UNL     1       0.975   2.595  20.461  0.00  0.00    +0.000 A 
ATOM     11  C   UNL     1       0.847   2.473  19.081  0.00  0.00    +0.000 A 
ATOM     12  C   UNL     1       1.958   2.662  18.259  0.00  0.00    +0.000 A 
ENDBRANCH   4   7
BRANCH   1  13
ATOM     13  C   UNL     1       7.267   5.132  17.234  0.00  0.00    +0.000 C 
BRANCH  13  15
ATOM     14  C   UNL     1       7.340   5.735  19.679  0.00  0.00    +0.000 C 
ATOM     15  C   UNL     1       8.068   5.784  18.349  0.00  0.00    +0.000 C 
ENDBRANCH  13  15
ENDBRANCH   1  13
BRANCH   3  16
ATOM     16  C   UNL     1       4.552   6.736  17.051  0.00  0.00    +0.000 C 
BRANCH  16  17
ATOM     17  C   UNL     1       3.744   7.754  17.869  0.00  0.00    +0.000 C 
BRANCH  17  18
ATOM     18  C   UNL     1       2.259   7.349  18.067  0.00  0.00    +0.000 C 
ATOM     19  C   UNL     1       1.290   8.452  17.614  0.00  0.00    +0.000 C 
ATOM     20  C   UNL     1       1.263   9.648  18.576  0.00  0.00    +0.000 C 
ATOM     21  N   UNL     1       0.933   9.285  19.970  0.00  0.00    +0.000 NA
ATOM     22  C   UNL     1       1.783   8.188  20.442  0.00  0.00    +0.000 C 
ATOM     23  C   UNL     1       1.864   6.980  19.503  0.00  0.00    +0.000 C 
BRANCH  21  24
ATOM     24  C   UNL     1       1.138  10.485  20.827  0.00  0.00    +0.000 C 
BRANCH  24  25
ATOM     25  C   UNL     1      -0.124  11.087  21.420  0.00  0.00    +0.000 A 
ATOM     26  C   UNL     1      -0.594  10.675  22.682  0.00  0.00    +0.000 A 
ATOM     27  C   UNL     1      -1.737  11.253  23.239  0.00  0.00    +0.000 A 
ATOM     28  C   UNL     1      -2.426  12.242  22.543  0.00  0.00    +0.000 A 
ATOM     29  C   UNL     1      -1.977  12.651  21.286  0.00  0.00    +0.000 A 
ATOM     30  C   UNL     1      -0.834  12.075  20.728  0.00  0.00    +0.000 A 
ENDBRANCH  24  25
ENDBRANCH  21  24
ENDBRANCH  17  18
ENDBRANCH  16  17
ENDBRANCH   3  16
TORSDOF 8
ENDMDL
MODEL 5
REMARK VINA RESULT:      -7.4      3.156      6.136
REMARK  Name = 
REMARK  9 active torsions:
REMARK  status: ('A' for Active; 'I' for Inactive)
REMARK    1  A    between atoms: C_1  and  C_2
REMARK    2  A    between atoms: C_2  and  C_3
REMARK    3  A    between atoms: C_3  and  N_4
REMARK    4  A    between atoms: N_6  and  C_7
REMARK    5  A    between atoms: C_7  and  C_8
REMARK    6  A    between atoms: C_8  and  C_9
REMARK    7  A    between atoms: N_12  and  C_13
REMARK    8  A    between atoms: C_13  and  C_14
REMARK    9  A    between atoms: N_22  and  C_23
REMARK                            x       y       z     vdW  Elec       q    Type
REMARK                         _______ _______ _______ _____ _____    ______ ____
ROOT
ATOM      1  N   UNL     1       7.360   4.551  15.814  0.00  0.00    +0.000 N 
ATOM      2  C   UNL     1       6.216   4.321  15.099  0.00  0.00    +0.000 C 
ATOM      3  N   UNL     1       5.017   4.035  15.447  0.00  0.00    +0.000 NA
ATOM      4  N   UNL     1       6.528   4.448  13.769  0.00  0.00    +0.000 N 
ATOM      5  H   UNL     1       8.222   4.626  15.291  0.00  0.00    +0.000 HD
ATOM      6  H   UNL     1       7.193   5.152  13.495  0.00  0.00    +0.000 HD
ENDROOT
BRANCH   4   7
ATOM      7  C   UNL     1       6.062   3.617  12.739  0.00  0.00    +0.000 A 
ATOM      8  C   UNL     1       4.752   3.764  12.267  0.00  0.00    +0.000 A 
ATOM      9  C   UNL     1       4.254   2.916  11.276  0.00  0.00    +0.000 A 
ATOM     10  C   UNL     1       5.061   1.913  10.739  0.00  0.00    +0.000 A 
ATOM     11  C   UNL     1       6.361   1.750  11.205  0.00  0.00    +0.000 A 
ATOM     12  C   UNL     1       6.851   2.584  12.210  0.00  0.00    +0.000 A 
ENDBRANCH   4   7
BRANCH   1  13
ATOM     13  C   UNL     1       7.488   4.749  17.225  0.00  0.00    +0.000 C 
BRANCH  13  15
ATOM     14  C   UNL     1       8.071   6.547  18.891  0.00  0.00    +0.000 C 
ATOM     15  C   UNL     1       7.274   6.193  17.650  0.00  0.00    +0.000 C 
ENDBRANCH  13  15
ENDBRANCH   1  13
BRANCH   3  16
ATOM     16  C   UNL     1       4.522   3.759  16.783  0.00  0.00    +0.000 C 
BRANCH  16  17
ATOM     17  C   UNL     1       3.043   3.344  16.770  0.00  0.00    +0.000 C 
BRANCH  17  18
ATOM     18  C   UNL     1       2.674   2.339  17.895  0.00  0.00    +0.000 C 
ATOM     19  C   UNL     1       1.282   2.614  18.485  0.00  0.00    +0.000 C 
ATOM     20  C   UNL     1       1.250   3.868  19.369  0.00  0.00    +0.000 C 
ATOM     21  N   UNL     1       2.227   3.840  20.477  0.00  0.00    +0.000 NA
ATOM     22  C   UNL     1       3.570   3.518  19.986  0.00  0.00    +0.000 C 
ATOM     23  C   UNL     1       3.650   2.288  19.077  0.00  0.00    +0.000 C 
BRANCH  21  24
ATOM     24  C   UNL     1       2.237   5.180  21.126  0.00  0.00    +0.000 C 
BRANCH  24  25
ATOM     25  C   UNL     1       2.190   6.366  20.179  0.00  0.00    +0.000 A 
ATOM     26  C   UNL     1       1.462   7.525  20.511  0.00  0.00    +0.000 A 
ATOM     27  C   UNL     1       1.445   8.626  19.652  0.00  0.00    +0.000 A 
ATOM     28  C   UNL     1       2.148   8.582  18.451  0.00  0.00    +0.000 A 
ATOM     29  C   UNL     1       2.864   7.434  18.105  0.00  0.00    +0.000 A 
ATOM     30  C   UNL     1       2.883   6.333  18.962  0.00  0.00    +0.000 A 
ENDBRANCH  24  25
ENDBRANCH  21  24
ENDBRANCH  17  18
ENDBRANCH  16  17
ENDBRANCH   3  16
TORSDOF 8
ENDMDL
MODEL 6
REMARK VINA RESULT:      -7.3      0.856      1.483
REMARK  Name = 
REMARK  9 active torsions:
REMARK  status: ('A' for Active; 'I' for Inactive)
REMARK    1  A    between atoms: C_1  and  C_2
REMARK    2  A    between atoms: C_2  and  C_3
REMARK    3  A    between atoms: C_3  and  N_4
REMARK    4  A    between atoms: N_6  and  C_7
REMARK    5  A    between atoms: C_7  and  C_8
REMARK    6  A    between atoms: C_8  and  C_9
REMARK    7  A    between atoms: N_12  and  C_13
REMARK    8  A    between atoms: C_13  and  C_14
REMARK    9  A    between atoms: N_22  and  C_23
REMARK                            x       y       z     vdW  Elec       q    Type
REMARK                         _______ _______ _______ _____ _____    ______ ____
ROOT
ATOM      1  N   UNL     1       5.548   3.749  16.893  0.00  0.00    +0.000 N 
ATOM      2  C   UNL     1       4.359   4.184  17.412  0.00  0.00    +0.000 C 
ATOM      3  N   UNL     1       3.854   5.351  17.568  0.00  0.00    +0.000 NA
ATOM      4  N   UNL     1       3.652   3.078  17.810  0.00  0.00    +0.000 N 
ATOM      5  H   UNL     1       5.769   2.769  17.008  0.00  0.00    +0.000 HD
ATOM      6  H   UNL     1       3.714   2.240  17.254  0.00  0.00    +0.000 HD
ENDROOT
BRANCH   4   7
ATOM      7  C   UNL     1       2.899   2.971  18.989  0.00  0.00    +0.000 A 
ATOM      8  C   UNL     1       1.504   3.067  18.933  0.00  0.00    +0.000 A 
ATOM      9  C   UNL     1       0.740   3.012  20.101  0.00  0.00    +0.000 A 
ATOM     10  C   UNL     1       1.362   2.851  21.339  0.00  0.00    +0.000 A 
ATOM     11  C   UNL     1       2.747   2.762  21.410  0.00  0.00    +0.000 A 
ATOM     12  C   UNL     1       3.511   2.840  20.245  0.00  0.00    +0.000 A 
ENDBRANCH   4   7
BRANCH   1  13
ATOM     13  C   UNL     1       6.512   4.506  16.154  0.00  0.00    +0.000 C 
BRANCH  13  15
ATOM     14  C   UNL     1       6.963   5.058  13.738  0.00  0.00    +0.000 C 
ATOM     15  C   UNL     1       6.766   3.955  14.760  0.00  0.00    +0.000 C 
ENDBRANCH  13  15
ENDBRANCH   1  13
BRANCH   3  16
ATOM     16  C   UNL     1       4.483   6.633  17.309  0.00  0.00    +0.000 C 
BRANCH  16  17
ATOM     17  C   UNL     1       3.667   7.798  17.888  0.00  0.00    +0.000 C 
BRANCH  17  18
ATOM     18  C   UNL     1       2.164   7.463  18.083  0.00  0.00    +0.000 C 
ATOM     19  C   UNL     1       1.247   8.581  17.563  0.00  0.00    +0.000 C 
ATOM     20  C   UNL     1       1.257   9.823  18.465  0.00  0.00    +0.000 C 
ATOM     21  N   UNL     1       0.895   9.542  19.869  0.00  0.00    +0.000 NA
ATOM     22  C   UNL     1       1.692   8.435  20.407  0.00  0.00    +0.000 C 
ATOM     23  C   UNL     1       1.736   7.181  19.529  0.00  0.00    +0.000 C 
BRANCH  21  24
ATOM     24  C   UNL     1       1.137  10.772  20.671  0.00  0.00    +0.000 C 
BRANCH  24  25
ATOM     25  C   UNL     1      -0.068  11.310  21.423  0.00  0.00    +0.000 A 
ATOM     26  C   UNL     1      -0.765  12.440  20.953  0.00  0.00    +0.000 A 
ATOM     27  C   UNL     1      -1.891  12.914  21.629  0.00  0.00    +0.000 A 
ATOM     28  C   UNL     1      -2.330  12.273  22.784  0.00  0.00    +0.000 A 
ATOM     29  C   UNL     1      -1.640  11.159  23.268  0.00  0.00    +0.000 A 
ATOM     30  C   UNL     1      -0.515  10.683  22.593  0.00  0.00    +0.000 A 
ENDBRANCH  24  25
ENDBRANCH  21  24
ENDBRANCH  17  18
ENDBRANCH  16  17
ENDBRANCH   3  16
TORSDOF 8
ENDMDL
MODEL 7
REMARK VINA RESULT:      -7.3      2.652      5.337
REMARK  Name = 
REMARK  9 active torsions:
REMARK  status: ('A' for Active; 'I' for Inactive)
REMARK    1  A    between atoms: C_1  and  C_2
REMARK    2  A    between atoms: C_2  and  C_3
REMARK    3  A    between atoms: C_3  and  N_4
REMARK    4  A    between atoms: N_6  and  C_7
REMARK    5  A    between atoms: C_7  and  C_8
REMARK    6  A    between atoms: C_8  and  C_9
REMARK    7  A    between atoms: N_12  and  C_13
REMARK    8  A    between atoms: C_13  and  C_14
REMARK    9  A    between atoms: N_22  and  C_23
REMARK                            x       y       z     vdW  Elec       q    Type
REMARK                         _______ _______ _______ _____ _____    ______ ____
ROOT
ATOM      1  N   UNL     1       7.515   5.071  16.717  0.00  0.00    +0.000 N 
ATOM      2  C   UNL     1       6.412   4.655  16.021  0.00  0.00    +0.000 C 
ATOM      3  N   UNL     1       5.348   4.035  16.370  0.00  0.00    +0.000 NA
ATOM      4  N   UNL     1       6.586   5.028  14.712  0.00  0.00    +0.000 N 
ATOM      5  H   UNL     1       8.292   5.428  16.177  0.00  0.00    +0.000 HD
ATOM      6  H   UNL     1       7.038   5.906  14.516  0.00  0.00    +0.000 HD
ENDROOT
BRANCH   4   7
ATOM      7  C   UNL     1       6.261   4.247  13.592  0.00  0.00    +0.000 A 
ATOM      8  C   UNL     1       7.281   3.767  12.761  0.00  0.00    +0.000 A 
ATOM      9  C   UNL     1       6.976   3.030  11.615  0.00  0.00    +0.000 A 
ATOM     10  C   UNL     1       5.648   2.756  11.289  0.00  0.00    +0.000 A 
ATOM     11  C   UNL     1       4.625   3.233  12.102  0.00  0.00    +0.000 A 
ATOM     12  C   UNL     1       4.929   3.988  13.234  0.00  0.00    +0.000 A 
ENDBRANCH   4   7
BRANCH   1  13
ATOM     13  C   UNL     1       7.694   5.110  18.136  0.00  0.00    +0.000 C 
BRANCH  13  15
ATOM     14  C   UNL     1       7.671   7.572  17.602  0.00  0.00    +0.000 C 
ATOM     15  C   UNL     1       7.830   6.522  18.684  0.00  0.00    +0.000 C 
ENDBRANCH  13  15
ENDBRANCH   1  13
BRANCH   3  16
ATOM     16  C   UNL     1       5.034   3.473  17.671  0.00  0.00    +0.000 C 
BRANCH  16  17
ATOM     17  C   UNL     1       3.813   2.543  17.612  0.00  0.00    +0.000 C 
BRANCH  17  18
ATOM     18  C   UNL     1       2.781   2.806  18.742  0.00  0.00    +0.000 C 
ATOM     19  C   UNL     1       1.528   3.533  18.226  0.00  0.00    +0.000 C 
ATOM     20  C   UNL     1       1.792   5.008  17.898  0.00  0.00    +0.000 C 
ATOM     21  N   UNL     1       2.343   5.781  19.030  0.00  0.00    +0.000 NA
ATOM     22  C   UNL     1       3.507   5.105  19.610  0.00  0.00    +0.000 C 
ATOM     23  C   UNL     1       3.303   3.622  19.931  0.00  0.00    +0.000 C 
BRANCH  21  24
ATOM     24  C   UNL     1       2.740   7.126  18.529  0.00  0.00    +0.000 C 
BRANCH  24  25
ATOM     25  C   UNL     1       1.880   8.282  19.008  0.00  0.00    +0.000 A 
ATOM     26  C   UNL     1       1.449   8.353  20.347  0.00  0.00    +0.000 A 
ATOM     27  C   UNL     1       0.684   9.432  20.793  0.00  0.00    +0.000 A 
ATOM     28  C   UNL     1       0.335  10.450  19.909  0.00  0.00    +0.000 A 
ATOM     29  C   UNL     1       0.746  10.386  18.576  0.00  0.00    +0.000 A 
ATOM     30  C   UNL     1       1.512   9.308  18.129  0.00  0.00    +0.000 A 
ENDBRANCH  24  25
ENDBRANCH  21  24
ENDBRANCH  17  18
ENDBRANCH  16  17
ENDBRANCH   3  16
TORSDOF 8
ENDMDL
MODEL 8
REMARK VINA RESULT:      -7.2      1.139      1.497
REMARK  Name = 
REMARK  9 active torsions:
REMARK  status: ('A' for Active; 'I' for Inactive)
REMARK    1  A    between atoms: C_1  and  C_2
REMARK    2  A    between atoms: C_2  and  C_3
REMARK    3  A    between atoms: C_3  and  N_4
REMARK    4  A    between atoms: N_6  and  C_7
REMARK    5  A    between atoms: C_7  and  C_8
REMARK    6  A    between atoms: C_8  and  C_9
REMARK    7  A    between atoms: N_12  and  C_13
REMARK    8  A    between atoms: C_13  and  C_14
REMARK    9  A    between atoms: N_22  and  C_23
REMARK                            x       y       z     vdW  Elec       q    Type
REMARK                         _______ _______ _______ _____ _____    ______ ____
ROOT
ATOM      1  N   UNL     1       5.033   4.136  16.512  0.00  0.00    +0.000 N 
ATOM      2  C   UNL     1       3.964   4.571  17.248  0.00  0.00    +0.000 C 
ATOM      3  N   UNL     1       3.549   5.739  17.569  0.00  0.00    +0.000 NA
ATOM      4  N   UNL     1       3.275   3.463  17.671  0.00  0.00    +0.000 N 
ATOM      5  H   UNL     1       5.220   3.142  16.517  0.00  0.00    +0.000 HD
ATOM      6  H   UNL     1       3.206   2.671  17.051  0.00  0.00    +0.000 HD
ENDROOT
BRANCH   4   7
ATOM      7  C   UNL     1       2.714   3.288  18.945  0.00  0.00    +0.000 A 
ATOM      8  C   UNL     1       3.505   2.802  19.992  0.00  0.00    +0.000 A 
ATOM      9  C   UNL     1       2.954   2.576  21.255  0.00  0.00    +0.000 A 
ATOM     10  C   UNL     1       1.604   2.839  21.489  0.00  0.00    +0.000 A 
ATOM     11  C   UNL     1       0.804   3.314  20.455  0.00  0.00    +0.000 A 
ATOM     12  C   UNL     1       1.351   3.519  19.189  0.00  0.00    +0.000 A 
ENDBRANCH   4   7
BRANCH   1  13
ATOM     13  C   UNL     1       5.904   4.913  15.686  0.00  0.00    +0.000 C 
BRANCH  13  15
ATOM     14  C   UNL     1       5.844   3.846  13.404  0.00  0.00    +0.000 C 
ATOM     15  C   UNL     1       6.659   4.081  14.661  0.00  0.00    +0.000 C 
ENDBRANCH  13  15
ENDBRANCH   1  13
BRANCH   3  16
ATOM     16  C   UNL     1       4.192   7.013  17.308  0.00  0.00    +0.000 C 
BRANCH  16  17
ATOM     17  C   UNL     1       3.376   8.190  17.862  0.00  0.00    +0.000 C 
BRANCH  17  18
ATOM     18  C   UNL     1       1.888   7.839  18.129  0.00  0.00    +0.000 C 
ATOM     19  C   UNL     1       0.940   8.980  17.725  0.00  0.00    +0.000 C 
ATOM     20  C   UNL     1       1.003  10.171  18.690  0.00  0.00    +0.000 C 
ATOM     21  N   UNL     1       0.726   9.815  20.097  0.00  0.00    +0.000 NA
ATOM     22  C   UNL     1       1.556   8.685  20.526  0.00  0.00    +0.000 C 
ATOM     23  C   UNL     1       1.548   7.479  19.581  0.00  0.00    +0.000 C 
BRANCH  21  24
ATOM     24  C   UNL     1       1.015  11.002  20.947  0.00  0.00    +0.000 C 
BRANCH  24  25
ATOM     25  C   UNL     1      -0.191  11.636  21.617  0.00  0.00    +0.000 A 
ATOM     26  C   UNL     1      -0.689  12.878  21.178  0.00  0.00    +0.000 A 
ATOM     27  C   UNL     1      -1.817  13.444  21.776  0.00  0.00    +0.000 A 
ATOM     28  C   UNL     1      -2.457  12.782  22.820  0.00  0.00    +0.000 A 
ATOM     29  C   UNL     1      -1.967  11.556  23.272  0.00  0.00    +0.000 A 
ATOM     30  C   UNL     1      -0.840  10.988  22.676  0.00  0.00    +0.000 A 
ENDBRANCH  24  25
ENDBRANCH  21  24
ENDBRANCH  17  18
ENDBRANCH  16  17
ENDBRANCH   3  16
TORSDOF 8
ENDMDL
MODEL 9
REMARK VINA RESULT:      -7.1      1.106      1.644
REMARK  Name = 
REMARK  9 active torsions:
REMARK  status: ('A' for Active; 'I' for Inactive)
REMARK    1  A    between atoms: C_1  and  C_2
REMARK    2  A    between atoms: C_2  and  C_3
REMARK    3  A    between atoms: C_3  and  N_4
REMARK    4  A    between atoms: N_6  and  C_7
REMARK    5  A    between atoms: C_7  and  C_8
REMARK    6  A    between atoms: C_8  and  C_9
REMARK    7  A    between atoms: N_12  and  C_13
REMARK    8  A    between atoms: C_13  and  C_14
REMARK    9  A    between atoms: N_22  and  C_23
REMARK                            x       y       z     vdW  Elec       q    Type
REMARK                         _______ _______ _______ _____ _____    ______ ____
ROOT
ATOM      1  N   UNL     1       6.250   4.571  17.587  0.00  0.00    +0.000 N 
ATOM      2  C   UNL     1       4.886   4.616  17.492  0.00  0.00    +0.000 C 
ATOM      3  N   UNL     1       4.068   5.546  17.163  0.00  0.00    +0.000 NA
ATOM      4  N   UNL     1       4.406   3.378  17.835  0.00  0.00    +0.000 N 
ATOM      5  H   UNL     1       6.654   3.743  18.005  0.00  0.00    +0.000 HD
ATOM      6  H   UNL     1       4.931   2.563  17.559  0.00  0.00    +0.000 HD
ENDROOT
BRANCH   4   7
ATOM      7  C   UNL     1       3.272   3.131  18.623  0.00  0.00    +0.000 A 
ATOM      8  C   UNL     1       3.306   3.408  19.995  0.00  0.00    +0.000 A 
ATOM      9  C   UNL     1       2.205   3.125  20.805  0.00  0.00    +0.000 A 
ATOM     10  C   UNL     1       1.052   2.568  20.253  0.00  0.00    +0.000 A 
ATOM     11  C   UNL     1       1.007   2.279  18.893  0.00  0.00    +0.000 A 
ATOM     12  C   UNL     1       2.116   2.542  18.089  0.00  0.00    +0.000 A 
ENDBRANCH   4   7
BRANCH   1  13
ATOM     13  C   UNL     1       7.195   5.539  17.121  0.00  0.00    +0.000 C 
BRANCH  13  15
ATOM     14  C   UNL     1       7.809   7.912  17.703  0.00  0.00    +0.000 C 
ATOM     15  C   UNL     1       7.666   6.489  18.210  0.00  0.00    +0.000 C 
ENDBRANCH  13  15
ENDBRANCH   1  13
BRANCH   3  16
ATOM     16  C   UNL     1       4.373   6.935  16.874  0.00  0.00    +0.000 C 
BRANCH  16  17
ATOM     17  C   UNL     1       3.569   7.894  17.763  0.00  0.00    +0.000 C 
BRANCH  17  18
ATOM     18  C   UNL     1       2.122   7.407  18.047  0.00  0.00    +0.000 C 
ATOM     19  C   UNL     1       1.070   8.467  17.682  0.00  0.00    +0.000 C 
ATOM     20  C   UNL     1       1.045   9.641  18.669  0.00  0.00    +0.000 C 
ATOM     21  N   UNL     1       0.826   9.235  20.073  0.00  0.00    +0.000 NA
ATOM     22  C   UNL     1       1.760   8.175  20.465  0.00  0.00    +0.000 C 
ATOM     23  C   UNL     1       1.841   6.992  19.496  0.00  0.00    +0.000 C 
BRANCH  21  24
ATOM     24  C   UNL     1       1.024  10.427  20.942  0.00  0.00    +0.000 C 
BRANCH  24  25
ATOM     25  C   UNL     1       0.515  11.741  20.375  0.00  0.00    +0.000 A 
ATOM     26  C   UNL     1      -0.862  12.039  20.372  0.00  0.00    +0.000 A 
ATOM     27  C   UNL     1      -1.324  13.260  19.879  0.00  0.00    +0.000 A 
ATOM     28  C   UNL     1      -0.422  14.196  19.379  0.00  0.00    +0.000 A 
ATOM     29  C   UNL     1       0.944  13.908  19.366  0.00  0.00    +0.000 A 
ATOM     30  C   UNL     1       1.409  12.688  19.859  0.00  0.00    +0.000 A 
ENDBRANCH  24  25
ENDBRANCH  21  24
ENDBRANCH  17  18
ENDBRANCH  16  17
ENDBRANCH   3  16
TORSDOF 8
ENDMDL
