MODEL 1
REMARK VINA RESULT:      -7.6      0.000      0.000
REMARK  Name = 
REMARK  8 active torsions:
REMARK  status: ('A' for Active; 'I' for Inactive)
REMARK    1  A    between atoms: C_1  and  C_2
REMARK    2  A    between atoms: C_5  and  N_6
REMARK    3  A    between atoms: C_7  and  C_9
REMARK    4  A    between atoms: C_9  and  S_10
REMARK    5  A    between atoms: S_10  and  C_11
REMARK    6  A    between atoms: C_14  and  C_15
REMARK    7  A    between atoms: N_16  and  C_17
REMARK    8  A    between atoms: C_20  and  C_21
REMARK                            x       y       z     vdW  Elec       q    Type
REMARK                         _______ _______ _______ _____ _____    ______ ____
ROOT
ATOM      1  S   UNL     1       6.234   5.576  19.300  0.00  0.00    +0.000 S 
ENDROOT
BRANCH   1   2
ATOM      2  C   UNL     1       4.984   4.492  18.777  0.00  0.00    +0.000 A 
ATOM      3  N   UNL     1       5.114   3.197  18.613  0.00  0.00    +0.000 NA
ATOM      4  N   UNL     1       3.859   2.670  18.436  0.00  0.00    +0.000 NA
ATOM      5  C   UNL     1       2.978   3.650  18.496  0.00  0.00    +0.000 A 
ATOM      6  C   UNL     1       1.518   3.485  18.271  0.00  0.00    +0.000 C 
ATOM      7  N   UNL     1       3.644   4.861  18.682  0.00  0.00    +0.000 N 
BRANCH   7   8
ATOM      8  C   UNL     1       3.077   6.167  18.773  0.00  0.00    +0.000 A 
ATOM      9  C   UNL     1       3.117   7.041  17.681  0.00  0.00    +0.000 A 
ATOM     10  C   UNL     1       2.517   8.304  17.762  0.00  0.00    +0.000 A 
ATOM     11  C   UNL     1       1.858   8.703  18.929  0.00  0.00    +0.000 A 
ATOM     12  C   UNL     1       1.184  10.039  19.019  0.00  0.00    +0.000 C 
ATOM     13  C   UNL     1       1.820   7.831  20.020  0.00  0.00    +0.000 A 
ATOM     14  C   UNL     1       2.442   6.582  19.951  0.00  0.00    +0.000 A 
ENDBRANCH   7   8
ENDBRANCH   1   2
BRANCH   1  15
ATOM     15  C   UNL     1       6.661   6.554  17.841  0.00  0.00    +0.000 C 
BRANCH  15  17
ATOM     16  N   UNL     1       6.463   5.815  15.511  0.00  0.00    +0.000 N 
ATOM     17  C   UNL     1       7.057   5.562  16.744  0.00  0.00    +0.000 C 
ATOM     18  O   UNL     1       7.816   4.627  16.994  0.00  0.00    +0.000 OA
ATOM     19  H   UNL     1       5.989   6.702  15.400  0.00  0.00    +0.000 HD
BRANCH  16  24
ATOM     20  C   UNL     1       6.419   2.383  10.906  0.00  0.00    +0.000 C 
ATOM     21  C   UNL     1       6.462   3.269  12.116  0.00  0.00    +0.000 A 
ATOM     22  C   UNL     1       7.489   4.202  12.286  0.00  0.00    +0.000 A 
ATOM     23  C   UNL     1       7.506   5.051  13.400  0.00  0.00    +0.000 A 
ATOM     24  C   UNL     1       6.504   4.982  14.369  0.00  0.00    +0.000 A 
ATOM     25  C   UNL     1       5.497   4.021  14.218  0.00  0.00    +0.000 A 
ATOM     26  C   UNL     1       5.468   3.183  13.095  0.00  0.00    +0.000 A 
ENDBRANCH  16  24
ENDBRANCH  15  17
ENDBRANCH   1  15
TORSDOF 5
ENDMDL
MODEL 2
REMARK VINA RESULT:      -7.6      0.543      1.103
REMARK  Name = 
REMARK  8 active torsions:
REMARK  status: ('A' for Active; 'I' for Inactive)
REMARK    1  A    between atoms: C_1  and  C_2
REMARK    2  A    between atoms: C_5  and  N_6
REMARK    3  A    between atoms: C_7  and  C_9
REMARK    4  A    between atoms: C_9  and  S_10
REMARK    5  A    between atoms: S_10  and  C_11
REMARK    6  A    between atoms: C_14  and  C_15
REMARK    7  A    between atoms: N_16  and  C_17
REMARK    8  A    between atoms: C_20  and  C_21
REMARK                            x       y       z     vdW  Elec       q    Type
REMARK                         _______ _______ _______ _____ _____    ______ ____
ROOT
ATOM      1  S   UNL     1       6.004   5.741  19.055  0.00  0.00    +0.000 S 
ENDROOT
BRANCH   1   2
ATOM      2  C   UNL     1       4.764   4.826  18.257  0.00  0.00    +0.000 A 
ATOM      3  N   UNL     1       4.900   3.614  17.773  0.00  0.00    +0.000 NA
ATOM      4  N   UNL     1       3.649   3.149  17.451  0.00  0.00    +0.000 NA
ATOM      5  C   UNL     1       2.765   4.083  17.745  0.00  0.00    +0.000 A 
ATOM      6  C   UNL     1       1.308   3.981  17.466  0.00  0.00    +0.000 C 
ATOM      7  N   UNL     1       3.425   5.208  18.241  0.00  0.00    +0.000 N 
BRANCH   7   8
ATOM      8  C   UNL     1       2.853   6.448  18.652  0.00  0.00    +0.000 A 
ATOM      9  C   UNL     1       2.763   7.524  17.761  0.00  0.00    +0.000 A 
ATOM     10  C   UNL     1       2.159   8.722  18.157  0.00  0.00    +0.000 A 
ATOM     11  C   UNL     1       1.622   8.857  19.441  0.00  0.00    +0.000 A 
ATOM     12  C   UNL     1       0.943  10.123  19.868  0.00  0.00    +0.000 C 
ATOM     13  C   UNL     1       1.713   7.783  20.331  0.00  0.00    +0.000 A 
ATOM     14  C   UNL     1       2.341   6.596  19.948  0.00  0.00    +0.000 A 
ENDBRANCH   7   8
ENDBRANCH   1   2
BRANCH   1  15
ATOM     15  C   UNL     1       6.897   6.590  17.732  0.00  0.00    +0.000 C 
BRANCH  15  17
ATOM     16  N   UNL     1       6.468   5.768  15.463  0.00  0.00    +0.000 N 
ATOM     17  C   UNL     1       7.170   5.548  16.644  0.00  0.00    +0.000 C 
ATOM     18  O   UNL     1       7.931   4.607  16.859  0.00  0.00    +0.000 OA
ATOM     19  H   UNL     1       6.002   6.660  15.361  0.00  0.00    +0.000 HD
BRANCH  16  24
ATOM     20  C   UNL     1       6.346   2.244  10.928  0.00  0.00    +0.000 C 
ATOM     21  C   UNL     1       6.348   3.176  12.104  0.00  0.00    +0.000 A 
ATOM     22  C   UNL     1       5.306   3.157  13.036  0.00  0.00    +0.000 A 
ATOM     23  C   UNL     1       5.328   4.004  14.151  0.00  0.00    +0.000 A 
ATOM     24  C   UNL     1       6.386   4.892  14.355  0.00  0.00    +0.000 A 
ATOM     25  C   UNL     1       7.409   4.938  13.401  0.00  0.00    +0.000 A 
ATOM     26  C   UNL     1       7.398   4.079  12.294  0.00  0.00    +0.000 A 
ENDBRANCH  16  24
ENDBRANCH  15  17
ENDBRANCH   1  15
TORSDOF 5
ENDMDL
MODEL 3
REMARK VINA RESULT:      -7.5      5.262      7.969
REMARK  Name = 
REMARK  8 active torsions:
REMARK  status: ('A' for Active; 'I' for Inactive)
REMARK    1  A    between atoms: C_1  and  C_2
REMARK    2  A    between atoms: C_5  and  N_6
REMARK    3  A    between atoms: C_7  and  C_9
REMARK    4  A    between atoms: C_9  and  S_10
REMARK    5  A    between atoms: S_10  and  C_11
REMARK    6  A    between atoms: C_14  and  C_15
REMARK    7  A    between atoms: N_16  and  C_17
REMARK    8  A    between atoms: C_20  and  C_21
REMARK                            x       y       z     vdW  Elec       q    Type
REMARK                         _______ _______ _______ _____ _____    ______ ____
ROOT
ATOM      1  S   UNL     1      -0.392  11.120  21.930  0.00  0.00    +0.000 S 
ENDROOT
BRANCH   1   2
ATOM      2  C   UNL     1       0.662  12.142  21.005  0.00  0.00    +0.000 A 
ATOM      3  N   UNL     1       1.655  12.852  21.487  0.00  0.00    +0.000 NA
ATOM      4  N   UNL     1       2.389  13.319  20.426  0.00  0.00    +0.000 NA
ATOM      5  C   UNL     1       1.836  12.887  19.309  0.00  0.00    +0.000 A 
ATOM      6  C   UNL     1       2.301  13.249  17.944  0.00  0.00    +0.000 C 
ATOM      7  N   UNL     1       0.694  12.145  19.613  0.00  0.00    +0.000 N 
BRANCH   7   8
ATOM      8  C   UNL     1      -0.213  11.522  18.705  0.00  0.00    +0.000 A 
ATOM      9  C   UNL     1      -0.029  10.190  18.315  0.00  0.00    +0.000 A 
ATOM     10  C   UNL     1      -0.949   9.570  17.461  0.00  0.00    +0.000 A 
ATOM     11  C   UNL     1      -2.070  10.266  16.999  0.00  0.00    +0.000 A 
ATOM     12  C   UNL     1      -3.080   9.605  16.110  0.00  0.00    +0.000 C 
ATOM     13  C   UNL     1      -2.252  11.596  17.388  0.00  0.00    +0.000 A 
ATOM     14  C   UNL     1      -1.322  12.225  18.217  0.00  0.00    +0.000 A 
ENDBRANCH   7   8
ENDBRANCH   1   2
BRANCH   1  15
ATOM     15  C   UNL     1       0.671   9.822  22.603  0.00  0.00    +0.000 C 
BRANCH  15  17
ATOM     16  N   UNL     1       1.735   8.050  21.286  0.00  0.00    +0.000 N 
ATOM     17  C   UNL     1       0.524   8.609  21.681  0.00  0.00    +0.000 C 
ATOM     18  O   UNL     1      -0.590   8.223  21.331  0.00  0.00    +0.000 OA
ATOM     19  H   UNL     1       2.568   8.362  21.769  0.00  0.00    +0.000 HD
BRANCH  16  24
ATOM     20  C   UNL     1       2.371   3.813  17.460  0.00  0.00    +0.000 C 
ATOM     21  C   UNL     1       2.237   4.929  18.453  0.00  0.00    +0.000 A 
ATOM     22  C   UNL     1       2.506   6.251  18.088  0.00  0.00    +0.000 A 
ATOM     23  C   UNL     1       2.346   7.294  19.008  0.00  0.00    +0.000 A 
ATOM     24  C   UNL     1       1.921   7.040  20.313  0.00  0.00    +0.000 A 
ATOM     25  C   UNL     1       1.690   5.712  20.690  0.00  0.00    +0.000 A 
ATOM     26  C   UNL     1       1.832   4.667  19.765  0.00  0.00    +0.000 A 
ENDBRANCH  16  24
ENDBRANCH  15  17
ENDBRANCH   1  15
TORSDOF 5
ENDMDL
MODEL 4
REMARK VINA RESULT:      -7.5      4.051      7.151
REMARK  Name = 
REMARK  8 active torsions:
REMARK  status: ('A' for Active; 'I' for Inactive)
REMARK    1  A    between atoms: C_1  and  C_2
REMARK    2  A    between atoms: C_5  and  N_6
REMARK    3  A    between atoms: C_7  and  C_9
REMARK    4  A    between atoms: C_9  and  S_10
REMARK    5  A    between atoms: S_10  and  C_11
REMARK    6  A    between atoms: C_14  and  C_15
REMARK    7  A    between atoms: N_16  and  C_17
REMARK    8  A    between atoms: C_20  and  C_21
REMARK                            x       y       z     vdW  Elec       q    Type
REMARK                         _______ _______ _______ _____ _____    ______ ____
ROOT
ATOM      1  S   UNL     1       6.613   6.285  18.418  0.00  0.00    +0.000 S 
ENDROOT
BRANCH   1   2
ATOM      2  C   UNL     1       6.569   5.771  16.761  0.00  0.00    +0.000 A 
ATOM      3  N   UNL     1       7.491   6.015  15.860  0.00  0.00    +0.000 NA
ATOM      4  N   UNL     1       7.215   5.244  14.759  0.00  0.00    +0.000 NA
ATOM      5  C   UNL     1       6.129   4.536  15.003  0.00  0.00    +0.000 A 
ATOM      6  C   UNL     1       5.471   3.638  14.018  0.00  0.00    +0.000 C 
ATOM      7  N   UNL     1       5.642   4.855  16.270  0.00  0.00    +0.000 N 
BRANCH   7   8
ATOM      8  C   UNL     1       4.477   4.344  16.915  0.00  0.00    +0.000 A 
ATOM      9  C   UNL     1       3.427   5.196  17.276  0.00  0.00    +0.000 A 
ATOM     10  C   UNL     1       2.267   4.681  17.866  0.00  0.00    +0.000 A 
ATOM     11  C   UNL     1       2.134   3.307  18.088  0.00  0.00    +0.000 A 
ATOM     12  C   UNL     1       0.884   2.738  18.689  0.00  0.00    +0.000 C 
ATOM     13  C   UNL     1       3.182   2.456  17.729  0.00  0.00    +0.000 A 
ATOM     14  C   UNL     1       4.352   2.970  17.166  0.00  0.00    +0.000 A 
ENDBRANCH   7   8
ENDBRANCH   1   2
BRANCH   1  15
ATOM     15  C   UNL     1       8.297   6.887  18.687  0.00  0.00    +0.000 C 
BRANCH  15  17
ATOM     16  N   UNL     1       9.219   9.111  19.148  0.00  0.00    +0.000 N 
ATOM     17  C   UNL     1       8.273   8.395  18.421  0.00  0.00    +0.000 C 
ATOM     18  O   UNL     1       7.453   8.878  17.643  0.00  0.00    +0.000 OA
ATOM     19  H   UNL     1       9.934   8.579  19.628  0.00  0.00    +0.000 HD
BRANCH  16  24
ATOM     20  C   UNL     1       9.694  14.806  19.731  0.00  0.00    +0.000 C 
ATOM     21  C   UNL     1       9.544  13.323  19.559  0.00  0.00    +0.000 A 
ATOM     22  C   UNL     1       9.528  12.747  18.286  0.00  0.00    +0.000 A 
ATOM     23  C   UNL     1       9.423  11.359  18.130  0.00  0.00    +0.000 A 
ATOM     24  C   UNL     1       9.323  10.519  19.240  0.00  0.00    +0.000 A 
ATOM     25  C   UNL     1       9.298  11.100  20.513  0.00  0.00    +0.000 A 
ATOM     26  C   UNL     1       9.422  12.487  20.672  0.00  0.00    +0.000 A 
ENDBRANCH  16  24
ENDBRANCH  15  17
ENDBRANCH   1  15
TORSDOF 5
ENDMDL
MODEL 5
REMARK VINA RESULT:      -7.4      0.359      1.025
REMARK  Name = 
REMARK  8 active torsions:
REMARK  status: ('A' for Active; 'I' for Inactive)
REMARK    1  A    between atoms: C_1  and  C_2
REMARK    2  A    between atoms: C_5  and  N_6
REMARK    3  A    between atoms: C_7  and  C_9
REMARK    4  A    between atoms: C_9  and  S_10
REMARK    5  A    between atoms: S_10  and  C_11
REMARK    6  A    between atoms: C_14  and  C_15
REMARK    7  A    between atoms: N_16  and  C_17
REMARK    8  A    between atoms: C_20  and  C_21
REMARK                            x       y       z     vdW  Elec       q    Type
REMARK                         _______ _______ _______ _____ _____    ______ ____
ROOT
ATOM      1  S   UNL     1       5.920   5.544  19.155  0.00  0.00    +0.000 S 
ENDROOT
BRANCH   1   2
ATOM      2  C   UNL     1       4.675   4.487  18.568  0.00  0.00    +0.000 A 
ATOM      3  N   UNL     1       4.834   3.225  18.246  0.00  0.00    +0.000 NA
ATOM      4  N   UNL     1       3.588   2.679  18.069  0.00  0.00    +0.000 NA
ATOM      5  C   UNL     1       2.683   3.614  18.287  0.00  0.00    +0.000 A 
ATOM      6  C   UNL     1       1.218   3.426  18.115  0.00  0.00    +0.000 C 
ATOM      7  N   UNL     1       3.323   4.818  18.583  0.00  0.00    +0.000 N 
BRANCH   7   8
ATOM      8  C   UNL     1       2.724   6.084  18.856  0.00  0.00    +0.000 A 
ATOM      9  C   UNL     1       2.228   6.379  20.131  0.00  0.00    +0.000 A 
ATOM     10  C   UNL     1       1.684   7.639  20.405  0.00  0.00    +0.000 A 
ATOM     11  C   UNL     1       1.644   8.626  19.414  0.00  0.00    +0.000 A 
ATOM     12  C   UNL     1       1.094   9.990  19.702  0.00  0.00    +0.000 C 
ATOM     13  C   UNL     1       2.138   8.330  18.141  0.00  0.00    +0.000 A 
ATOM     14  C   UNL     1       2.655   7.065  17.858  0.00  0.00    +0.000 A 
ENDBRANCH   7   8
ENDBRANCH   1   2
BRANCH   1  15
ATOM     15  C   UNL     1       6.415   6.539  17.729  0.00  0.00    +0.000 C 
BRANCH  15  17
ATOM     16  N   UNL     1       6.251   5.737  15.418  0.00  0.00    +0.000 N 
ATOM     17  C   UNL     1       6.878   5.559  16.647  0.00  0.00    +0.000 C 
ATOM     18  O   UNL     1       7.714   4.695  16.905  0.00  0.00    +0.000 OA
ATOM     19  H   UNL     1       5.703   6.580  15.296  0.00  0.00    +0.000 HD
BRANCH  16  24
ATOM     20  C   UNL     1       6.426   2.234  10.869  0.00  0.00    +0.000 C 
ATOM     21  C   UNL     1       6.411   3.138  12.066  0.00  0.00    +0.000 A 
ATOM     22  C   UNL     1       7.433   4.069  12.275  0.00  0.00    +0.000 A 
ATOM     23  C   UNL     1       7.397   4.935  13.375  0.00  0.00    +0.000 A 
ATOM     24  C   UNL     1       6.346   4.886  14.292  0.00  0.00    +0.000 A 
ATOM     25  C   UNL     1       5.343   3.927  14.104  0.00  0.00    +0.000 A 
ATOM     26  C   UNL     1       5.368   3.071  12.994  0.00  0.00    +0.000 A 
ENDBRANCH  16  24
ENDBRANCH  15  17
ENDBRANCH   1  15
TORSDOF 5
ENDMDL
MODEL 6
REMARK VINA RESULT:      -7.4      3.939      7.052
REMARK  Name = 
REMARK  8 active torsions:
REMARK  status: ('A' for Active; 'I' for Inactive)
REMARK    1  A    between atoms: C_1  and  C_2
REMARK    2  A    between atoms: C_5  and  N_6
REMARK    3  A    between atoms: C_7  and  C_9
REMARK    4  A    between atoms: C_9  and  S_10
REMARK    5  A    between atoms: S_10  and  C_11
REMARK    6  A    between atoms: C_14  and  C_15
REMARK    7  A    between atoms: N_16  and  C_17
REMARK    8  A    between atoms: C_20  and  C_21
REMARK                            x       y       z     vdW  Elec       q    Type
REMARK                         _______ _______ _______ _____ _____    ______ ____
ROOT
ATOM      1  S   UNL     1       6.553   6.183  18.396  0.00  0.00    +0.000 S 
ENDROOT
BRANCH   1   2
ATOM      2  C   UNL     1       6.515   5.700  16.729  0.00  0.00    +0.000 A 
ATOM      3  N   UNL     1       7.447   5.949  15.840  0.00  0.00    +0.000 NA
ATOM      4  N   UNL     1       7.170   5.202  14.723  0.00  0.00    +0.000 NA
ATOM      5  C   UNL     1       6.073   4.503  14.945  0.00  0.00    +0.000 A 
ATOM      6  C   UNL     1       5.411   3.632  13.939  0.00  0.00    +0.000 C 
ATOM      7  N   UNL     1       5.580   4.805  16.215  0.00  0.00    +0.000 N 
BRANCH   7   8
ATOM      8  C   UNL     1       4.404   4.297  16.842  0.00  0.00    +0.000 A 
ATOM      9  C   UNL     1       4.279   2.932  17.126  0.00  0.00    +0.000 A 
ATOM     10  C   UNL     1       3.143   2.447  17.783  0.00  0.00    +0.000 A 
ATOM     11  C   UNL     1       2.124   3.320  18.179  0.00  0.00    +0.000 A 
ATOM     12  C   UNL     1       0.916   2.819  18.912  0.00  0.00    +0.000 C 
ATOM     13  C   UNL     1       2.248   4.682  17.893  0.00  0.00    +0.000 A 
ATOM     14  C   UNL     1       3.368   5.165  17.213  0.00  0.00    +0.000 A 
ENDBRANCH   7   8
ENDBRANCH   1   2
BRANCH   1  15
ATOM     15  C   UNL     1       8.249   6.736  18.695  0.00  0.00    +0.000 C 
BRANCH  15  17
ATOM     16  N   UNL     1       9.091   8.973  19.240  0.00  0.00    +0.000 N 
ATOM     17  C   UNL     1       8.287   8.233  18.378  0.00  0.00    +0.000 C 
ATOM     18  O   UNL     1       7.625   8.690  17.448  0.00  0.00    +0.000 OA
ATOM     19  H   UNL     1       9.702   8.456  19.859  0.00  0.00    +0.000 HD
BRANCH  16  24
ATOM     20  C   UNL     1       9.404  14.708  19.285  0.00  0.00    +0.000 C 
ATOM     21  C   UNL     1       9.352  13.208  19.290  0.00  0.00    +0.000 A 
ATOM     22  C   UNL     1       9.445  12.491  20.485  0.00  0.00    +0.000 A 
ATOM     23  C   UNL     1       9.360  11.093  20.489  0.00  0.00    +0.000 A 
ATOM     24  C   UNL     1       9.188  10.383  19.300  0.00  0.00    +0.000 A 
ATOM     25  C   UNL     1       9.135  11.099  18.099  0.00  0.00    +0.000 A 
ATOM     26  C   UNL     1       9.201  12.499  18.094  0.00  0.00    +0.000 A 
ENDBRANCH  16  24
ENDBRANCH  15  17
ENDBRANCH   1  15
TORSDOF 5
ENDMDL
MODEL 7
REMARK VINA RESULT:      -7.3      5.268      8.528
REMARK  Name = 
REMARK  8 active torsions:
REMARK  status: ('A' for Active; 'I' for Inactive)
REMARK    1  A    between atoms: C_1  and  C_2
REMARK    2  A    between atoms: C_5  and  N_6
REMARK    3  A    between atoms: C_7  and  C_9
REMARK    4  A    between atoms: C_9  and  S_10
REMARK    5  A    between atoms: S_10  and  C_11
REMARK    6  A    between atoms: C_14  and  C_15
REMARK    7  A    between atoms: N_16  and  C_17
REMARK    8  A    between atoms: C_20  and  C_21
REMARK                            x       y       z     vdW  Elec       q    Type
REMARK                         _______ _______ _______ _____ _____    ______ ____
ROOT
ATOM      1  S   UNL     1      -0.837  10.493  22.679  0.00  0.00    +0.000 S 
ENDROOT
BRANCH   1   2
ATOM      2  C   UNL     1      -0.691  12.163  22.230  0.00  0.00    +0.000 A 
ATOM      3  N   UNL     1      -0.253  13.127  23.005  0.00  0.00    +0.000 NA
ATOM      4  N   UNL     1      -0.056  14.236  22.221  0.00  0.00    +0.000 NA
ATOM      5  C   UNL     1      -0.373  13.935  20.976  0.00  0.00    +0.000 A 
ATOM      6  C   UNL     1      -0.366  14.902  19.847  0.00  0.00    +0.000 C 
ATOM      7  N   UNL     1      -0.825  12.616  20.920  0.00  0.00    +0.000 N 
BRANCH   7   8
ATOM      8  C   UNL     1      -1.292  11.898  19.779  0.00  0.00    +0.000 A 
ATOM      9  C   UNL     1      -0.459  10.991  19.115  0.00  0.00    +0.000 A 
ATOM     10  C   UNL     1      -0.938  10.256  18.025  0.00  0.00    +0.000 A 
ATOM     11  C   UNL     1      -2.260  10.406  17.594  0.00  0.00    +0.000 A 
ATOM     12  C   UNL     1      -2.797   9.602  16.448  0.00  0.00    +0.000 C 
ATOM     13  C   UNL     1      -3.092  11.313  18.255  0.00  0.00    +0.000 A 
ATOM     14  C   UNL     1      -2.607  12.068  19.326  0.00  0.00    +0.000 A 
ENDBRANCH   7   8
ENDBRANCH   1   2
BRANCH   1  15
ATOM     15  C   UNL     1       0.806   9.784  22.424  0.00  0.00    +0.000 C 
BRANCH  15  17
ATOM     16  N   UNL     1       1.800   7.906  21.202  0.00  0.00    +0.000 N 
ATOM     17  C   UNL     1       0.611   8.502  21.610  0.00  0.00    +0.000 C 
ATOM     18  O   UNL     1      -0.519   8.096  21.347  0.00  0.00    +0.000 OA
ATOM     19  H   UNL     1       2.657   8.250  21.617  0.00  0.00    +0.000 HD
BRANCH  16  24
ATOM     20  C   UNL     1       2.482   3.619  17.440  0.00  0.00    +0.000 C 
ATOM     21  C   UNL     1       2.271   4.730  18.426  0.00  0.00    +0.000 A 
ATOM     22  C   UNL     1       1.736   4.475  19.692  0.00  0.00    +0.000 A 
ATOM     23  C   UNL     1       1.574   5.509  20.622  0.00  0.00    +0.000 A 
ATOM     24  C   UNL     1       1.935   6.820  20.306  0.00  0.00    +0.000 A 
ATOM     25  C   UNL     1       2.434   7.082  19.024  0.00  0.00    +0.000 A 
ATOM     26  C   UNL     1       2.614   6.045  18.098  0.00  0.00    +0.000 A 
ENDBRANCH  16  24
ENDBRANCH  15  17
ENDBRANCH   1  15
TORSDOF 5
ENDMDL
MODEL 8
REMARK VINA RESULT:      -7.2      0.948      1.023
REMARK  Name = 
REMARK  8 active torsions:
REMARK  status: ('A' for Active; 'I' for Inactive)
REMARK    1  A    between atoms: C_1  and  C_2
REMARK    2  A    between atoms: C_5  and  N_6
REMARK    3  A    between atoms: C_7  and  C_9
REMARK    4  A    between atoms: C_9  and  S_10
REMARK    5  A    between atoms: S_10  and  C_11
REMARK    6  A    between atoms: C_14  and  C_15
REMARK    7  A    between atoms: N_16  and  C_17
REMARK    8  A    between atoms: C_20  and  C_21
REMARK                            x       y       z     vdW  Elec       q    Type
REMARK                         _______ _______ _______ _____ _____    ______ ____
ROOT
ATOM      1  S   UNL     1       5.676   7.075  17.881  0.00  0.00    +0.000 S 
ENDROOT
BRANCH   1   2
ATOM      2  C   UNL     1       4.582   5.761  18.175  0.00  0.00    +0.000 A 
ATOM      3  N   UNL     1       4.895   4.486  18.153  0.00  0.00    +0.000 NA
ATOM      4  N   UNL     1       3.834   3.787  18.671  0.00  0.00    +0.000 NA
ATOM      5  C   UNL     1       2.887   4.643  19.004  0.00  0.00    +0.000 A 
ATOM      6  C   UNL     1       1.550   4.258  19.528  0.00  0.00    +0.000 C 
ATOM      7  N   UNL     1       3.295   5.936  18.678  0.00  0.00    +0.000 N 
BRANCH   7   8
ATOM      8  C   UNL     1       2.568   7.152  18.844  0.00  0.00    +0.000 A 
ATOM      9  C   UNL     1       2.321   7.992  17.752  0.00  0.00    +0.000 A 
ATOM     10  C   UNL     1       1.567   9.160  17.913  0.00  0.00    +0.000 A 
ATOM     11  C   UNL     1       1.036   9.496  19.162  0.00  0.00    +0.000 A 
ATOM     12  C   UNL     1       0.200  10.726  19.342  0.00  0.00    +0.000 C 
ATOM     13  C   UNL     1       1.284   8.658  20.253  0.00  0.00    +0.000 A 
ATOM     14  C   UNL     1       2.060   7.507  20.101  0.00  0.00    +0.000 A 
ENDBRANCH   7   8
ENDBRANCH   1   2
BRANCH   1  15
ATOM     15  C   UNL     1       7.330   6.353  17.985  0.00  0.00    +0.000 C 
BRANCH  15  17
ATOM     16  N   UNL     1       6.806   5.730  15.673  0.00  0.00    +0.000 N 
ATOM     17  C   UNL     1       7.439   5.335  16.847  0.00  0.00    +0.000 C 
ATOM     18  O   UNL     1       8.025   4.268  17.019  0.00  0.00    +0.000 OA
ATOM     19  H   UNL     1       6.500   6.693  15.614  0.00  0.00    +0.000 HD
BRANCH  16  24
ATOM     20  C   UNL     1       5.741   2.479  11.059  0.00  0.00    +0.000 C 
ATOM     21  C   UNL     1       6.050   3.315  12.266  0.00  0.00    +0.000 A 
ATOM     22  C   UNL     1       7.177   4.139  12.298  0.00  0.00    +0.000 A 
ATOM     23  C   UNL     1       7.444   4.944  13.413  0.00  0.00    +0.000 A 
ATOM     24  C   UNL     1       6.594   4.937  14.521  0.00  0.00    +0.000 A 
ATOM     25  C   UNL     1       5.486   4.082  14.504  0.00  0.00    +0.000 A 
ATOM     26  C   UNL     1       5.208   3.289  13.382  0.00  0.00    +0.000 A 
ENDBRANCH  16  24
ENDBRANCH  15  17
ENDBRANCH   1  15
TORSDOF 5
ENDMDL
MODEL 9
REMARK VINA RESULT:      -7.0      4.894      7.774
REMARK  Name = 
REMARK  8 active torsions:
REMARK  status: ('A' for Active; 'I' for Inactive)
REMARK    1  A    between atoms: C_1  and  C_2
REMARK    2  A    between atoms: C_5  and  N_6
REMARK    3  A    between atoms: C_7  and  C_9
REMARK    4  A    between atoms: C_9  and  S_10
REMARK    5  A    between atoms: S_10  and  C_11
REMARK    6  A    between atoms: C_14  and  C_15
REMARK    7  A    between atoms: N_16  and  C_17
REMARK    8  A    between atoms: C_20  and  C_21
REMARK                            x       y       z     vdW  Elec       q    Type
REMARK                         _______ _______ _______ _____ _____    ______ ____
ROOT
ATOM      1  S   UNL     1      -0.221   9.366  21.250  0.00  0.00    +0.000 S 
ENDROOT
BRANCH   1   2
ATOM      2  C   UNL     1       0.096  11.048  20.959  0.00  0.00    +0.000 A 
ATOM      3  N   UNL     1       0.923  11.799  21.647  0.00  0.00    +0.000 NA
ATOM      4  N   UNL     1       1.081  12.980  20.965  0.00  0.00    +0.000 NA
ATOM      5  C   UNL     1       0.351  12.933  19.867  0.00  0.00    +0.000 A 
ATOM      6  C   UNL     1       0.200  14.058  18.907  0.00  0.00    +0.000 C 
ATOM      7  N   UNL     1      -0.338  11.720  19.819  0.00  0.00    +0.000 N 
BRANCH   7   8
ATOM      8  C   UNL     1      -1.255  11.273  18.823  0.00  0.00    +0.000 A 
ATOM      9  C   UNL     1      -2.528  11.844  18.715  0.00  0.00    +0.000 A 
ATOM     10  C   UNL     1      -3.406  11.433  17.706  0.00  0.00    +0.000 A 
ATOM     11  C   UNL     1      -3.018  10.458  16.781  0.00  0.00    +0.000 A 
ATOM     12  C   UNL     1      -3.935  10.031  15.675  0.00  0.00    +0.000 C 
ATOM     13  C   UNL     1      -1.747   9.887  16.889  0.00  0.00    +0.000 A 
ATOM     14  C   UNL     1      -0.880  10.275  17.913  0.00  0.00    +0.000 A 
ENDBRANCH   7   8
ENDBRANCH   1   2
BRANCH   1  15
ATOM     15  C   UNL     1       1.388   8.635  21.630  0.00  0.00    +0.000 C 
BRANCH  15  17
ATOM     16  N   UNL     1       1.670   6.284  20.994  0.00  0.00    +0.000 N 
ATOM     17  C   UNL     1       1.670   7.599  20.538  0.00  0.00    +0.000 C 
ATOM     18  O   UNL     1       1.894   7.955  19.383  0.00  0.00    +0.000 OA
ATOM     19  H   UNL     1       1.316   6.118  21.927  0.00  0.00    +0.000 HD
BRANCH  16  24
ATOM     20  C   UNL     1       3.468   1.672  18.079  0.00  0.00    +0.000 C 
ATOM     21  C   UNL     1       2.976   2.883  18.816  0.00  0.00    +0.000 A 
ATOM     22  C   UNL     1       1.623   3.028  19.135  0.00  0.00    +0.000 A 
ATOM     23  C   UNL     1       1.173   4.143  19.854  0.00  0.00    +0.000 A 
ATOM     24  C   UNL     1       2.062   5.138  20.262  0.00  0.00    +0.000 A 
ATOM     25  C   UNL     1       3.411   5.012  19.908  0.00  0.00    +0.000 A 
ATOM     26  C   UNL     1       3.866   3.888  19.204  0.00  0.00    +0.000 A 
ENDBRANCH  16  24
ENDBRANCH  15  17
ENDBRANCH   1  15
TORSDOF 5
ENDMDL
