MODEL 1
REMARK VINA RESULT:      -8.3      0.000      0.000
REMARK  Name = 
REMARK  5 active torsions:
REMARK  status: ('A' for Active; 'I' for Inactive)
REMARK    1  A    between atoms: C_2  and  C_3
REMARK    2  A    between atoms: C_4  and  C_5
REMARK    3  A    between atoms: C_6  and  C_7
REMARK    4  A    between atoms: C_12  and  C_13
REMARK    5  A    between atoms: C_17  and  O_18
REMARK                            x       y       z     vdW  Elec       q    Type
REMARK                         _______ _______ _______ _____ _____    ______ ____
ROOT
ATOM      1  C   UNL     1       2.493   5.067  20.203  0.00  0.00    +0.000 A 
ATOM      2  C   UNL     1       1.515   4.326  20.893  0.00  0.00    +0.000 A 
ATOM      3  C   UNL     1       1.540   2.933  20.897  0.00  0.00    +0.000 A 
ATOM      4  C   UNL     1       2.560   2.260  20.233  0.00  0.00    +0.000 A 
ATOM      5  C   UNL     1       3.555   2.982  19.569  0.00  0.00    +0.000 A 
ATOM      6  C   UNL     1       3.555   4.397  19.527  0.00  0.00    +0.000 A 
ENDROOT
BRANCH   6   7
ATOM      7  C   UNL     1       4.619   5.098  18.746  0.00  0.00    +0.000 A 
ATOM      8  C   UNL     1       5.916   5.283  19.261  0.00  0.00    +0.000 A 
ATOM      9  C   UNL     1       6.915   5.896  18.500  0.00  0.00    +0.000 A 
ATOM     10  F   UNL     1       8.134   6.074  19.031  0.00  0.00    +0.000 F 
ATOM     11  C   UNL     1       6.672   6.311  17.200  0.00  0.00    +0.000 A 
ATOM     12  C   UNL     1       5.401   6.160  16.680  0.00  0.00    +0.000 A 
ATOM     13  F   UNL     1       5.125   6.530  15.423  0.00  0.00    +0.000 F 
ATOM     14  C   UNL     1       4.382   5.609  17.456  0.00  0.00    +0.000 A 
BRANCH  11  15
ATOM     15  O   UNL     1       7.657   6.869  16.440  0.00  0.00    +0.000 OA
ATOM     16  H   UNL     1       8.153   6.136  16.018  0.00  0.00    +0.000 HD
ENDBRANCH  11  15
ENDBRANCH   6   7
BRANCH   1  18
ATOM     17  C   UNL     1       1.092   7.143  20.216  0.00  0.00    +0.000 C 
ATOM     18  C   UNL     1       2.286   6.527  20.111  0.00  0.00    +0.000 C 
BRANCH  17  20
ATOM     19  C   UNL     1       1.315   9.506  19.423  0.00  0.00    +0.000 A 
ATOM     20  C   UNL     1       0.904   8.598  20.338  0.00  0.00    +0.000 A 
ATOM     21  N   UNL     1       0.192   9.030  21.439  0.00  0.00    +0.000 N 
ATOM     22  C   UNL     1      -0.088  10.332  21.708  0.00  0.00    +0.000 A 
ATOM     23  S   UNL     1      -0.951  10.767  23.057  0.00  0.00    +0.000 S 
ATOM     24  N   UNL     1       0.385  11.250  20.817  0.00  0.00    +0.000 N 
ATOM     25  C   UNL     1       1.073  10.944  19.670  0.00  0.00    +0.000 A 
ATOM     26  O   UNL     1       1.463  11.815  18.902  0.00  0.00    +0.000 OA
ATOM     27  H   UNL     1      -0.207   8.351  22.082  0.00  0.00    +0.000 HD
ATOM     28  H   UNL     1       0.205  12.228  20.997  0.00  0.00    +0.000 HD
BRANCH  19  30
ATOM     29  N   UNL     1       2.711   8.689  17.161  0.00  0.00    +0.000 NA
ATOM     30  C   UNL     1       2.077   9.060  18.187  0.00  0.00    +0.000 C 
ENDBRANCH  19  30
ENDBRANCH  17  20
ENDBRANCH   1  18
TORSDOF 5
ENDMDL
MODEL 2
REMARK VINA RESULT:      -8.2      0.337      1.614
REMARK  Name = 
REMARK  5 active torsions:
REMARK  status: ('A' for Active; 'I' for Inactive)
REMARK    1  A    between atoms: C_2  and  C_3
REMARK    2  A    between atoms: C_4  and  C_5
REMARK    3  A    between atoms: C_6  and  C_7
REMARK    4  A    between atoms: C_12  and  C_13
REMARK    5  A    between atoms: C_17  and  O_18
REMARK                            x       y       z     vdW  Elec       q    Type
REMARK                         _______ _______ _______ _____ _____    ______ ____
ROOT
ATOM      1  C   UNL     1       2.769   5.009  20.268  0.00  0.00    +0.000 A 
ATOM      2  C   UNL     1       1.845   4.220  20.979  0.00  0.00    +0.000 A 
ATOM      3  C   UNL     1       1.979   2.834  21.035  0.00  0.00    +0.000 A 
ATOM      4  C   UNL     1       3.054   2.220  20.404  0.00  0.00    +0.000 A 
ATOM      5  C   UNL     1       3.997   2.992  19.720  0.00  0.00    +0.000 A 
ATOM      6  C   UNL     1       3.887   4.400  19.624  0.00  0.00    +0.000 A 
ENDROOT
BRANCH   6   7
ATOM      7  C   UNL     1       4.900   5.153  18.825  0.00  0.00    +0.000 A 
ATOM      8  C   UNL     1       4.589   5.710  17.570  0.00  0.00    +0.000 A 
ATOM      9  C   UNL     1       5.532   6.454  16.856  0.00  0.00    +0.000 A 
ATOM     10  F   UNL     1       5.207   6.952  15.654  0.00  0.00    +0.000 F 
ATOM     11  C   UNL     1       6.794   6.698  17.375  0.00  0.00    +0.000 A 
ATOM     12  C   UNL     1       7.130   6.145  18.595  0.00  0.00    +0.000 A 
ATOM     13  F   UNL     1       8.330   6.369  19.144  0.00  0.00    +0.000 F 
ATOM     14  C   UNL     1       6.217   5.347  19.283  0.00  0.00    +0.000 A 
BRANCH  11  15
ATOM     15  O   UNL     1       7.700   7.462  16.701  0.00  0.00    +0.000 OA
ATOM     16  H   UNL     1       7.224   8.245  16.353  0.00  0.00    +0.000 HD
ENDBRANCH  11  15
ENDBRANCH   6   7
BRANCH   1  18
ATOM     17  C   UNL     1       1.243   6.993  20.361  0.00  0.00    +0.000 C 
ATOM     18  C   UNL     1       2.451   6.445  20.120  0.00  0.00    +0.000 C 
BRANCH  17  20
ATOM     19  C   UNL     1       1.287   9.322  19.446  0.00  0.00    +0.000 A 
ATOM     20  C   UNL     1       0.973   8.439  20.422  0.00  0.00    +0.000 A 
ATOM     21  N   UNL     1       0.285   8.883  21.533  0.00  0.00    +0.000 N 
ATOM     22  C   UNL     1      -0.061  10.179  21.753  0.00  0.00    +0.000 A 
ATOM     23  S   UNL     1      -0.888  10.631  23.119  0.00  0.00    +0.000 S 
ATOM     24  N   UNL     1       0.316  11.077  20.798  0.00  0.00    +0.000 N 
ATOM     25  C   UNL     1       0.970  10.754  19.636  0.00  0.00    +0.000 A 
ATOM     26  O   UNL     1       1.272  11.607  18.809  0.00  0.00    +0.000 OA
ATOM     27  H   UNL     1      -0.042   8.216  22.226  0.00  0.00    +0.000 HD
ATOM     28  H   UNL     1       0.085  12.051  20.940  0.00  0.00    +0.000 HD
BRANCH  19  30
ATOM     29  N   UNL     1       2.628   8.475  17.162  0.00  0.00    +0.000 NA
ATOM     30  C   UNL     1       2.019   8.859  18.198  0.00  0.00    +0.000 C 
ENDBRANCH  19  30
ENDBRANCH  17  20
ENDBRANCH   1  18
TORSDOF 5
ENDMDL
MODEL 3
REMARK VINA RESULT:      -7.8      1.729      2.399
REMARK  Name = 
REMARK  5 active torsions:
REMARK  status: ('A' for Active; 'I' for Inactive)
REMARK    1  A    between atoms: C_2  and  C_3
REMARK    2  A    between atoms: C_4  and  C_5
REMARK    3  A    between atoms: C_6  and  C_7
REMARK    4  A    between atoms: C_12  and  C_13
REMARK    5  A    between atoms: C_17  and  O_18
REMARK                            x       y       z     vdW  Elec       q    Type
REMARK                         _______ _______ _______ _____ _____    ______ ____
ROOT
ATOM      1  C   UNL     1       2.211   5.637  19.934  0.00  0.00    +0.000 A 
ATOM      2  C   UNL     1       1.107   4.997  20.529  0.00  0.00    +0.000 A 
ATOM      3  C   UNL     1       0.914   3.624  20.391  0.00  0.00    +0.000 A 
ATOM      4  C   UNL     1       1.836   2.867  19.678  0.00  0.00    +0.000 A 
ATOM      5  C   UNL     1       2.953   3.482  19.108  0.00  0.00    +0.000 A 
ATOM      6  C   UNL     1       3.176   4.877  19.210  0.00  0.00    +0.000 A 
ENDROOT
BRANCH   6   7
ATOM      7  C   UNL     1       4.361   5.473  18.522  0.00  0.00    +0.000 A 
ATOM      8  C   UNL     1       5.642   5.459  19.107  0.00  0.00    +0.000 A 
ATOM      9  C   UNL     1       6.750   5.975  18.430  0.00  0.00    +0.000 A 
ATOM     10  F   UNL     1       7.951   5.964  19.026  0.00  0.00    +0.000 F 
ATOM     11  C   UNL     1       6.632   6.488  17.147  0.00  0.00    +0.000 A 
ATOM     12  C   UNL     1       5.382   6.532  16.561  0.00  0.00    +0.000 A 
ATOM     13  F   UNL     1       5.222   7.001  15.318  0.00  0.00    +0.000 F 
ATOM     14  C   UNL     1       4.260   6.079  17.255  0.00  0.00    +0.000 A 
BRANCH  11  15
ATOM     15  O   UNL     1       7.719   6.951  16.468  0.00  0.00    +0.000 OA
ATOM     16  H   UNL     1       8.325   6.193  16.332  0.00  0.00    +0.000 HD
ENDBRANCH  11  15
ENDBRANCH   6   7
BRANCH   1  18
ATOM     17  C   UNL     1       1.257   7.919  19.538  0.00  0.00    +0.000 C 
ATOM     18  C   UNL     1       2.239   7.114  19.989  0.00  0.00    +0.000 C 
BRANCH  17  20
ATOM     19  C   UNL     1       0.590   9.940  20.854  0.00  0.00    +0.000 A 
ATOM     20  C   UNL     1       1.180   9.369  19.779  0.00  0.00    +0.000 A 
ATOM     21  N   UNL     1       1.829  10.173  18.863  0.00  0.00    +0.000 N 
ATOM     22  C   UNL     1       1.874  11.530  18.931  0.00  0.00    +0.000 A 
ATOM     23  S   UNL     1       2.675  12.425  17.786  0.00  0.00    +0.000 S 
ATOM     24  N   UNL     1       1.221  12.105  19.981  0.00  0.00    +0.000 N 
ATOM     25  C   UNL     1       0.573  11.414  20.973  0.00  0.00    +0.000 A 
ATOM     26  O   UNL     1       0.013  11.990  21.899  0.00  0.00    +0.000 OA
ATOM     27  H   UNL     1       2.359   9.752  18.106  0.00  0.00    +0.000 HD
ATOM     28  H   UNL     1       1.224  13.114  20.052  0.00  0.00    +0.000 HD
BRANCH  19  30
ATOM     29  N   UNL     1      -0.688   8.366  22.758  0.00  0.00    +0.000 NA
ATOM     30  C   UNL     1      -0.108   9.080  21.894  0.00  0.00    +0.000 C 
ENDBRANCH  19  30
ENDBRANCH  17  20
ENDBRANCH   1  18
TORSDOF 5
ENDMDL
MODEL 4
REMARK VINA RESULT:      -7.6      1.727      2.861
REMARK  Name = 
REMARK  5 active torsions:
REMARK  status: ('A' for Active; 'I' for Inactive)
REMARK    1  A    between atoms: C_2  and  C_3
REMARK    2  A    between atoms: C_4  and  C_5
REMARK    3  A    between atoms: C_6  and  C_7
REMARK    4  A    between atoms: C_12  and  C_13
REMARK    5  A    between atoms: C_17  and  O_18
REMARK                            x       y       z     vdW  Elec       q    Type
REMARK                         _______ _______ _______ _____ _____    ______ ____
ROOT
ATOM      1  C   UNL     1       2.224   5.554  19.896  0.00  0.00    +0.000 A 
ATOM      2  C   UNL     1       1.121   4.922  20.500  0.00  0.00    +0.000 A 
ATOM      3  C   UNL     1       0.914   3.551  20.360  0.00  0.00    +0.000 A 
ATOM      4  C   UNL     1       1.822   2.788  19.637  0.00  0.00    +0.000 A 
ATOM      5  C   UNL     1       2.939   3.395  19.057  0.00  0.00    +0.000 A 
ATOM      6  C   UNL     1       3.175   4.787  19.160  0.00  0.00    +0.000 A 
ENDROOT
BRANCH   6   7
ATOM      7  C   UNL     1       4.359   5.374  18.462  0.00  0.00    +0.000 A 
ATOM      8  C   UNL     1       4.255   5.944  17.179  0.00  0.00    +0.000 A 
ATOM      9  C   UNL     1       5.359   6.535  16.559  0.00  0.00    +0.000 A 
ATOM     10  F   UNL     1       5.228   7.050  15.328  0.00  0.00    +0.000 F 
ATOM     11  C   UNL     1       6.586   6.610  17.201  0.00  0.00    +0.000 A 
ATOM     12  C   UNL     1       6.719   6.038  18.452  0.00  0.00    +0.000 A 
ATOM     13  F   UNL     1       7.878   6.102  19.117  0.00  0.00    +0.000 F 
ATOM     14  C   UNL     1       5.638   5.390  19.049  0.00  0.00    +0.000 A 
BRANCH  11  15
ATOM     15  O   UNL     1       7.653   7.225  16.617  0.00  0.00    +0.000 OA
ATOM     16  H   UNL     1       8.463   6.783  16.946  0.00  0.00    +0.000 HD
ENDBRANCH  11  15
ENDBRANCH   6   7
BRANCH   1  18
ATOM     17  C   UNL     1       1.323   7.847  19.444  0.00  0.00    +0.000 C 
ATOM     18  C   UNL     1       2.266   7.030  19.954  0.00  0.00    +0.000 C 
BRANCH  17  20
ATOM     19  C   UNL     1       0.654   9.872  20.752  0.00  0.00    +0.000 A 
ATOM     20  C   UNL     1       1.249   9.298  19.681  0.00  0.00    +0.000 A 
ATOM     21  N   UNL     1       1.904  10.099  18.768  0.00  0.00    +0.000 N 
ATOM     22  C   UNL     1       1.952  11.455  18.833  0.00  0.00    +0.000 A 
ATOM     23  S   UNL     1       2.762  12.346  17.690  0.00  0.00    +0.000 S 
ATOM     24  N   UNL     1       1.294  12.035  19.878  0.00  0.00    +0.000 N 
ATOM     25  C   UNL     1       0.640  11.347  20.868  0.00  0.00    +0.000 A 
ATOM     26  O   UNL     1       0.076  11.926  21.789  0.00  0.00    +0.000 OA
ATOM     27  H   UNL     1       2.437   9.674  18.014  0.00  0.00    +0.000 HD
ATOM     28  H   UNL     1       1.300  13.043  19.947  0.00  0.00    +0.000 HD
BRANCH  19  30
ATOM     29  N   UNL     1      -0.638   8.306  22.653  0.00  0.00    +0.000 NA
ATOM     30  C   UNL     1      -0.052   9.016  21.790  0.00  0.00    +0.000 C 
ENDBRANCH  19  30
ENDBRANCH  17  20
ENDBRANCH   1  18
TORSDOF 5
ENDMDL
MODEL 5
REMARK VINA RESULT:      -7.4      3.449      5.125
REMARK  Name = 
REMARK  5 active torsions:
REMARK  status: ('A' for Active; 'I' for Inactive)
REMARK    1  A    between atoms: C_2  and  C_3
REMARK    2  A    between atoms: C_4  and  C_5
REMARK    3  A    between atoms: C_6  and  C_7
REMARK    4  A    between atoms: C_12  and  C_13
REMARK    5  A    between atoms: C_17  and  O_18
REMARK                            x       y       z     vdW  Elec       q    Type
REMARK                         _______ _______ _______ _____ _____    ______ ____
ROOT
ATOM      1  C   UNL     1       3.193   6.989  17.742  0.00  0.00    +0.000 A 
ATOM      2  C   UNL     1       4.052   7.753  16.929  0.00  0.00    +0.000 A 
ATOM      3  C   UNL     1       5.289   7.254  16.526  0.00  0.00    +0.000 A 
ATOM      4  C   UNL     1       5.673   5.974  16.908  0.00  0.00    +0.000 A 
ATOM      5  C   UNL     1       4.819   5.192  17.690  0.00  0.00    +0.000 A 
ATOM      6  C   UNL     1       3.562   5.669  18.134  0.00  0.00    +0.000 A 
ENDROOT
BRANCH   6   7
ATOM      7  C   UNL     1       2.729   4.798  19.018  0.00  0.00    +0.000 A 
ATOM      8  C   UNL     1       1.778   3.903  18.491  0.00  0.00    +0.000 A 
ATOM      9  C   UNL     1       1.041   3.059  19.326  0.00  0.00    +0.000 A 
ATOM     10  F   UNL     1       0.129   2.233  18.792  0.00  0.00    +0.000 F 
ATOM     11  C   UNL     1       1.246   3.050  20.698  0.00  0.00    +0.000 A 
ATOM     12  C   UNL     1       2.158   3.934  21.240  0.00  0.00    +0.000 A 
ATOM     13  F   UNL     1       2.403   3.949  22.556  0.00  0.00    +0.000 F 
ATOM     14  C   UNL     1       2.850   4.825  20.420  0.00  0.00    +0.000 A 
BRANCH  11  15
ATOM     15  O   UNL     1       0.561   2.195  21.509  0.00  0.00    +0.000 OA
ATOM     16  H   UNL     1      -0.303   2.611  21.711  0.00  0.00    +0.000 HD
ENDBRANCH  11  15
ENDBRANCH   6   7
BRANCH   1  18
ATOM     17  C   UNL     1       1.909   8.973  18.573  0.00  0.00    +0.000 C 
ATOM     18  C   UNL     1       1.984   7.665  18.259  0.00  0.00    +0.000 C 
BRANCH  17  20
ATOM     19  C   UNL     1       0.312  10.126  20.116  0.00  0.00    +0.000 A 
ATOM     20  C   UNL     1       0.663   9.694  18.884  0.00  0.00    +0.000 A 
ATOM     21  N   UNL     1      -0.148   9.998  17.809  0.00  0.00    +0.000 N 
ATOM     22  C   UNL     1      -1.328  10.667  17.905  0.00  0.00    +0.000 A 
ATOM     23  S   UNL     1      -2.246  10.992  16.561  0.00  0.00    +0.000 S 
ATOM     24  N   UNL     1      -1.710  11.043  19.158  0.00  0.00    +0.000 N 
ATOM     25  C   UNL     1      -0.975  10.831  20.297  0.00  0.00    +0.000 A 
ATOM     26  O   UNL     1      -1.369  11.205  21.396  0.00  0.00    +0.000 OA
ATOM     27  H   UNL     1       0.152   9.765  16.867  0.00  0.00    +0.000 HD
ATOM     28  H   UNL     1      -2.590  11.531  19.263  0.00  0.00    +0.000 HD
BRANCH  19  30
ATOM     29  N   UNL     1       1.932   9.586  22.311  0.00  0.00    +0.000 NA
ATOM     30  C   UNL     1       1.198   9.831  21.315  0.00  0.00    +0.000 C 
ENDBRANCH  19  30
ENDBRANCH  17  20
ENDBRANCH   1  18
TORSDOF 5
ENDMDL
MODEL 6
REMARK VINA RESULT:      -7.3      3.429      4.885
REMARK  Name = 
REMARK  5 active torsions:
REMARK  status: ('A' for Active; 'I' for Inactive)
REMARK    1  A    between atoms: C_2  and  C_3
REMARK    2  A    between atoms: C_4  and  C_5
REMARK    3  A    between atoms: C_6  and  C_7
REMARK    4  A    between atoms: C_12  and  C_13
REMARK    5  A    between atoms: C_17  and  O_18
REMARK                            x       y       z     vdW  Elec       q    Type
REMARK                         _______ _______ _______ _____ _____    ______ ____
ROOT
ATOM      1  C   UNL     1       3.259   6.920  17.644  0.00  0.00    +0.000 A 
ATOM      2  C   UNL     1       4.081   7.692  16.801  0.00  0.00    +0.000 A 
ATOM      3  C   UNL     1       5.289   7.190  16.321  0.00  0.00    +0.000 A 
ATOM      4  C   UNL     1       5.680   5.899  16.656  0.00  0.00    +0.000 A 
ATOM      5  C   UNL     1       4.861   5.109  17.467  0.00  0.00    +0.000 A 
ATOM      6  C   UNL     1       3.635   5.588  17.989  0.00  0.00    +0.000 A 
ENDROOT
BRANCH   6   7
ATOM      7  C   UNL     1       2.842   4.707  18.898  0.00  0.00    +0.000 A 
ATOM      8  C   UNL     1       3.006   4.745  20.296  0.00  0.00    +0.000 A 
ATOM      9  C   UNL     1       2.223   3.951  21.137  0.00  0.00    +0.000 A 
ATOM     10  F   UNL     1       2.421   3.998  22.463  0.00  0.00    +0.000 F 
ATOM     11  C   UNL     1       1.233   3.125  20.627  0.00  0.00    +0.000 A 
ATOM     12  C   UNL     1       1.067   3.054  19.257  0.00  0.00    +0.000 A 
ATOM     13  F   UNL     1       0.112   2.286  18.719  0.00  0.00    +0.000 F 
ATOM     14  C   UNL     1       1.889   3.794  18.408  0.00  0.00    +0.000 A 
BRANCH  11  15
ATOM     15  O   UNL     1       0.437   2.384  21.449  0.00  0.00    +0.000 OA
ATOM     16  H   UNL     1      -0.481   2.708  21.339  0.00  0.00    +0.000 HD
ENDBRANCH  11  15
ENDBRANCH   6   7
BRANCH   1  18
ATOM     17  C   UNL     1       1.941   8.931  18.347  0.00  0.00    +0.000 C 
ATOM     18  C   UNL     1       2.087   7.595  18.239  0.00  0.00    +0.000 C 
BRANCH  17  20
ATOM     19  C   UNL     1       0.388   9.978  20.006  0.00  0.00    +0.000 A 
ATOM     20  C   UNL     1       0.698   9.613  18.740  0.00  0.00    +0.000 A 
ATOM     21  N   UNL     1      -0.159   9.955  17.714  0.00  0.00    +0.000 N 
ATOM     22  C   UNL     1      -1.345  10.597  17.888  0.00  0.00    +0.000 A 
ATOM     23  S   UNL     1      -2.320  10.971  16.598  0.00  0.00    +0.000 S 
ATOM     24  N   UNL     1      -1.684  10.905  19.172  0.00  0.00    +0.000 N 
ATOM     25  C   UNL     1      -0.902  10.650  20.270  0.00  0.00    +0.000 A 
ATOM     26  O   UNL     1      -1.259  10.962  21.401  0.00  0.00    +0.000 OA
ATOM     27  H   UNL     1       0.107   9.774  16.751  0.00  0.00    +0.000 HD
ATOM     28  H   UNL     1      -2.567  11.370  19.335  0.00  0.00    +0.000 HD
BRANCH  19  30
ATOM     29  N   UNL     1       2.101   9.361  22.108  0.00  0.00    +0.000 NA
ATOM     30  C   UNL     1       1.324   9.640  21.154  0.00  0.00    +0.000 C 
ENDBRANCH  19  30
ENDBRANCH  17  20
ENDBRANCH   1  18
TORSDOF 5
ENDMDL
MODEL 7
REMARK VINA RESULT:      -7.3      4.373      7.081
REMARK  Name = 
REMARK  5 active torsions:
REMARK  status: ('A' for Active; 'I' for Inactive)
REMARK    1  A    between atoms: C_2  and  C_3
REMARK    2  A    between atoms: C_4  and  C_5
REMARK    3  A    between atoms: C_6  and  C_7
REMARK    4  A    between atoms: C_12  and  C_13
REMARK    5  A    between atoms: C_17  and  O_18
REMARK                            x       y       z     vdW  Elec       q    Type
REMARK                         _______ _______ _______ _____ _____    ______ ____
ROOT
ATOM      1  C   UNL     1       2.723   3.773  18.673  0.00  0.00    +0.000 A 
ATOM      2  C   UNL     1       2.718   2.381  18.882  0.00  0.00    +0.000 A 
ATOM      3  C   UNL     1       2.046   1.821  19.967  0.00  0.00    +0.000 A 
ATOM      4  C   UNL     1       1.346   2.642  20.842  0.00  0.00    +0.000 A 
ATOM      5  C   UNL     1       1.315   4.023  20.630  0.00  0.00    +0.000 A 
ATOM      6  C   UNL     1       2.000   4.632  19.551  0.00  0.00    +0.000 A 
ENDROOT
BRANCH   6   7
ATOM      7  C   UNL     1       1.971   6.121  19.424  0.00  0.00    +0.000 A 
ATOM      8  C   UNL     1       2.269   6.767  18.208  0.00  0.00    +0.000 A 
ATOM      9  C   UNL     1       2.189   8.156  18.091  0.00  0.00    +0.000 A 
ATOM     10  F   UNL     1       2.501   8.739  16.923  0.00  0.00    +0.000 F 
ATOM     11  C   UNL     1       1.781   8.944  19.156  0.00  0.00    +0.000 A 
ATOM     12  C   UNL     1       1.504   8.336  20.365  0.00  0.00    +0.000 A 
ATOM     13  F   UNL     1       1.088   9.053  21.416  0.00  0.00    +0.000 F 
ATOM     14  C   UNL     1       1.644   6.956  20.509  0.00  0.00    +0.000 A 
BRANCH  11  15
ATOM     15  O   UNL     1       1.659  10.296  19.030  0.00  0.00    +0.000 OA
ATOM     16  H   UNL     1       1.434  10.654  19.914  0.00  0.00    +0.000 HD
ENDBRANCH  11  15
ENDBRANCH   6   7
BRANCH   1  18
ATOM     17  C   UNL     1       4.718   3.672  17.161  0.00  0.00    +0.000 C 
ATOM     18  C   UNL     1       3.602   4.286  17.601  0.00  0.00    +0.000 C 
BRANCH  17  20
ATOM     19  C   UNL     1       6.632   4.764  15.977  0.00  0.00    +0.000 A 
ATOM     20  C   UNL     1       5.476   4.063  15.961  0.00  0.00    +0.000 A 
ATOM     21  N   UNL     1       4.985   3.604  14.755  0.00  0.00    +0.000 N 
ATOM     22  C   UNL     1       5.559   3.856  13.549  0.00  0.00    +0.000 A 
ATOM     23  S   UNL     1       4.904   3.268  12.143  0.00  0.00    +0.000 S 
ATOM     24  N   UNL     1       6.689   4.620  13.564  0.00  0.00    +0.000 N 
ATOM     25  C   UNL     1       7.292   5.103  14.698  0.00  0.00    +0.000 A 
ATOM     26  O   UNL     1       8.315   5.776  14.646  0.00  0.00    +0.000 OA
ATOM     27  H   UNL     1       4.173   2.994  14.738  0.00  0.00    +0.000 HD
ATOM     28  H   UNL     1       7.131   4.836  12.681  0.00  0.00    +0.000 HD
BRANCH  19  30
ATOM     29  N   UNL     1       7.694   5.670  18.383  0.00  0.00    +0.000 NA
ATOM     30  C   UNL     1       7.212   5.260  17.291  0.00  0.00    +0.000 C 
ENDBRANCH  19  30
ENDBRANCH  17  20
ENDBRANCH   1  18
TORSDOF 5
ENDMDL
MODEL 8
REMARK VINA RESULT:      -7.2      3.205      4.692
REMARK  Name = 
REMARK  5 active torsions:
REMARK  status: ('A' for Active; 'I' for Inactive)
REMARK    1  A    between atoms: C_2  and  C_3
REMARK    2  A    between atoms: C_4  and  C_5
REMARK    3  A    between atoms: C_6  and  C_7
REMARK    4  A    between atoms: C_12  and  C_13
REMARK    5  A    between atoms: C_17  and  O_18
REMARK                            x       y       z     vdW  Elec       q    Type
REMARK                         _______ _______ _______ _____ _____    ______ ____
ROOT
ATOM      1  C   UNL     1       4.029   6.164  17.088  0.00  0.00    +0.000 A 
ATOM      2  C   UNL     1       4.756   6.831  16.084  0.00  0.00    +0.000 A 
ATOM      3  C   UNL     1       5.604   6.131  15.227  0.00  0.00    +0.000 A 
ATOM      4  C   UNL     1       5.716   4.751  15.345  0.00  0.00    +0.000 A 
ATOM      5  C   UNL     1       4.977   4.070  16.316  0.00  0.00    +0.000 A 
ATOM      6  C   UNL     1       4.119   4.746  17.217  0.00  0.00    +0.000 A 
ENDROOT
BRANCH   6   7
ATOM      7  C   UNL     1       3.408   3.958  18.268  0.00  0.00    +0.000 A 
ATOM      8  C   UNL     1       4.092   3.395  19.362  0.00  0.00    +0.000 A 
ATOM      9  C   UNL     1       3.407   2.703  20.364  0.00  0.00    +0.000 A 
ATOM     10  F   UNL     1       4.094   2.161  21.381  0.00  0.00    +0.000 F 
ATOM     11  C   UNL     1       2.027   2.577  20.333  0.00  0.00    +0.000 A 
ATOM     12  C   UNL     1       1.335   3.103  19.259  0.00  0.00    +0.000 A 
ATOM     13  F   UNL     1       0.000   3.023  19.195  0.00  0.00    +0.000 F 
ATOM     14  C   UNL     1       2.018   3.738  18.222  0.00  0.00    +0.000 A 
BRANCH  11  15
ATOM     15  O   UNL     1       1.352   1.942  21.333  0.00  0.00    +0.000 OA
ATOM     16  H   UNL     1       1.763   2.209  22.181  0.00  0.00    +0.000 HD
ENDBRANCH  11  15
ENDBRANCH   6   7
BRANCH   1  18
ATOM     17  C   UNL     1       2.742   8.202  17.769  0.00  0.00    +0.000 C 
ATOM     18  C   UNL     1       3.293   7.006  18.054  0.00  0.00    +0.000 C 
BRANCH  17  20
ATOM     19  C   UNL     1       1.422   8.510  19.871  0.00  0.00    +0.000 A 
ATOM     20  C   UNL     1       1.833   8.944  18.658  0.00  0.00    +0.000 A 
ATOM     21  N   UNL     1       1.448  10.197  18.227  0.00  0.00    +0.000 N 
ATOM     22  C   UNL     1       0.625  11.027  18.921  0.00  0.00    +0.000 A 
ATOM     23  S   UNL     1       0.209  12.521  18.330  0.00  0.00    +0.000 S 
ATOM     24  N   UNL     1       0.159  10.558  20.114  0.00  0.00    +0.000 N 
ATOM     25  C   UNL     1       0.497   9.348  20.664  0.00  0.00    +0.000 A 
ATOM     26  O   UNL     1       0.052   8.988  21.749  0.00  0.00    +0.000 OA
ATOM     27  H   UNL     1       1.829  10.574  17.364  0.00  0.00    +0.000 HD
ATOM     28  H   UNL     1      -0.467  11.146  20.647  0.00  0.00    +0.000 HD
BRANCH  19  30
ATOM     29  N   UNL     1       2.206   6.014  20.813  0.00  0.00    +0.000 NA
ATOM     30  C   UNL     1       1.850   7.146  20.386  0.00  0.00    +0.000 C 
ENDBRANCH  19  30
ENDBRANCH  17  20
ENDBRANCH   1  18
TORSDOF 5
ENDMDL
MODEL 9
REMARK VINA RESULT:      -7.0      3.201      4.931
REMARK  Name = 
REMARK  5 active torsions:
REMARK  status: ('A' for Active; 'I' for Inactive)
REMARK    1  A    between atoms: C_2  and  C_3
REMARK    2  A    between atoms: C_4  and  C_5
REMARK    3  A    between atoms: C_6  and  C_7
REMARK    4  A    between atoms: C_12  and  C_13
REMARK    5  A    between atoms: C_17  and  O_18
REMARK                            x       y       z     vdW  Elec       q    Type
REMARK                         _______ _______ _______ _____ _____    ______ ____
ROOT
ATOM      1  C   UNL     1       4.067   6.237  17.060  0.00  0.00    +0.000 A 
ATOM      2  C   UNL     1       4.809   6.852  16.034  0.00  0.00    +0.000 A 
ATOM      3  C   UNL     1       5.610   6.100  15.177  0.00  0.00    +0.000 A 
ATOM      4  C   UNL     1       5.658   4.718  15.316  0.00  0.00    +0.000 A 
ATOM      5  C   UNL     1       4.903   4.088  16.310  0.00  0.00    +0.000 A 
ATOM      6  C   UNL     1       4.092   4.819  17.211  0.00  0.00    +0.000 A 
ENDROOT
BRANCH   6   7
ATOM      7  C   UNL     1       3.360   4.082  18.286  0.00  0.00    +0.000 A 
ATOM      8  C   UNL     1       1.968   3.881  18.231  0.00  0.00    +0.000 A 
ATOM      9  C   UNL     1       1.305   3.148  19.218  0.00  0.00    +0.000 A 
ATOM     10  F   UNL     1      -0.026   2.994  19.144  0.00  0.00    +0.000 F 
ATOM     11  C   UNL     1       1.999   2.564  20.266  0.00  0.00    +0.000 A 
ATOM     12  C   UNL     1       3.363   2.765  20.354  0.00  0.00    +0.000 A 
ATOM     13  F   UNL     1       4.079   2.206  21.337  0.00  0.00    +0.000 F 
ATOM     14  C   UNL     1       4.023   3.551  19.409  0.00  0.00    +0.000 A 
BRANCH  11  15
ATOM     15  O   UNL     1       1.360   1.810  21.205  0.00  0.00    +0.000 OA
ATOM     16  H   UNL     1       1.294   2.351  22.020  0.00  0.00    +0.000 HD
ENDBRANCH  11  15
ENDBRANCH   6   7
BRANCH   1  18
ATOM     17  C   UNL     1       2.692   8.234  17.689  0.00  0.00    +0.000 C 
ATOM     18  C   UNL     1       3.386   7.128  18.023  0.00  0.00    +0.000 C 
BRANCH  17  20
ATOM     19  C   UNL     1       1.456   8.579  19.836  0.00  0.00    +0.000 A 
ATOM     20  C   UNL     1       1.840   9.003  18.611  0.00  0.00    +0.000 A 
ATOM     21  N   UNL     1       1.484  10.270  18.197  0.00  0.00    +0.000 N 
ATOM     22  C   UNL     1       0.714  11.125  18.921  0.00  0.00    +0.000 A 
ATOM     23  S   UNL     1       0.330  12.635  18.349  0.00  0.00    +0.000 S 
ATOM     24  N   UNL     1       0.273  10.668  20.128  0.00  0.00    +0.000 N 
ATOM     25  C   UNL     1       0.588   9.445  20.663  0.00  0.00    +0.000 A 
ATOM     26  O   UNL     1       0.169   9.096  21.761  0.00  0.00    +0.000 OA
ATOM     27  H   UNL     1       1.848  10.637  17.322  0.00  0.00    +0.000 HD
ATOM     28  H   UNL     1      -0.313  11.275  20.684  0.00  0.00    +0.000 HD
BRANCH  19  30
ATOM     29  N   UNL     1       2.185   6.053  20.743  0.00  0.00    +0.000 NA
ATOM     30  C   UNL     1       1.854   7.199  20.332  0.00  0.00    +0.000 C 
ENDBRANCH  19  30
ENDBRANCH  17  20
ENDBRANCH   1  18
TORSDOF 5
ENDMDL
