MODEL 1
REMARK VINA RESULT:      -6.8      0.000      0.000
REMARK  Name = 
REMARK  8 active torsions:
REMARK  status: ('A' for Active; 'I' for Inactive)
REMARK    1  A    between atoms: C_1  and  O_2
REMARK    2  A    between atoms: O_2  and  C_3
REMARK    3  A    between atoms: C_7  and  C_8
REMARK    4  A    between atoms: C_8  and  N_9
REMARK    5  A    between atoms: N_9  and  C_10
REMARK    6  A    between atoms: C_10  and  C_11
REMARK    7  A    between atoms: C_14  and  O_15
REMARK    8  A    between atoms: C_16  and  O_17
REMARK                            x       y       z     vdW  Elec       q    Type
REMARK                         _______ _______ _______ _____ _____    ______ ____
ROOT
ATOM      1  N   UNL     1       5.027   3.323  16.965  0.00  0.00    +0.000 NA
ATOM      2  H   UNL     1       5.147   2.343  16.711  0.00  0.00    +0.000 HD
ENDROOT
BRANCH   1   3
ATOM      3  C   UNL     1       3.621   3.685  16.821  0.00  0.00    +0.000 C 
BRANCH   3   8
ATOM      4  C   UNL     1       1.782   4.196  20.132  0.00  0.00    +0.000 A 
ATOM      5  C   UNL     1       2.016   5.554  20.358  0.00  0.00    +0.000 A 
ATOM      6  C   UNL     1       2.783   6.301  19.464  0.00  0.00    +0.000 A 
ATOM      7  C   UNL     1       3.311   5.692  18.328  0.00  0.00    +0.000 A 
ATOM      8  C   UNL     1       3.087   4.329  18.080  0.00  0.00    +0.000 A 
ATOM      9  C   UNL     1       2.327   3.586  18.999  0.00  0.00    +0.000 A 
BRANCH   4  11
ATOM     10  C   UNL     1       1.582   2.526  21.814  0.00  0.00    +0.000 C 
ATOM     11  O   UNL     1       0.996   3.589  21.074  0.00  0.00    +0.000 OA
ENDBRANCH   4  11
ENDBRANCH   3   8
ENDBRANCH   1   3
BRANCH   1  12
ATOM     12  C   UNL     1       5.877   4.144  16.107  0.00  0.00    +0.000 C 
BRANCH  12  13
ATOM     13  C   UNL     1       6.635   5.163  16.926  0.00  0.00    +0.000 A 
ATOM     14  C   UNL     1       6.829   6.467  16.433  0.00  0.00    +0.000 A 
ATOM     15  C   UNL     1       7.527   7.421  17.179  0.00  0.00    +0.000 A 
ATOM     16  C   UNL     1       8.034   7.068  18.420  0.00  0.00    +0.000 A 
ATOM     17  C   UNL     1       7.852   5.779  18.915  0.00  0.00    +0.000 A 
ATOM     18  C   UNL     1       7.158   4.824  18.183  0.00  0.00    +0.000 A 
BRANCH  16  19
ATOM     19  O   UNL     1       8.727   7.955  19.199  0.00  0.00    +0.000 OA
ATOM     20  H   UNL     1       9.646   7.977  18.879  0.00  0.00    +0.000 HD
ENDBRANCH  16  19
BRANCH  17  21
ATOM     21  O   UNL     1       8.357   5.440  20.137  0.00  0.00    +0.000 OA
ATOM     22  H   UNL     1       7.610   5.005  20.594  0.00  0.00    +0.000 HD
ENDBRANCH  17  21
ENDBRANCH  12  13
ENDBRANCH   1  12
TORSDOF 7
ENDMDL
MODEL 2
REMARK VINA RESULT:      -6.7      0.951      1.890
REMARK  Name = 
REMARK  8 active torsions:
REMARK  status: ('A' for Active; 'I' for Inactive)
REMARK    1  A    between atoms: C_1  and  O_2
REMARK    2  A    between atoms: O_2  and  C_3
REMARK    3  A    between atoms: C_7  and  C_8
REMARK    4  A    between atoms: C_8  and  N_9
REMARK    5  A    between atoms: N_9  and  C_10
REMARK    6  A    between atoms: C_10  and  C_11
REMARK    7  A    between atoms: C_14  and  O_15
REMARK    8  A    between atoms: C_16  and  O_17
REMARK                            x       y       z     vdW  Elec       q    Type
REMARK                         _______ _______ _______ _____ _____    ______ ____
ROOT
ATOM      1  N   UNL     1       4.788   3.241  17.178  0.00  0.00    +0.000 NA
ATOM      2  H   UNL     1       4.795   2.245  16.963  0.00  0.00    +0.000 HD
ENDROOT
BRANCH   1   3
ATOM      3  C   UNL     1       3.429   3.752  17.026  0.00  0.00    +0.000 C 
BRANCH   3   8
ATOM      4  C   UNL     1       1.834   5.192  20.187  0.00  0.00    +0.000 A 
ATOM      5  C   UNL     1       1.518   4.022  20.881  0.00  0.00    +0.000 A 
ATOM      6  C   UNL     1       1.793   2.772  20.328  0.00  0.00    +0.000 A 
ATOM      7  C   UNL     1       2.399   2.686  19.076  0.00  0.00    +0.000 A 
ATOM      8  C   UNL     1       2.726   3.849  18.362  0.00  0.00    +0.000 A 
ATOM      9  C   UNL     1       2.427   5.102  18.926  0.00  0.00    +0.000 A 
BRANCH   4  11
ATOM     10  C   UNL     1       1.887   7.570  20.219  0.00  0.00    +0.000 C 
ATOM     11  O   UNL     1       1.532   6.349  20.853  0.00  0.00    +0.000 OA
ENDBRANCH   4  11
ENDBRANCH   3   8
ENDBRANCH   1   3
BRANCH   1  12
ATOM     12  C   UNL     1       5.715   3.929  16.284  0.00  0.00    +0.000 C 
BRANCH  12  13
ATOM     13  C   UNL     1       6.500   4.979  17.036  0.00  0.00    +0.000 A 
ATOM     14  C   UNL     1       6.656   6.269  16.496  0.00  0.00    +0.000 A 
ATOM     15  C   UNL     1       7.378   7.253  17.178  0.00  0.00    +0.000 A 
ATOM     16  C   UNL     1       7.947   6.942  18.404  0.00  0.00    +0.000 A 
ATOM     17  C   UNL     1       7.802   5.667  18.946  0.00  0.00    +0.000 A 
ATOM     18  C   UNL     1       7.085   4.684  18.276  0.00  0.00    +0.000 A 
BRANCH  16  19
ATOM     19  O   UNL     1       8.666   7.859  19.122  0.00  0.00    +0.000 OA
ATOM     20  H   UNL     1       9.486   7.427  19.420  0.00  0.00    +0.000 HD
ENDBRANCH  16  19
BRANCH  17  21
ATOM     21  O   UNL     1       8.368   5.370  20.152  0.00  0.00    +0.000 OA
ATOM     22  H   UNL     1       9.177   4.871  19.922  0.00  0.00    +0.000 HD
ENDBRANCH  17  21
ENDBRANCH  12  13
ENDBRANCH   1  12
TORSDOF 7
ENDMDL
MODEL 3
REMARK VINA RESULT:      -6.6      2.331      5.970
REMARK  Name = 
REMARK  8 active torsions:
REMARK  status: ('A' for Active; 'I' for Inactive)
REMARK    1  A    between atoms: C_1  and  O_2
REMARK    2  A    between atoms: O_2  and  C_3
REMARK    3  A    between atoms: C_7  and  C_8
REMARK    4  A    between atoms: C_8  and  N_9
REMARK    5  A    between atoms: N_9  and  C_10
REMARK    6  A    between atoms: C_10  and  C_11
REMARK    7  A    between atoms: C_14  and  O_15
REMARK    8  A    between atoms: C_16  and  O_17
REMARK                            x       y       z     vdW  Elec       q    Type
REMARK                         _______ _______ _______ _____ _____    ______ ____
ROOT
ATOM      1  N   UNL     1       2.976   6.650  19.047  0.00  0.00    +0.000 NA
ATOM      2  H   UNL     1       2.625   7.571  19.308  0.00  0.00    +0.000 HD
ENDROOT
BRANCH   1   3
ATOM      3  C   UNL     1       3.040   6.560  17.591  0.00  0.00    +0.000 C 
BRANCH   3   8
ATOM      4  C   UNL     1       6.795   6.562  16.876  0.00  0.00    +0.000 A 
ATOM      5  C   UNL     1       6.932   5.360  16.178  0.00  0.00    +0.000 A 
ATOM      6  C   UNL     1       5.829   4.538  15.958  0.00  0.00    +0.000 A 
ATOM      7  C   UNL     1       4.574   4.920  16.426  0.00  0.00    +0.000 A 
ATOM      8  C   UNL     1       4.412   6.124  17.128  0.00  0.00    +0.000 A 
ATOM      9  C   UNL     1       5.537   6.935  17.358  0.00  0.00    +0.000 A 
BRANCH   4  11
ATOM     10  C   UNL     1       7.871   8.509  17.718  0.00  0.00    +0.000 C 
ATOM     11  O   UNL     1       7.951   7.283  17.002  0.00  0.00    +0.000 OA
ENDBRANCH   4  11
ENDBRANCH   3   8
ENDBRANCH   1   3
BRANCH   1  12
ATOM     12  C   UNL     1       2.092   5.629  19.603  0.00  0.00    +0.000 C 
BRANCH  12  13
ATOM     13  C   UNL     1       2.599   4.246  19.267  0.00  0.00    +0.000 A 
ATOM     14  C   UNL     1       1.960   3.478  18.276  0.00  0.00    +0.000 A 
ATOM     15  C   UNL     1       2.417   2.197  17.952  0.00  0.00    +0.000 A 
ATOM     16  C   UNL     1       3.516   1.683  18.625  0.00  0.00    +0.000 A 
ATOM     17  C   UNL     1       4.153   2.433  19.611  0.00  0.00    +0.000 A 
ATOM     18  C   UNL     1       3.708   3.708  19.937  0.00  0.00    +0.000 A 
BRANCH  16  19
ATOM     19  O   UNL     1       4.012   0.437  18.356  0.00  0.00    +0.000 OA
ATOM     20  H   UNL     1       3.929  -0.099  19.165  0.00  0.00    +0.000 HD
ENDBRANCH  16  19
BRANCH  17  21
ATOM     21  O   UNL     1       5.233   1.918  20.269  0.00  0.00    +0.000 OA
ATOM     22  H   UNL     1       5.657   2.697  20.681  0.00  0.00    +0.000 HD
ENDBRANCH  17  21
ENDBRANCH  12  13
ENDBRANCH   1  12
TORSDOF 7
ENDMDL
MODEL 4
REMARK VINA RESULT:      -6.6      2.575      5.600
REMARK  Name = 
REMARK  8 active torsions:
REMARK  status: ('A' for Active; 'I' for Inactive)
REMARK    1  A    between atoms: C_1  and  O_2
REMARK    2  A    between atoms: O_2  and  C_3
REMARK    3  A    between atoms: C_7  and  C_8
REMARK    4  A    between atoms: C_8  and  N_9
REMARK    5  A    between atoms: N_9  and  C_10
REMARK    6  A    between atoms: C_10  and  C_11
REMARK    7  A    between atoms: C_14  and  O_15
REMARK    8  A    between atoms: C_16  and  O_17
REMARK                            x       y       z     vdW  Elec       q    Type
REMARK                         _______ _______ _______ _____ _____    ______ ____
ROOT
ATOM      1  N   UNL     1       2.190   5.630  21.043  0.00  0.00    +0.000 NA
ATOM      2  H   UNL     1       1.861   6.053  21.910  0.00  0.00    +0.000 HD
ENDROOT
BRANCH   1   3
ATOM      3  C   UNL     1       2.165   6.634  19.984  0.00  0.00    +0.000 C 
BRANCH   3   8
ATOM      4  C   UNL     1       5.540   5.566  18.545  0.00  0.00    +0.000 A 
ATOM      5  C   UNL     1       5.525   6.227  17.315  0.00  0.00    +0.000 A 
ATOM      6  C   UNL     1       4.425   6.994  16.935  0.00  0.00    +0.000 A 
ATOM      7  C   UNL     1       3.334   7.115  17.793  0.00  0.00    +0.000 A 
ATOM      8  C   UNL     1       3.329   6.461  19.035  0.00  0.00    +0.000 A 
ATOM      9  C   UNL     1       4.438   5.676  19.396  0.00  0.00    +0.000 A 
BRANCH   4  11
ATOM     10  C   UNL     1       7.557   4.626  17.702  0.00  0.00    +0.000 C 
ATOM     11  O   UNL     1       6.688   4.866  18.802  0.00  0.00    +0.000 OA
ENDBRANCH   4  11
ENDBRANCH   3   8
ENDBRANCH   1   3
BRANCH   1  12
ATOM     12  C   UNL     1       1.336   4.492  20.714  0.00  0.00    +0.000 C 
BRANCH  12  13
ATOM     13  C   UNL     1       2.111   3.452  19.938  0.00  0.00    +0.000 A 
ATOM     14  C   UNL     1       1.640   3.002  18.691  0.00  0.00    +0.000 A 
ATOM     15  C   UNL     1       2.344   2.041  17.960  0.00  0.00    +0.000 A 
ATOM     16  C   UNL     1       3.523   1.528  18.481  0.00  0.00    +0.000 A 
ATOM     17  C   UNL     1       3.996   1.963  19.717  0.00  0.00    +0.000 A 
ATOM     18  C   UNL     1       3.303   2.919  20.449  0.00  0.00    +0.000 A 
BRANCH  16  19
ATOM     19  O   UNL     1       4.259   0.586  17.816  0.00  0.00    +0.000 OA
ATOM     20  H   UNL     1       3.641   0.016  17.326  0.00  0.00    +0.000 HD
ENDBRANCH  16  19
BRANCH  17  21
ATOM     21  O   UNL     1       5.156   1.451  20.223  0.00  0.00    +0.000 OA
ATOM     22  H   UNL     1       5.245   0.581  19.784  0.00  0.00    +0.000 HD
ENDBRANCH  17  21
ENDBRANCH  12  13
ENDBRANCH   1  12
TORSDOF 7
ENDMDL
MODEL 5
REMARK VINA RESULT:      -6.6      2.727      5.909
REMARK  Name = 
REMARK  8 active torsions:
REMARK  status: ('A' for Active; 'I' for Inactive)
REMARK    1  A    between atoms: C_1  and  O_2
REMARK    2  A    between atoms: O_2  and  C_3
REMARK    3  A    between atoms: C_7  and  C_8
REMARK    4  A    between atoms: C_8  and  N_9
REMARK    5  A    between atoms: N_9  and  C_10
REMARK    6  A    between atoms: C_10  and  C_11
REMARK    7  A    between atoms: C_14  and  O_15
REMARK    8  A    between atoms: C_16  and  O_17
REMARK                            x       y       z     vdW  Elec       q    Type
REMARK                         _______ _______ _______ _____ _____    ______ ____
ROOT
ATOM      1  N   UNL     1       2.896   6.613  17.734  0.00  0.00    +0.000 NA
ATOM      2  H   UNL     1       2.949   5.998  16.923  0.00  0.00    +0.000 HD
ENDROOT
BRANCH   1   3
ATOM      3  C   UNL     1       4.205   7.215  17.963  0.00  0.00    +0.000 C 
BRANCH   3   8
ATOM      4  C   UNL     1       6.327   5.289  15.434  0.00  0.00    +0.000 A 
ATOM      5  C   UNL     1       7.297   4.733  16.270  0.00  0.00    +0.000 A 
ATOM      6  C   UNL     1       7.287   4.994  17.640  0.00  0.00    +0.000 A 
ATOM      7  C   UNL     1       6.295   5.807  18.184  0.00  0.00    +0.000 A 
ATOM      8  C   UNL     1       5.309   6.375  17.362  0.00  0.00    +0.000 A 
ATOM      9  C   UNL     1       5.343   6.116  15.980  0.00  0.00    +0.000 A 
BRANCH   4  11
ATOM     10  C   UNL     1       5.817   3.720  13.720  0.00  0.00    +0.000 C 
ATOM     11  O   UNL     1       6.439   4.935  14.117  0.00  0.00    +0.000 OA
ENDBRANCH   4  11
ENDBRANCH   3   8
ENDBRANCH   1   3
BRANCH   1  12
ATOM     12  C   UNL     1       2.459   5.838  18.892  0.00  0.00    +0.000 C 
BRANCH  12  13
ATOM     13  C   UNL     1       2.872   4.391  18.751  0.00  0.00    +0.000 A 
ATOM     14  C   UNL     1       2.317   3.591  17.735  0.00  0.00    +0.000 A 
ATOM     15  C   UNL     1       2.689   2.252  17.590  0.00  0.00    +0.000 A 
ATOM     16  C   UNL     1       3.617   1.711  18.467  0.00  0.00    +0.000 A 
ATOM     17  C   UNL     1       4.168   2.492  19.480  0.00  0.00    +0.000 A 
ATOM     18  C   UNL     1       3.807   3.825  19.630  0.00  0.00    +0.000 A 
BRANCH  16  19
ATOM     19  O   UNL     1       4.022   0.407  18.379  0.00  0.00    +0.000 OA
ATOM     20  H   UNL     1       3.553  -0.098  19.066  0.00  0.00    +0.000 HD
ENDBRANCH  16  19
BRANCH  17  21
ATOM     21  O   UNL     1       5.080   1.950  20.340  0.00  0.00    +0.000 OA
ATOM     22  H   UNL     1       5.896   2.466  20.182  0.00  0.00    +0.000 HD
ENDBRANCH  17  21
ENDBRANCH  12  13
ENDBRANCH   1  12
TORSDOF 7
ENDMDL
MODEL 6
REMARK VINA RESULT:      -6.5      2.380      3.332
REMARK  Name = 
REMARK  8 active torsions:
REMARK  status: ('A' for Active; 'I' for Inactive)
REMARK    1  A    between atoms: C_1  and  O_2
REMARK    2  A    between atoms: O_2  and  C_3
REMARK    3  A    between atoms: C_7  and  C_8
REMARK    4  A    between atoms: C_8  and  N_9
REMARK    5  A    between atoms: N_9  and  C_10
REMARK    6  A    between atoms: C_10  and  C_11
REMARK    7  A    between atoms: C_14  and  O_15
REMARK    8  A    between atoms: C_16  and  O_17
REMARK                            x       y       z     vdW  Elec       q    Type
REMARK                         _______ _______ _______ _____ _____    ______ ____
ROOT
ATOM      1  N   UNL     1       2.564   6.784  17.974  0.00  0.00    +0.000 NA
ATOM      2  H   UNL     1       1.711   7.292  17.747  0.00  0.00    +0.000 HD
ENDROOT
BRANCH   1   3
ATOM      3  C   UNL     1       2.691   6.688  19.424  0.00  0.00    +0.000 C 
BRANCH   3   8
ATOM      4  C   UNL     1       3.345   2.961  19.965  0.00  0.00    +0.000 A 
ATOM      5  C   UNL     1       2.205   2.593  20.682  0.00  0.00    +0.000 A 
ATOM      6  C   UNL     1       1.239   3.542  21.015  0.00  0.00    +0.000 A 
ATOM      7  C   UNL     1       1.403   4.867  20.618  0.00  0.00    +0.000 A 
ATOM      8  C   UNL     1       2.540   5.259  19.895  0.00  0.00    +0.000 A 
ATOM      9  C   UNL     1       3.514   4.294  19.583  0.00  0.00    +0.000 A 
BRANCH   4  11
ATOM     10  C   UNL     1       3.904   1.136  18.544  0.00  0.00    +0.000 C 
ATOM     11  O   UNL     1       4.200   1.930  19.686  0.00  0.00    +0.000 OA
ENDBRANCH   4  11
ENDBRANCH   3   8
ENDBRANCH   1   3
BRANCH   1  12
ATOM     12  C   UNL     1       3.705   7.482  17.387  0.00  0.00    +0.000 C 
BRANCH  12  13
ATOM     13  C   UNL     1       4.908   6.571  17.315  0.00  0.00    +0.000 A 
ATOM     14  C   UNL     1       6.137   6.975  17.868  0.00  0.00    +0.000 A 
ATOM     15  C   UNL     1       7.260   6.143  17.811  0.00  0.00    +0.000 A 
ATOM     16  C   UNL     1       7.151   4.906  17.195  0.00  0.00    +0.000 A 
ATOM     17  C   UNL     1       5.940   4.498  16.640  0.00  0.00    +0.000 A 
ATOM     18  C   UNL     1       4.819   5.316  16.694  0.00  0.00    +0.000 A 
BRANCH  16  19
ATOM     19  O   UNL     1       8.211   4.046  17.106  0.00  0.00    +0.000 OA
ATOM     20  H   UNL     1       8.743   4.143  17.916  0.00  0.00    +0.000 HD
ENDBRANCH  16  19
BRANCH  17  21
ATOM     21  O   UNL     1       5.843   3.279  16.034  0.00  0.00    +0.000 OA
ATOM     22  H   UNL     1       6.743   2.902  16.107  0.00  0.00    +0.000 HD
ENDBRANCH  17  21
ENDBRANCH  12  13
ENDBRANCH   1  12
TORSDOF 7
ENDMDL
MODEL 7
REMARK VINA RESULT:      -6.5      3.591      6.669
REMARK  Name = 
REMARK  8 active torsions:
REMARK  status: ('A' for Active; 'I' for Inactive)
REMARK    1  A    between atoms: C_1  and  O_2
REMARK    2  A    between atoms: O_2  and  C_3
REMARK    3  A    between atoms: C_7  and  C_8
REMARK    4  A    between atoms: C_8  and  N_9
REMARK    5  A    between atoms: N_9  and  C_10
REMARK    6  A    between atoms: C_10  and  C_11
REMARK    7  A    between atoms: C_14  and  O_15
REMARK    8  A    between atoms: C_16  and  O_17
REMARK                            x       y       z     vdW  Elec       q    Type
REMARK                         _______ _______ _______ _____ _____    ______ ____
ROOT
ATOM      1  N   UNL     1       5.679   6.273  16.226  0.00  0.00    +0.000 NA
ATOM      2  H   UNL     1       4.910   6.154  15.569  0.00  0.00    +0.000 HD
ENDROOT
BRANCH   1   3
ATOM      3  C   UNL     1       6.663   5.218  16.005  0.00  0.00    +0.000 C 
BRANCH   3   8
ATOM      4  C   UNL     1       6.014   3.550  12.628  0.00  0.00    +0.000 A 
ATOM      5  C   UNL     1       7.023   4.124  11.850  0.00  0.00    +0.000 A 
ATOM      6  C   UNL     1       7.894   5.063  12.400  0.00  0.00    +0.000 A 
ATOM      7  C   UNL     1       7.769   5.425  13.739  0.00  0.00    +0.000 A 
ATOM      8  C   UNL     1       6.764   4.860  14.539  0.00  0.00    +0.000 A 
ATOM      9  C   UNL     1       5.882   3.927  13.966  0.00  0.00    +0.000 A 
BRANCH   4  11
ATOM     10  C   UNL     1       4.120   3.121  11.255  0.00  0.00    +0.000 C 
ATOM     11  O   UNL     1       5.244   2.629  11.972  0.00  0.00    +0.000 OA
ENDBRANCH   4  11
ENDBRANCH   3   8
ENDBRANCH   1   3
BRANCH   1  12
ATOM     12  C   UNL     1       5.154   6.231  17.588  0.00  0.00    +0.000 C 
BRANCH  12  13
ATOM     13  C   UNL     1       4.496   4.900  17.864  0.00  0.00    +0.000 A 
ATOM     14  C   UNL     1       3.321   4.534  17.181  0.00  0.00    +0.000 A 
ATOM     15  C   UNL     1       2.699   3.306  17.424  0.00  0.00    +0.000 A 
ATOM     16  C   UNL     1       3.256   2.442  18.355  0.00  0.00    +0.000 A 
ATOM     17  C   UNL     1       4.416   2.795  19.040  0.00  0.00    +0.000 A 
ATOM     18  C   UNL     1       5.041   4.013  18.804  0.00  0.00    +0.000 A 
BRANCH  16  19
ATOM     19  O   UNL     1       2.697   1.225  18.639  0.00  0.00    +0.000 OA
ATOM     20  H   UNL     1       2.857   0.640  17.878  0.00  0.00    +0.000 HD
ENDBRANCH  16  19
BRANCH  17  21
ATOM     21  O   UNL     1       4.955   1.939  19.956  0.00  0.00    +0.000 OA
ATOM     22  H   UNL     1       5.655   1.467  19.462  0.00  0.00    +0.000 HD
ENDBRANCH  17  21
ENDBRANCH  12  13
ENDBRANCH   1  12
TORSDOF 7
ENDMDL
MODEL 8
REMARK VINA RESULT:      -6.5      3.012      4.115
REMARK  Name = 
REMARK  8 active torsions:
REMARK  status: ('A' for Active; 'I' for Inactive)
REMARK    1  A    between atoms: C_1  and  O_2
REMARK    2  A    between atoms: O_2  and  C_3
REMARK    3  A    between atoms: C_7  and  C_8
REMARK    4  A    between atoms: C_8  and  N_9
REMARK    5  A    between atoms: N_9  and  C_10
REMARK    6  A    between atoms: C_10  and  C_11
REMARK    7  A    between atoms: C_14  and  O_15
REMARK    8  A    between atoms: C_16  and  O_17
REMARK                            x       y       z     vdW  Elec       q    Type
REMARK                         _______ _______ _______ _____ _____    ______ ____
ROOT
ATOM      1  N   UNL     1       4.169   5.467  19.817  0.00  0.00    +0.000 NA
ATOM      2  H   UNL     1       4.535   5.419  20.767  0.00  0.00    +0.000 HD
ENDROOT
BRANCH   1   3
ATOM      3  C   UNL     1       2.724   5.659  19.871  0.00  0.00    +0.000 C 
BRANCH   3   8
ATOM      4  C   UNL     1       1.191   9.161  19.861  0.00  0.00    +0.000 A 
ATOM      5  C   UNL     1       1.540   9.599  18.582  0.00  0.00    +0.000 A 
ATOM      6  C   UNL     1       2.286   8.784  17.732  0.00  0.00    +0.000 A 
ATOM      7  C   UNL     1       2.678   7.516  18.154  0.00  0.00    +0.000 A 
ATOM      8  C   UNL     1       2.338   7.055  19.435  0.00  0.00    +0.000 A 
ATOM      9  C   UNL     1       1.601   7.895  20.288  0.00  0.00    +0.000 A 
BRANCH   4  11
ATOM     10  C   UNL     1       0.423   9.881  21.995  0.00  0.00    +0.000 C 
ATOM     11  O   UNL     1       0.441  10.049  20.583  0.00  0.00    +0.000 OA
ENDBRANCH   4  11
ENDBRANCH   3   8
ENDBRANCH   1   3
BRANCH   1  12
ATOM     12  C   UNL     1       4.514   4.236  19.111  0.00  0.00    +0.000 C 
BRANCH  12  13
ATOM     13  C   UNL     1       5.314   4.542  17.866  0.00  0.00    +0.000 A 
ATOM     14  C   UNL     1       5.195   3.722  16.728  0.00  0.00    +0.000 A 
ATOM     15  C   UNL     1       5.927   3.992  15.568  0.00  0.00    +0.000 A 
ATOM     16  C   UNL     1       6.782   5.083  15.549  0.00  0.00    +0.000 A 
ATOM     17  C   UNL     1       6.911   5.898  16.671  0.00  0.00    +0.000 A 
ATOM     18  C   UNL     1       6.186   5.640  17.827  0.00  0.00    +0.000 A 
BRANCH  16  19
ATOM     19  O   UNL     1       7.527   5.401  14.445  0.00  0.00    +0.000 OA
ATOM     20  H   UNL     1       6.950   5.880  13.825  0.00  0.00    +0.000 HD
ENDBRANCH  16  19
BRANCH  17  21
ATOM     21  O   UNL     1       7.757   6.969  16.643  0.00  0.00    +0.000 OA
ATOM     22  H   UNL     1       7.185   7.733  16.858  0.00  0.00    +0.000 HD
ENDBRANCH  17  21
ENDBRANCH  12  13
ENDBRANCH   1  12
TORSDOF 7
ENDMDL
MODEL 9
REMARK VINA RESULT:      -6.3      4.081      5.958
REMARK  Name = 
REMARK  8 active torsions:
REMARK  status: ('A' for Active; 'I' for Inactive)
REMARK    1  A    between atoms: C_1  and  O_2
REMARK    2  A    between atoms: O_2  and  C_3
REMARK    3  A    between atoms: C_7  and  C_8
REMARK    4  A    between atoms: C_8  and  N_9
REMARK    5  A    between atoms: N_9  and  C_10
REMARK    6  A    between atoms: C_10  and  C_11
REMARK    7  A    between atoms: C_14  and  O_15
REMARK    8  A    between atoms: C_16  and  O_17
REMARK                            x       y       z     vdW  Elec       q    Type
REMARK                         _______ _______ _______ _____ _____    ______ ____
ROOT
ATOM      1  N   UNL     1       2.422   5.946  20.725  0.00  0.00    +0.000 NA
ATOM      2  H   UNL     1       1.981   6.596  21.375  0.00  0.00    +0.000 HD
ENDROOT
BRANCH   1   3
ATOM      3  C   UNL     1       2.809   6.667  19.517  0.00  0.00    +0.000 C 
BRANCH   3   8
ATOM      4  C   UNL     1       0.587   9.674  20.309  0.00  0.00    +0.000 A 
ATOM      5  C   UNL     1       0.455  10.248  19.042  0.00  0.00    +0.000 A 
ATOM      6  C   UNL     1       1.097   9.686  17.939  0.00  0.00    +0.000 A 
ATOM      7  C   UNL     1       1.868   8.536  18.096  0.00  0.00    +0.000 A 
ATOM      8  C   UNL     1       2.013   7.943  19.360  0.00  0.00    +0.000 A 
ATOM      9  C   UNL     1       1.373   8.530  20.465  0.00  0.00    +0.000 A 
BRANCH   4  11
ATOM     10  C   UNL     1       0.039  11.722  21.388  0.00  0.00    +0.000 C 
ATOM     11  O   UNL     1      -0.112  10.311  21.298  0.00  0.00    +0.000 OA
ENDBRANCH   4  11
ENDBRANCH   3   8
ENDBRANCH   1   3
BRANCH   1  12
ATOM     12  C   UNL     1       1.485   4.868  20.422  0.00  0.00    +0.000 C 
BRANCH  12  13
ATOM     13  C   UNL     1       2.195   3.719  19.743  0.00  0.00    +0.000 A 
ATOM     14  C   UNL     1       1.659   3.143  18.577  0.00  0.00    +0.000 A 
ATOM     15  C   UNL     1       2.305   2.081  17.936  0.00  0.00    +0.000 A 
ATOM     16  C   UNL     1       3.489   1.594  18.468  0.00  0.00    +0.000 A 
ATOM     17  C   UNL     1       4.026   2.154  19.625  0.00  0.00    +0.000 A 
ATOM     18  C   UNL     1       3.393   3.210  20.266  0.00  0.00    +0.000 A 
BRANCH  16  19
ATOM     19  O   UNL     1       4.169   0.557  17.890  0.00  0.00    +0.000 OA
ATOM     20  H   UNL     1       5.114   0.791  17.875  0.00  0.00    +0.000 HD
ENDBRANCH  16  19
BRANCH  17  21
ATOM     21  O   UNL     1       5.192   1.665  20.141  0.00  0.00    +0.000 OA
ATOM     22  H   UNL     1       5.876   1.953  19.505  0.00  0.00    +0.000 HD
ENDBRANCH  17  21
ENDBRANCH  12  13
ENDBRANCH   1  12
TORSDOF 7
ENDMDL
