MODEL 1
REMARK VINA RESULT:      -9.5      0.000      0.000
REMARK  Name = 
REMARK  7 active torsions:
REMARK  status: ('A' for Active; 'I' for Inactive)
REMARK    1  A    between atoms: C_1  and  C_2
REMARK    2  A    between atoms: C_6  and  S_7
REMARK    3  A    between atoms: S_7  and  N_10
REMARK    4  A    between atoms: C_11  and  C_13
REMARK    5  A    between atoms: C_13  and  C_14
REMARK    6  A    between atoms: C_18  and  C_20
REMARK    7  A    between atoms: C_20  and  C_21
REMARK                            x       y       z     vdW  Elec       q    Type
REMARK                         _______ _______ _______ _____ _____    ______ ____
ROOT
ATOM      1  C   UNL     1       3.964   3.823  18.535  0.00  0.00    +0.000 C 
ATOM      2  C   UNL     1       3.401   3.220  17.233  0.00  0.00    +0.000 C 
ATOM      3  C   UNL     1       4.141   2.718  19.625  0.00  0.00    +0.000 C 
ATOM      4  C   UNL     1       2.711   3.010  20.069  0.00  0.00    +0.000 C 
ATOM      5  N   UNL     1       2.896   4.321  19.432  0.00  0.00    +0.000 N 
ATOM      6  C   UNL     1       2.192   5.449  19.787  0.00  0.00    +0.000 C 
ATOM      7  O   UNL     1       1.386   5.395  20.715  0.00  0.00    +0.000 OA
ENDROOT
BRANCH   1   9
ATOM      8  N   UNL     1       5.686   4.741  16.934  0.00  0.00    +0.000 N 
ATOM      9  C   UNL     1       5.312   4.626  18.279  0.00  0.00    +0.000 C 
ATOM     10  O   UNL     1       5.972   5.156  19.170  0.00  0.00    +0.000 OA
ATOM     11  H   UNL     1       5.134   4.281  16.223  0.00  0.00    +0.000 HD
BRANCH   8  12
ATOM     12  S   UNL     1       7.199   5.178  16.410  0.00  0.00    +0.000 S 
ATOM     13  O   UNL     1       8.115   4.185  16.943  0.00  0.00    +0.000 OA
ATOM     14  O   UNL     1       7.437   6.585  16.652  0.00  0.00    +0.000 OA
BRANCH  12  20
ATOM     15  C   UNL     1       5.023   2.799  12.257  0.00  0.00    +0.000 C 
ATOM     16  C   UNL     1       6.065   3.735  12.797  0.00  0.00    +0.000 A 
ATOM     17  C   UNL     1       6.977   4.367  11.940  0.00  0.00    +0.000 A 
ATOM     18  C   UNL     1       7.940   5.246  12.446  0.00  0.00    +0.000 A 
ATOM     19  C   UNL     1       8.004   5.511  13.809  0.00  0.00    +0.000 A 
ATOM     20  C   UNL     1       7.089   4.892  14.663  0.00  0.00    +0.000 A 
ATOM     21  C   UNL     1       6.125   4.006  14.168  0.00  0.00    +0.000 A 
ENDBRANCH  12  20
ENDBRANCH   8  12
ENDBRANCH   1   9
BRANCH   6  22
ATOM     22  C   UNL     1       2.392   6.792  19.104  0.00  0.00    +0.000 C 
ATOM     23  C   UNL     1       3.511   7.022  18.096  0.00  0.00    +0.000 C 
ATOM     24  C   UNL     1       2.134   6.798  17.585  0.00  0.00    +0.000 C 
BRANCH  22  25
ATOM     25  C   UNL     1       1.801   8.008  19.895  0.00  0.00    +0.000 A 
ATOM     26  C   UNL     1       1.575   7.972  21.286  0.00  0.00    +0.000 A 
ATOM     27  C   UNL     1       0.956   9.026  21.977  0.00  0.00    +0.000 A 
ATOM     28  C   UNL     1       0.519  10.144  21.283  0.00  0.00    +0.000 A 
ATOM     29 CL   UNL     1      -0.311  11.403  22.109  0.00  0.00    +0.000 Cl
ATOM     30  C   UNL     1       0.723  10.227  19.914  0.00  0.00    +0.000 A 
ATOM     31  C   UNL     1       1.351   9.173  19.237  0.00  0.00    +0.000 A 
ENDBRANCH  22  25
ENDBRANCH   6  22
TORSDOF 5
ENDMDL
MODEL 2
REMARK VINA RESULT:      -9.1      0.420      1.262
REMARK  Name = 
REMARK  7 active torsions:
REMARK  status: ('A' for Active; 'I' for Inactive)
REMARK    1  A    between atoms: C_1  and  C_2
REMARK    2  A    between atoms: C_6  and  S_7
REMARK    3  A    between atoms: S_7  and  N_10
REMARK    4  A    between atoms: C_11  and  C_13
REMARK    5  A    between atoms: C_13  and  C_14
REMARK    6  A    between atoms: C_18  and  C_20
REMARK    7  A    between atoms: C_20  and  C_21
REMARK                            x       y       z     vdW  Elec       q    Type
REMARK                         _______ _______ _______ _____ _____    ______ ____
ROOT
ATOM      1  C   UNL     1       4.104   3.592  18.847  0.00  0.00    +0.000 C 
ATOM      2  C   UNL     1       3.562   2.902  17.580  0.00  0.00    +0.000 C 
ATOM      3  C   UNL     1       4.287   2.558  20.004  0.00  0.00    +0.000 C 
ATOM      4  C   UNL     1       2.849   2.855  20.418  0.00  0.00    +0.000 C 
ATOM      5  N   UNL     1       3.020   4.127  19.704  0.00  0.00    +0.000 N 
ATOM      6  C   UNL     1       2.297   5.264  19.983  0.00  0.00    +0.000 C 
ATOM      7  O   UNL     1       1.483   5.253  20.907  0.00  0.00    +0.000 OA
ENDROOT
BRANCH   1   9
ATOM      8  N   UNL     1       5.712   4.624  17.198  0.00  0.00    +0.000 N 
ATOM      9  C   UNL     1       5.441   4.399  18.554  0.00  0.00    +0.000 C 
ATOM     10  O   UNL     1       6.179   4.844  19.431  0.00  0.00    +0.000 OA
ATOM     11  H   UNL     1       5.097   4.232  16.497  0.00  0.00    +0.000 HD
BRANCH   8  12
ATOM     12  S   UNL     1       7.186   5.087  16.593  0.00  0.00    +0.000 S 
ATOM     13  O   UNL     1       8.158   4.153  17.136  0.00  0.00    +0.000 OA
ATOM     14  O   UNL     1       7.382   6.511  16.760  0.00  0.00    +0.000 OA
BRANCH  12  20
ATOM     15  C   UNL     1       8.209   6.105  11.538  0.00  0.00    +0.000 C 
ATOM     16  C   UNL     1       7.503   5.259  12.557  0.00  0.00    +0.000 A 
ATOM     17  C   UNL     1       6.686   4.191  12.163  0.00  0.00    +0.000 A 
ATOM     18  C   UNL     1       6.038   3.398  13.116  0.00  0.00    +0.000 A 
ATOM     19  C   UNL     1       6.199   3.656  14.472  0.00  0.00    +0.000 A 
ATOM     20  C   UNL     1       7.021   4.713  14.867  0.00  0.00    +0.000 A 
ATOM     21  C   UNL     1       7.669   5.516  13.922  0.00  0.00    +0.000 A 
ENDBRANCH  12  20
ENDBRANCH   8  12
ENDBRANCH   1   9
BRANCH   6  22
ATOM     22  C   UNL     1       2.482   6.565  19.221  0.00  0.00    +0.000 C 
ATOM     23  C   UNL     1       3.606   6.751  18.209  0.00  0.00    +0.000 C 
ATOM     24  C   UNL     1       2.237   6.475  17.703  0.00  0.00    +0.000 C 
BRANCH  22  25
ATOM     25  C   UNL     1       1.866   7.818  19.932  0.00  0.00    +0.000 A 
ATOM     26  C   UNL     1       1.563   7.838  21.309  0.00  0.00    +0.000 A 
ATOM     27  C   UNL     1       0.923   8.926  21.924  0.00  0.00    +0.000 A 
ATOM     28  C   UNL     1       0.542  10.022  21.166  0.00  0.00    +0.000 A 
ATOM     29 CL   UNL     1      -0.314  11.322  21.897  0.00  0.00    +0.000 Cl
ATOM     30  C   UNL     1       0.821  10.050  19.808  0.00  0.00    +0.000 A 
ATOM     31  C   UNL     1       1.470   8.963  19.206  0.00  0.00    +0.000 A 
ENDBRANCH  22  25
ENDBRANCH   6  22
TORSDOF 5
ENDMDL
MODEL 3
REMARK VINA RESULT:      -8.7      9.302     11.559
REMARK  Name = 
REMARK  7 active torsions:
REMARK  status: ('A' for Active; 'I' for Inactive)
REMARK    1  A    between atoms: C_1  and  C_2
REMARK    2  A    between atoms: C_6  and  S_7
REMARK    3  A    between atoms: S_7  and  N_10
REMARK    4  A    between atoms: C_11  and  C_13
REMARK    5  A    between atoms: C_13  and  C_14
REMARK    6  A    between atoms: C_18  and  C_20
REMARK    7  A    between atoms: C_20  and  C_21
REMARK                            x       y       z     vdW  Elec       q    Type
REMARK                         _______ _______ _______ _____ _____    ______ ____
ROOT
ATOM      1  C   UNL     1      -4.035  14.738  22.459  0.00  0.00    +0.000 C 
ATOM      2  C   UNL     1      -4.495  16.026  21.748  0.00  0.00    +0.000 C 
ATOM      3  C   UNL     1      -4.563  14.699  23.929  0.00  0.00    +0.000 C 
ATOM      4  C   UNL     1      -3.287  15.424  24.345  0.00  0.00    +0.000 C 
ATOM      5  N   UNL     1      -2.710  14.894  23.103  0.00  0.00    +0.000 N 
ATOM      6  C   UNL     1      -1.361  14.690  22.913  0.00  0.00    +0.000 C 
ATOM      7  O   UNL     1      -0.577  14.918  23.833  0.00  0.00    +0.000 OA
ENDROOT
BRANCH   1   9
ATOM      8  N   UNL     1      -4.641  13.633  20.273  0.00  0.00    +0.000 N 
ATOM      9  C   UNL     1      -4.444  13.435  21.645  0.00  0.00    +0.000 C 
ATOM     10  O   UNL     1      -4.545  12.318  22.148  0.00  0.00    +0.000 OA
ATOM     11  H   UNL     1      -4.568  14.565  19.889  0.00  0.00    +0.000 HD
BRANCH   8  12
ATOM     12  S   UNL     1      -5.425  12.569  19.269  0.00  0.00    +0.000 S 
ATOM     13  O   UNL     1      -6.134  13.380  18.294  0.00  0.00    +0.000 OA
ATOM     14  O   UNL     1      -6.140  11.573  20.038  0.00  0.00    +0.000 OA
BRANCH  12  20
ATOM     15  C   UNL     1      -3.435  10.121  15.063  0.00  0.00    +0.000 C 
ATOM     16  C   UNL     1      -3.234  10.642  16.456  0.00  0.00    +0.000 A 
ATOM     17  C   UNL     1      -2.001  10.500  17.106  0.00  0.00    +0.000 A 
ATOM     18  C   UNL     1      -1.814  10.996  18.400  0.00  0.00    +0.000 A 
ATOM     19  C   UNL     1      -2.851  11.643  19.061  0.00  0.00    +0.000 A 
ATOM     20  C   UNL     1      -4.077  11.796  18.412  0.00  0.00    +0.000 A 
ATOM     21  C   UNL     1      -4.277  11.298  17.119  0.00  0.00    +0.000 A 
ENDBRANCH  12  20
ENDBRANCH   8  12
ENDBRANCH   1   9
BRANCH   6  22
ATOM     22  C   UNL     1      -0.786  14.152  21.613  0.00  0.00    +0.000 C 
ATOM     23  C   UNL     1      -1.131  14.772  20.264  0.00  0.00    +0.000 C 
ATOM     24  C   UNL     1       0.180  15.104  20.882  0.00  0.00    +0.000 C 
BRANCH  22  25
ATOM     25  C   UNL     1      -0.335  12.654  21.683  0.00  0.00    +0.000 A 
ATOM     26  C   UNL     1       0.641  12.114  20.820  0.00  0.00    +0.000 A 
ATOM     27  C   UNL     1       0.975  10.750  20.819  0.00  0.00    +0.000 A 
ATOM     28  C   UNL     1       0.317   9.877  21.672  0.00  0.00    +0.000 A 
ATOM     29 CL   UNL     1       0.663   8.194  21.620  0.00  0.00    +0.000 Cl
ATOM     30  C   UNL     1      -0.648  10.362  22.541  0.00  0.00    +0.000 A 
ATOM     31  C   UNL     1      -0.966  11.727  22.541  0.00  0.00    +0.000 A 
ENDBRANCH  22  25
ENDBRANCH   6  22
TORSDOF 5
ENDMDL
MODEL 4
REMARK VINA RESULT:      -8.4      1.145      1.778
REMARK  Name = 
REMARK  7 active torsions:
REMARK  status: ('A' for Active; 'I' for Inactive)
REMARK    1  A    between atoms: C_1  and  C_2
REMARK    2  A    between atoms: C_6  and  S_7
REMARK    3  A    between atoms: S_7  and  N_10
REMARK    4  A    between atoms: C_11  and  C_13
REMARK    5  A    between atoms: C_13  and  C_14
REMARK    6  A    between atoms: C_18  and  C_20
REMARK    7  A    between atoms: C_20  and  C_21
REMARK                            x       y       z     vdW  Elec       q    Type
REMARK                         _______ _______ _______ _____ _____    ______ ____
ROOT
ATOM      1  C   UNL     1       4.371   2.897  19.501  0.00  0.00    +0.000 C 
ATOM      2  C   UNL     1       4.267   1.796  18.427  0.00  0.00    +0.000 C 
ATOM      3  C   UNL     1       4.574   2.270  20.918  0.00  0.00    +0.000 C 
ATOM      4  C   UNL     1       3.055   2.234  21.055  0.00  0.00    +0.000 C 
ATOM      5  N   UNL     1       3.047   3.290  20.034  0.00  0.00    +0.000 N 
ATOM      6  C   UNL     1       2.029   4.206  19.890  0.00  0.00    +0.000 C 
ATOM      7  O   UNL     1       1.080   4.187  20.674  0.00  0.00    +0.000 OA
ENDROOT
BRANCH   1   9
ATOM      8  N   UNL     1       5.741   4.141  17.784  0.00  0.00    +0.000 N 
ATOM      9  C   UNL     1       5.503   3.957  19.152  0.00  0.00    +0.000 C 
ATOM     10  O   UNL     1       6.111   4.613  19.996  0.00  0.00    +0.000 OA
ATOM     11  H   UNL     1       5.239   3.575  17.112  0.00  0.00    +0.000 HD
BRANCH   8  12
ATOM     12  S   UNL     1       7.087   4.875  17.150  0.00  0.00    +0.000 S 
ATOM     13  O   UNL     1       8.224   4.081  17.586  0.00  0.00    +0.000 OA
ATOM     14  O   UNL     1       7.060   6.299  17.403  0.00  0.00    +0.000 OA
BRANCH  12  20
ATOM     15  C   UNL     1       8.340   5.864  12.141  0.00  0.00    +0.000 C 
ATOM     16  C   UNL     1       7.493   5.111  13.125  0.00  0.00    +0.000 A 
ATOM     17  C   UNL     1       6.524   4.197  12.688  0.00  0.00    +0.000 A 
ATOM     18  C   UNL     1       5.744   3.490  13.608  0.00  0.00    +0.000 A 
ATOM     19  C   UNL     1       5.921   3.680  14.974  0.00  0.00    +0.000 A 
ATOM     20  C   UNL     1       6.893   4.582  15.411  0.00  0.00    +0.000 A 
ATOM     21  C   UNL     1       7.675   5.299  14.499  0.00  0.00    +0.000 A 
ENDBRANCH  12  20
ENDBRANCH   8  12
ENDBRANCH   1   9
BRANCH   6  22
ATOM     22  C   UNL     1       2.036   5.282  18.818  0.00  0.00    +0.000 C 
ATOM     23  C   UNL     1       2.721   5.071  17.473  0.00  0.00    +0.000 C 
ATOM     24  C   UNL     1       1.242   4.938  17.542  0.00  0.00    +0.000 C 
BRANCH  22  25
ATOM     25  C   UNL     1       1.837   6.736  19.366  0.00  0.00    +0.000 A 
ATOM     26  C   UNL     1       1.467   7.000  20.700  0.00  0.00    +0.000 A 
ATOM     27  C   UNL     1       1.196   8.298  21.164  0.00  0.00    +0.000 A 
ATOM     28  C   UNL     1       1.264   9.372  20.290  0.00  0.00    +0.000 A 
ATOM     29 CL   UNL     1       0.855  10.952  20.831  0.00  0.00    +0.000 Cl
ATOM     30  C   UNL     1       1.627   9.162  18.969  0.00  0.00    +0.000 A 
ATOM     31  C   UNL     1       1.905   7.864  18.519  0.00  0.00    +0.000 A 
ENDBRANCH  22  25
ENDBRANCH   6  22
TORSDOF 5
ENDMDL
MODEL 5
REMARK VINA RESULT:      -8.3      7.670     11.711
REMARK  Name = 
REMARK  7 active torsions:
REMARK  status: ('A' for Active; 'I' for Inactive)
REMARK    1  A    between atoms: C_1  and  C_2
REMARK    2  A    between atoms: C_6  and  S_7
REMARK    3  A    between atoms: S_7  and  N_10
REMARK    4  A    between atoms: C_11  and  C_13
REMARK    5  A    between atoms: C_13  and  C_14
REMARK    6  A    between atoms: C_18  and  C_20
REMARK    7  A    between atoms: C_20  and  C_21
REMARK                            x       y       z     vdW  Elec       q    Type
REMARK                         _______ _______ _______ _____ _____    ______ ____
ROOT
ATOM      1  C   UNL     1       1.034  14.193  19.548  0.00  0.00    +0.000 C 
ATOM      2  C   UNL     1      -0.041  14.891  18.693  0.00  0.00    +0.000 C 
ATOM      3  C   UNL     1       2.439  14.826  19.296  0.00  0.00    +0.000 C 
ATOM      4  C   UNL     1       2.629  13.813  18.171  0.00  0.00    +0.000 C 
ATOM      5  N   UNL     1       1.614  13.012  18.868  0.00  0.00    +0.000 N 
ATOM      6  C   UNL     1       1.510  11.644  18.755  0.00  0.00    +0.000 C 
ATOM      7  O   UNL     1       2.326  11.028  18.069  0.00  0.00    +0.000 OA
ENDROOT
BRANCH   1   9
ATOM      8  N   UNL     1      -0.723  14.191  21.361  0.00  0.00    +0.000 N 
ATOM      9  C   UNL     1       0.652  14.190  21.091  0.00  0.00    +0.000 C 
ATOM     10  O   UNL     1       1.477  14.147  22.001  0.00  0.00    +0.000 OA
ATOM     11  H   UNL     1      -1.380  14.244  20.594  0.00  0.00    +0.000 HD
BRANCH   8  12
ATOM     12  S   UNL     1      -1.397  14.566  22.830  0.00  0.00    +0.000 S 
ATOM     13  O   UNL     1      -1.376  16.016  22.925  0.00  0.00    +0.000 OA
ATOM     14  O   UNL     1      -0.811  13.764  23.881  0.00  0.00    +0.000 OA
BRANCH  12  20
ATOM     15  C   UNL     1      -5.888  14.683  20.098  0.00  0.00    +0.000 C 
ATOM     16  C   UNL     1      -5.138  14.215  21.311  0.00  0.00    +0.000 A 
ATOM     17  C   UNL     1      -5.767  13.429  22.286  0.00  0.00    +0.000 A 
ATOM     18  C   UNL     1      -5.062  12.986  23.410  0.00  0.00    +0.000 A 
ATOM     19  C   UNL     1      -3.722  13.317  23.575  0.00  0.00    +0.000 A 
ATOM     20  C   UNL     1      -3.090  14.091  22.600  0.00  0.00    +0.000 A 
ATOM     21  C   UNL     1      -3.788  14.544  21.474  0.00  0.00    +0.000 A 
ENDBRANCH  12  20
ENDBRANCH   8  12
ENDBRANCH   1   9
BRANCH   6  22
ATOM     22  C   UNL     1       0.443  10.838  19.476  0.00  0.00    +0.000 C 
ATOM     23  C   UNL     1       0.784   9.585  20.274  0.00  0.00    +0.000 C 
ATOM     24  C   UNL     1       0.540  10.851  21.014  0.00  0.00    +0.000 C 
BRANCH  22  25
ATOM     25  C   UNL     1      -0.999  11.012  18.888  0.00  0.00    +0.000 A 
ATOM     26  C   UNL     1      -1.961  11.858  19.476  0.00  0.00    +0.000 A 
ATOM     27  C   UNL     1      -3.282  11.939  19.006  0.00  0.00    +0.000 A 
ATOM     28  C   UNL     1      -3.685  11.149  17.940  0.00  0.00    +0.000 A 
ATOM     29 CL   UNL     1      -5.321  11.184  17.410  0.00  0.00    +0.000 Cl
ATOM     30  C   UNL     1      -2.773  10.304  17.327  0.00  0.00    +0.000 A 
ATOM     31  C   UNL     1      -1.455  10.239  17.799  0.00  0.00    +0.000 A 
ENDBRANCH  22  25
ENDBRANCH   6  22
TORSDOF 5
ENDMDL
MODEL 6
REMARK VINA RESULT:      -8.1      7.546     11.791
REMARK  Name = 
REMARK  7 active torsions:
REMARK  status: ('A' for Active; 'I' for Inactive)
REMARK    1  A    between atoms: C_1  and  C_2
REMARK    2  A    between atoms: C_6  and  S_7
REMARK    3  A    between atoms: S_7  and  N_10
REMARK    4  A    between atoms: C_11  and  C_13
REMARK    5  A    between atoms: C_13  and  C_14
REMARK    6  A    between atoms: C_18  and  C_20
REMARK    7  A    between atoms: C_20  and  C_21
REMARK                            x       y       z     vdW  Elec       q    Type
REMARK                         _______ _______ _______ _____ _____    ______ ____
ROOT
ATOM      1  C   UNL     1       1.057  13.942  19.477  0.00  0.00    +0.000 C 
ATOM      2  C   UNL     1      -0.005  14.642  18.607  0.00  0.00    +0.000 C 
ATOM      3  C   UNL     1       2.476  14.536  19.202  0.00  0.00    +0.000 C 
ATOM      4  C   UNL     1       2.637  13.489  18.104  0.00  0.00    +0.000 C 
ATOM      5  N   UNL     1       1.607  12.731  18.827  0.00  0.00    +0.000 N 
ATOM      6  C   UNL     1       1.471  11.363  18.751  0.00  0.00    +0.000 C 
ATOM      7  O   UNL     1       2.270  10.710  18.079  0.00  0.00    +0.000 OA
ENDROOT
BRANCH   1   9
ATOM      8  N   UNL     1      -0.690  14.066  21.295  0.00  0.00    +0.000 N 
ATOM      9  C   UNL     1       0.682  13.990  21.021  0.00  0.00    +0.000 C 
ATOM     10  O   UNL     1       1.508  13.923  21.929  0.00  0.00    +0.000 OA
ATOM     11  H   UNL     1      -1.346  14.137  20.529  0.00  0.00    +0.000 HD
BRANCH   8  12
ATOM     12  S   UNL     1      -1.338  14.504  22.758  0.00  0.00    +0.000 S 
ATOM     13  O   UNL     1      -1.105  15.932  22.891  0.00  0.00    +0.000 OA
ATOM     14  O   UNL     1      -0.903  13.601  23.801  0.00  0.00    +0.000 OA
BRANCH  12  20
ATOM     15  C   UNL     1      -6.145  16.457  21.911  0.00  0.00    +0.000 C 
ATOM     16  C   UNL     1      -5.269  15.258  22.126  0.00  0.00    +0.000 A 
ATOM     17  C   UNL     1      -5.811  13.965  22.141  0.00  0.00    +0.000 A 
ATOM     18  C   UNL     1      -4.990  12.849  22.332  0.00  0.00    +0.000 A 
ATOM     19  C   UNL     1      -3.620  13.005  22.506  0.00  0.00    +0.000 A 
ATOM     20  C   UNL     1      -3.076  14.290  22.480  0.00  0.00    +0.000 A 
ATOM     21  C   UNL     1      -3.890  15.414  22.296  0.00  0.00    +0.000 A 
ENDBRANCH  12  20
ENDBRANCH   8  12
ENDBRANCH   1   9
BRANCH   6  22
ATOM     22  C   UNL     1       0.389  10.601  19.497  0.00  0.00    +0.000 C 
ATOM     23  C   UNL     1       0.706   9.365  20.331  0.00  0.00    +0.000 C 
ATOM     24  C   UNL     1       0.491  10.657  21.034  0.00  0.00    +0.000 C 
BRANCH  22  25
ATOM     25  C   UNL     1      -1.050  10.789  18.908  0.00  0.00    +0.000 A 
ATOM     26  C   UNL     1      -1.470  10.166  17.715  0.00  0.00    +0.000 A 
ATOM     27  C   UNL     1      -2.726  10.412  17.137  0.00  0.00    +0.000 A 
ATOM     28  C   UNL     1      -3.594  11.315  17.731  0.00  0.00    +0.000 A 
ATOM     29 CL   UNL     1      -5.101  11.681  16.987  0.00  0.00    +0.000 Cl
ATOM     30  C   UNL     1      -3.228  11.949  18.908  0.00  0.00    +0.000 A 
ATOM     31  C   UNL     1      -1.975  11.689  19.481  0.00  0.00    +0.000 A 
ENDBRANCH  22  25
ENDBRANCH   6  22
TORSDOF 5
ENDMDL
MODEL 7
REMARK VINA RESULT:      -8.1      3.614      8.432
REMARK  Name = 
REMARK  7 active torsions:
REMARK  status: ('A' for Active; 'I' for Inactive)
REMARK    1  A    between atoms: C_1  and  C_2
REMARK    2  A    between atoms: C_6  and  S_7
REMARK    3  A    between atoms: S_7  and  N_10
REMARK    4  A    between atoms: C_11  and  C_13
REMARK    5  A    between atoms: C_13  and  C_14
REMARK    6  A    between atoms: C_18  and  C_20
REMARK    7  A    between atoms: C_20  and  C_21
REMARK                            x       y       z     vdW  Elec       q    Type
REMARK                         _______ _______ _______ _____ _____    ______ ____
ROOT
ATOM      1  C   UNL     1       2.415   5.367  19.221  0.00  0.00    +0.000 C 
ATOM      2  C   UNL     1       2.596   5.585  20.736  0.00  0.00    +0.000 C 
ATOM      3  C   UNL     1       1.106   4.565  18.930  0.00  0.00    +0.000 C 
ATOM      4  C   UNL     1       1.933   3.288  19.048  0.00  0.00    +0.000 C 
ATOM      5  N   UNL     1       3.091   4.139  18.745  0.00  0.00    +0.000 N 
ATOM      6  C   UNL     1       4.257   3.671  18.180  0.00  0.00    +0.000 C 
ATOM      7  O   UNL     1       4.344   2.484  17.865  0.00  0.00    +0.000 OA
ENDROOT
BRANCH   1   9
ATOM      8  N   UNL     1       1.949   7.845  19.104  0.00  0.00    +0.000 N 
ATOM      9  C   UNL     1       2.463   6.738  18.417  0.00  0.00    +0.000 C 
ATOM     10  O   UNL     1       2.949   6.856  17.294  0.00  0.00    +0.000 OA
ATOM     11  H   UNL     1       1.539   7.716  20.020  0.00  0.00    +0.000 HD
BRANCH   8  12
ATOM     12  S   UNL     1       1.527   9.284  18.393  0.00  0.00    +0.000 S 
ATOM     13  O   UNL     1       0.460   8.976  17.457  0.00  0.00    +0.000 OA
ATOM     14  O   UNL     1       2.704   9.995  17.940  0.00  0.00    +0.000 OA
BRANCH  12  20
ATOM     15  C   UNL     1      -0.179   9.529  23.360  0.00  0.00    +0.000 C 
ATOM     16  C   UNL     1      -0.009  10.202  22.029  0.00  0.00    +0.000 A 
ATOM     17  C   UNL     1      -0.455  11.515  21.825  0.00  0.00    +0.000 A 
ATOM     18  C   UNL     1      -0.286  12.142  20.586  0.00  0.00    +0.000 A 
ATOM     19  C   UNL     1       0.333  11.472  19.538  0.00  0.00    +0.000 A 
ATOM     20  C   UNL     1       0.788  10.168  19.742  0.00  0.00    +0.000 A 
ATOM     21  C   UNL     1       0.619   9.529  20.976  0.00  0.00    +0.000 A 
ENDBRANCH  12  20
ENDBRANCH   8  12
ENDBRANCH   1   9
BRANCH   6  22
ATOM     22  C   UNL     1       5.447   4.568  17.888  0.00  0.00    +0.000 C 
ATOM     23  C   UNL     1       5.836   5.714  18.813  0.00  0.00    +0.000 C 
ATOM     24  C   UNL     1       6.616   4.451  18.885  0.00  0.00    +0.000 C 
BRANCH  22  25
ATOM     25  C   UNL     1       5.853   4.622  16.376  0.00  0.00    +0.000 A 
ATOM     26  C   UNL     1       5.044   4.087  15.352  0.00  0.00    +0.000 A 
ATOM     27  C   UNL     1       5.453   4.050  14.009  0.00  0.00    +0.000 A 
ATOM     28  C   UNL     1       6.705   4.530  13.655  0.00  0.00    +0.000 A 
ATOM     29 CL   UNL     1       7.244   4.415  12.027  0.00  0.00    +0.000 Cl
ATOM     30  C   UNL     1       7.535   5.069  14.626  0.00  0.00    +0.000 A 
ATOM     31  C   UNL     1       7.112   5.110  15.962  0.00  0.00    +0.000 A 
ENDBRANCH  22  25
ENDBRANCH   6  22
TORSDOF 5
ENDMDL
MODEL 8
REMARK VINA RESULT:      -8.1      5.485      8.649
REMARK  Name = 
REMARK  7 active torsions:
REMARK  status: ('A' for Active; 'I' for Inactive)
REMARK    1  A    between atoms: C_1  and  C_2
REMARK    2  A    between atoms: C_6  and  S_7
REMARK    3  A    between atoms: S_7  and  N_10
REMARK    4  A    between atoms: C_11  and  C_13
REMARK    5  A    between atoms: C_13  and  C_14
REMARK    6  A    between atoms: C_18  and  C_20
REMARK    7  A    between atoms: C_20  and  C_21
REMARK                            x       y       z     vdW  Elec       q    Type
REMARK                         _______ _______ _______ _____ _____    ______ ____
ROOT
ATOM      1  C   UNL     1      -1.186  11.947  19.101  0.00  0.00    +0.000 C 
ATOM      2  C   UNL     1      -0.626  13.186  18.375  0.00  0.00    +0.000 C 
ATOM      3  C   UNL     1      -1.942  11.015  18.100  0.00  0.00    +0.000 C 
ATOM      4  C   UNL     1      -3.208  11.808  18.409  0.00  0.00    +0.000 C 
ATOM      5  N   UNL     1      -2.537  12.184  19.660  0.00  0.00    +0.000 N 
ATOM      6  C   UNL     1      -3.206  12.554  20.805  0.00  0.00    +0.000 C 
ATOM      7  O   UNL     1      -4.437  12.537  20.820  0.00  0.00    +0.000 OA
ENDROOT
BRANCH   1   9
ATOM      8  N   UNL     1      -0.367   9.843  20.228  0.00  0.00    +0.000 N 
ATOM      9  C   UNL     1      -0.054  11.168  19.899  0.00  0.00    +0.000 C 
ATOM     10  O   UNL     1       1.041  11.651  20.181  0.00  0.00    +0.000 OA
ATOM     11  H   UNL     1      -1.282   9.476  19.999  0.00  0.00    +0.000 HD
BRANCH   8  12
ATOM     12  S   UNL     1       0.439   8.935  21.360  0.00  0.00    +0.000 S 
ATOM     13  O   UNL     1      -0.571   8.138  22.034  0.00  0.00    +0.000 OA
ATOM     14  O   UNL     1       1.340   9.764  22.132  0.00  0.00    +0.000 OA
BRANCH  12  20
ATOM     15  C   UNL     1       2.613   4.231  20.474  0.00  0.00    +0.000 C 
ATOM     16  C   UNL     1       2.386   5.643  20.020  0.00  0.00    +0.000 A 
ATOM     17  C   UNL     1       2.937   6.109  18.818  0.00  0.00    +0.000 A 
ATOM     18  C   UNL     1       2.715   7.423  18.394  0.00  0.00    +0.000 A 
ATOM     19  C   UNL     1       1.940   8.288  19.157  0.00  0.00    +0.000 A 
ATOM     20  C   UNL     1       1.382   7.823  20.349  0.00  0.00    +0.000 A 
ATOM     21  C   UNL     1       1.602   6.512  20.786  0.00  0.00    +0.000 A 
ENDBRANCH  12  20
ENDBRANCH   8  12
ENDBRANCH   1   9
BRANCH   6  22
ATOM     22  C   UNL     1      -2.490  12.952  22.084  0.00  0.00    +0.000 C 
ATOM     23  C   UNL     1      -3.049  12.608  23.459  0.00  0.00    +0.000 C 
ATOM     24  C   UNL     1      -1.940  11.779  22.919  0.00  0.00    +0.000 C 
BRANCH  22  25
ATOM     25  C   UNL     1      -1.528  14.178  21.925  0.00  0.00    +0.000 A 
ATOM     26  C   UNL     1      -0.165  14.125  22.284  0.00  0.00    +0.000 A 
ATOM     27  C   UNL     1       0.673  15.251  22.232  0.00  0.00    +0.000 A 
ATOM     28  C   UNL     1       0.158  16.477  21.839  0.00  0.00    +0.000 A 
ATOM     29 CL   UNL     1       1.157  17.877  21.850  0.00  0.00    +0.000 Cl
ATOM     30  C   UNL     1      -1.176  16.578  21.474  0.00  0.00    +0.000 A 
ATOM     31  C   UNL     1      -2.000  15.445  21.520  0.00  0.00    +0.000 A 
ENDBRANCH  22  25
ENDBRANCH   6  22
TORSDOF 5
ENDMDL
MODEL 9
REMARK VINA RESULT:      -8.0      5.268      8.605
REMARK  Name = 
REMARK  7 active torsions:
REMARK  status: ('A' for Active; 'I' for Inactive)
REMARK    1  A    between atoms: C_1  and  C_2
REMARK    2  A    between atoms: C_6  and  S_7
REMARK    3  A    between atoms: S_7  and  N_10
REMARK    4  A    between atoms: C_11  and  C_13
REMARK    5  A    between atoms: C_13  and  C_14
REMARK    6  A    between atoms: C_18  and  C_20
REMARK    7  A    between atoms: C_20  and  C_21
REMARK                            x       y       z     vdW  Elec       q    Type
REMARK                         _______ _______ _______ _____ _____    ______ ____
ROOT
ATOM      1  C   UNL     1      -0.994  11.829  19.027  0.00  0.00    +0.000 C 
ATOM      2  C   UNL     1      -0.364  13.020  18.279  0.00  0.00    +0.000 C 
ATOM      3  C   UNL     1      -1.692  10.854  18.026  0.00  0.00    +0.000 C 
ATOM      4  C   UNL     1      -2.964  11.678  18.202  0.00  0.00    +0.000 C 
ATOM      5  N   UNL     1      -2.376  12.113  19.475  0.00  0.00    +0.000 N 
ATOM      6  C   UNL     1      -3.118  12.552  20.549  0.00  0.00    +0.000 C 
ATOM      7  O   UNL     1      -4.347  12.552  20.478  0.00  0.00    +0.000 OA
ENDROOT
BRANCH   1   9
ATOM      8  N   UNL     1      -0.256   9.754  20.261  0.00  0.00    +0.000 N 
ATOM      9  C   UNL     1       0.067  11.080  19.944  0.00  0.00    +0.000 C 
ATOM     10  O   UNL     1       1.121  11.586  20.325  0.00  0.00    +0.000 OA
ATOM     11  H   UNL     1      -1.138   9.369  19.949  0.00  0.00    +0.000 HD
BRANCH   8  12
ATOM     12  S   UNL     1       0.449   8.876  21.480  0.00  0.00    +0.000 S 
ATOM     13  O   UNL     1      -0.630   8.168  22.145  0.00  0.00    +0.000 OA
ATOM     14  O   UNL     1       1.354   9.704  22.249  0.00  0.00    +0.000 OA
BRANCH  12  20
ATOM     15  C   UNL     1       3.487   7.478  17.423  0.00  0.00    +0.000 C 
ATOM     16  C   UNL     1       2.749   7.080  18.667  0.00  0.00    +0.000 A 
ATOM     17  C   UNL     1       2.760   5.752  19.116  0.00  0.00    +0.000 A 
ATOM     18  C   UNL     1       2.080   5.387  20.282  0.00  0.00    +0.000 A 
ATOM     19  C   UNL     1       1.385   6.339  21.019  0.00  0.00    +0.000 A 
ATOM     20  C   UNL     1       1.381   7.664  20.580  0.00  0.00    +0.000 A 
ATOM     21  C   UNL     1       2.054   8.039  19.411  0.00  0.00    +0.000 A 
ENDBRANCH  12  20
ENDBRANCH   8  12
ENDBRANCH   1   9
BRANCH   6  22
ATOM     22  C   UNL     1      -2.488  13.010  21.853  0.00  0.00    +0.000 C 
ATOM     23  C   UNL     1      -3.165  12.778  23.198  0.00  0.00    +0.000 C 
ATOM     24  C   UNL     1      -2.051  11.877  22.802  0.00  0.00    +0.000 C 
BRANCH  22  25
ATOM     25  C   UNL     1      -1.468  14.189  21.693  0.00  0.00    +0.000 A 
ATOM     26  C   UNL     1      -0.211  14.198  22.333  0.00  0.00    +0.000 A 
ATOM     27  C   UNL     1       0.660  15.297  22.267  0.00  0.00    +0.000 A 
ATOM     28  C   UNL     1       0.284  16.436  21.573  0.00  0.00    +0.000 A 
ATOM     29 CL   UNL     1       1.311  17.815  21.554  0.00  0.00    +0.000 Cl
ATOM     30  C   UNL     1      -0.941  16.473  20.924  0.00  0.00    +0.000 A 
ATOM     31  C   UNL     1      -1.799  15.366  20.988  0.00  0.00    +0.000 A 
ENDBRANCH  22  25
ENDBRANCH   6  22
TORSDOF 5
ENDMDL
