MODEL 1
REMARK VINA RESULT:      -7.9      0.000      0.000
REMARK  Name = 
REMARK  8 active torsions:
REMARK  status: ('A' for Active; 'I' for Inactive)
REMARK    1  A    between atoms: C_1  and  N_2
REMARK    2  A    between atoms: N_2  and  C_12
REMARK    3  A    between atoms: N_15  and  C_16
REMARK    4  A    between atoms: C_16  and  C_17
REMARK    5  A    between atoms: C_17  and  C_18
REMARK    6  A    between atoms: C_18  and  C_19
REMARK    7  A    between atoms: C_19  and  O_20
REMARK    8  A    between atoms: O_20  and  C_21
REMARK                            x       y       z     vdW  Elec       q    Type
REMARK                         _______ _______ _______ _____ _____    ______ ____
ROOT
ATOM      1  C   UNL     1       2.007   5.946  19.464  0.00  0.00    +0.000 C 
ATOM      2  C   UNL     1       3.043   5.323  20.402  0.00  0.00    +0.000 C 
ATOM      3  C   UNL     1       4.320   4.860  19.706  0.00  0.00    +0.000 C 
ATOM      4  N   UNL     1       4.082   4.050  18.504  0.00  0.00    +0.000 NA
ATOM      5  C   UNL     1       3.168   4.715  17.564  0.00  0.00    +0.000 C 
ATOM      6  C   UNL     1       1.837   5.064  18.222  0.00  0.00    +0.000 C 
ENDROOT
BRANCH   1   8
ATOM      7  C   UNL     1       2.927   7.741  17.888  0.00  0.00    +0.000 C 
ATOM      8  N   UNL     1       2.242   7.374  19.117  0.00  0.00    +0.000 N 
ATOM      9  C   UNL     1       1.554   8.312  19.850  0.00  0.00    +0.000 A 
ATOM     10  N   UNL     1       0.976   8.036  21.002  0.00  0.00    +0.000 NA
ATOM     11  C   UNL     1       0.358   9.149  21.541  0.00  0.00    +0.000 A 
ATOM     12  C   UNL     1      -0.327   9.196  22.773  0.00  0.00    +0.000 A 
ATOM     13  C   UNL     1      -0.910  10.396  23.194  0.00  0.00    +0.000 A 
ATOM     14  C   UNL     1      -0.820  11.538  22.405  0.00  0.00    +0.000 A 
ATOM     15  C   UNL     1      -0.145  11.512  21.181  0.00  0.00    +0.000 A 
ATOM     16  C   UNL     1       0.439  10.303  20.774  0.00  0.00    +0.000 A 
ATOM     17  S   UNL     1       1.329   9.958  19.353  0.00  0.00    +0.000 S 
ENDBRANCH   1   8
BRANCH   4  18
ATOM     18  C   UNL     1       5.352   3.728  17.831  0.00  0.00    +0.000 C 
BRANCH  18  19
ATOM     19  C   UNL     1       6.559   4.470  18.431  0.00  0.00    +0.000 C 
BRANCH  19  20
ATOM     20  C   UNL     1       7.538   5.015  17.383  0.00  0.00    +0.000 C 
BRANCH  20  21
ATOM     21  C   UNL     1       6.795   5.763  16.283  0.00  0.00    +0.000 C 
BRANCH  21  22
ATOM     22  O   UNL     1       7.547   5.747  15.069  0.00  0.00    +0.000 OA
BRANCH  22  23
ATOM     23  C   UNL     1       6.993   4.952  14.096  0.00  0.00    +0.000 A 
ATOM     24  C   UNL     1       7.630   4.611  12.896  0.00  0.00    +0.000 A 
ATOM     25  C   UNL     1       6.989   3.791  11.967  0.00  0.00    +0.000 A 
ATOM     26  C   UNL     1       5.720   3.305  12.246  0.00  0.00    +0.000 A 
ATOM     27  F   UNL     1       5.106   2.518  11.354  0.00  0.00    +0.000 F 
ATOM     28  C   UNL     1       5.081   3.619  13.442  0.00  0.00    +0.000 A 
ATOM     29  C   UNL     1       5.723   4.440  14.372  0.00  0.00    +0.000 A 
ENDBRANCH  22  23
ENDBRANCH  21  22
ENDBRANCH  20  21
ENDBRANCH  19  20
ENDBRANCH  18  19
ENDBRANCH   4  18
TORSDOF 7
ENDMDL
MODEL 2
REMARK VINA RESULT:      -7.5      4.155      9.722
REMARK  Name = 
REMARK  8 active torsions:
REMARK  status: ('A' for Active; 'I' for Inactive)
REMARK    1  A    between atoms: C_1  and  N_2
REMARK    2  A    between atoms: N_2  and  C_12
REMARK    3  A    between atoms: N_15  and  C_16
REMARK    4  A    between atoms: C_16  and  C_17
REMARK    5  A    between atoms: C_17  and  C_18
REMARK    6  A    between atoms: C_18  and  C_19
REMARK    7  A    between atoms: C_19  and  O_20
REMARK    8  A    between atoms: O_20  and  C_21
REMARK                            x       y       z     vdW  Elec       q    Type
REMARK                         _______ _______ _______ _____ _____    ______ ____
ROOT
ATOM      1  C   UNL     1       4.082   2.780  17.714  0.00  0.00    +0.000 C 
ATOM      2  C   UNL     1       2.609   2.947  17.335  0.00  0.00    +0.000 C 
ATOM      3  C   UNL     1       1.741   3.540  18.443  0.00  0.00    +0.000 C 
ATOM      4  N   UNL     1       1.922   2.894  19.749  0.00  0.00    +0.000 NA
ATOM      5  C   UNL     1       3.337   2.840  20.145  0.00  0.00    +0.000 C 
ATOM      6  C   UNL     1       4.190   2.131  19.098  0.00  0.00    +0.000 C 
ENDROOT
BRANCH   1   8
ATOM      7  C   UNL     1       5.257   4.792  18.775  0.00  0.00    +0.000 C 
ATOM      8  N   UNL     1       4.911   4.011  17.599  0.00  0.00    +0.000 N 
ATOM      9  C   UNL     1       5.554   4.215  16.400  0.00  0.00    +0.000 A 
ATOM     10  N   UNL     1       5.227   3.577  15.295  0.00  0.00    +0.000 NA
ATOM     11  C   UNL     1       6.016   3.966  14.228  0.00  0.00    +0.000 A 
ATOM     12  C   UNL     1       5.907   3.492  12.905  0.00  0.00    +0.000 A 
ATOM     13  C   UNL     1       6.779   3.974  11.924  0.00  0.00    +0.000 A 
ATOM     14  C   UNL     1       7.754   4.913  12.247  0.00  0.00    +0.000 A 
ATOM     15  C   UNL     1       7.878   5.396  13.553  0.00  0.00    +0.000 A 
ATOM     16  C   UNL     1       6.992   4.907  14.526  0.00  0.00    +0.000 A 
ATOM     17  S   UNL     1       6.886   5.306  16.187  0.00  0.00    +0.000 S 
ENDBRANCH   1   8
BRANCH   4  18
ATOM     18  C   UNL     1       1.133   3.581  20.786  0.00  0.00    +0.000 C 
BRANCH  18  19
ATOM     19  C   UNL     1       0.831   5.050  20.442  0.00  0.00    +0.000 C 
BRANCH  19  20
ATOM     20  C   UNL     1       2.027   5.992  20.629  0.00  0.00    +0.000 C 
BRANCH  20  21
ATOM     21  C   UNL     1       1.589   7.449  20.547  0.00  0.00    +0.000 C 
BRANCH  21  22
ATOM     22  O   UNL     1       0.946   7.848  21.758  0.00  0.00    +0.000 OA
BRANCH  22  23
ATOM     23  C   UNL     1       0.287   9.048  21.655  0.00  0.00    +0.000 A 
ATOM     24  C   UNL     1       0.050   9.719  20.448  0.00  0.00    +0.000 A 
ATOM     25  C   UNL     1      -0.634  10.935  20.442  0.00  0.00    +0.000 A 
ATOM     26  C   UNL     1      -1.089  11.469  21.638  0.00  0.00    +0.000 A 
ATOM     27  F   UNL     1      -1.746  12.635  21.631  0.00  0.00    +0.000 F 
ATOM     28  C   UNL     1      -0.878  10.807  22.844  0.00  0.00    +0.000 A 
ATOM     29  C   UNL     1      -0.192   9.588  22.850  0.00  0.00    +0.000 A 
ENDBRANCH  22  23
ENDBRANCH  21  22
ENDBRANCH  20  21
ENDBRANCH  19  20
ENDBRANCH  18  19
ENDBRANCH   4  18
TORSDOF 7
ENDMDL
MODEL 3
REMARK VINA RESULT:      -7.5      4.284      5.457
REMARK  Name = 
REMARK  8 active torsions:
REMARK  status: ('A' for Active; 'I' for Inactive)
REMARK    1  A    between atoms: C_1  and  N_2
REMARK    2  A    between atoms: N_2  and  C_12
REMARK    3  A    between atoms: N_15  and  C_16
REMARK    4  A    between atoms: C_16  and  C_17
REMARK    5  A    between atoms: C_17  and  C_18
REMARK    6  A    between atoms: C_18  and  C_19
REMARK    7  A    between atoms: C_19  and  O_20
REMARK    8  A    between atoms: O_20  and  C_21
REMARK                            x       y       z     vdW  Elec       q    Type
REMARK                         _______ _______ _______ _____ _____    ______ ____
ROOT
ATOM      1  C   UNL     1       2.502   6.065  19.033  0.00  0.00    +0.000 C 
ATOM      2  C   UNL     1       3.595   5.655  20.023  0.00  0.00    +0.000 C 
ATOM      3  C   UNL     1       4.969   5.450  19.388  0.00  0.00    +0.000 C 
ATOM      4  N   UNL     1       4.947   4.608  18.184  0.00  0.00    +0.000 NA
ATOM      5  C   UNL     1       3.965   5.083  17.199  0.00  0.00    +0.000 C 
ATOM      6  C   UNL     1       2.563   5.166  17.793  0.00  0.00    +0.000 C 
ENDROOT
BRANCH   1   8
ATOM      7  C   UNL     1       2.968   7.981  17.401  0.00  0.00    +0.000 C 
ATOM      8  N   UNL     1       2.471   7.511  18.684  0.00  0.00    +0.000 N 
ATOM      9  C   UNL     1       1.714   8.328  19.491  0.00  0.00    +0.000 A 
ATOM     10  N   UNL     1       1.300   7.966  20.688  0.00  0.00    +0.000 NA
ATOM     11  C   UNL     1       0.565   8.965  21.298  0.00  0.00    +0.000 A 
ATOM     12  C   UNL     1       0.002   8.904  22.589  0.00  0.00    +0.000 A 
ATOM     13  C   UNL     1      -0.724   9.995  23.079  0.00  0.00    +0.000 A 
ATOM     14  C   UNL     1      -0.894  11.136  22.300  0.00  0.00    +0.000 A 
ATOM     15  C   UNL     1      -0.343  11.216  21.018  0.00  0.00    +0.000 A 
ATOM     16  C   UNL     1       0.387  10.115  20.542  0.00  0.00    +0.000 A 
ATOM     17  S   UNL     1       1.181   9.915  19.039  0.00  0.00    +0.000 S 
ENDBRANCH   1   8
BRANCH   4  18
ATOM     18  C   UNL     1       6.285   4.539  17.571  0.00  0.00    +0.000 C 
BRANCH  18  19
ATOM     19  C   UNL     1       7.287   5.527  18.193  0.00  0.00    +0.000 C 
BRANCH  19  20
ATOM     20  C   UNL     1       7.437   6.837  17.410  0.00  0.00    +0.000 C 
BRANCH  20  21
ATOM     21  C   UNL     1       8.102   7.908  18.265  0.00  0.00    +0.000 C 
BRANCH  21  22
ATOM     22  O   UNL     1       8.171   9.146  17.556  0.00  0.00    +0.000 OA
BRANCH  22  23
ATOM     23  C   UNL     1       8.709  10.169  18.297  0.00  0.00    +0.000 A 
ATOM     24  C   UNL     1       9.344  10.001  19.534  0.00  0.00    +0.000 A 
ATOM     25  C   UNL     1       9.866  11.102  20.213  0.00  0.00    +0.000 A 
ATOM     26  C   UNL     1       9.760  12.364  19.649  0.00  0.00    +0.000 A 
ATOM     27  F   UNL     1      10.262  13.421  20.301  0.00  0.00    +0.000 F 
ATOM     28  C   UNL     1       9.148  12.547  18.413  0.00  0.00    +0.000 A 
ATOM     29  C   UNL     1       8.626  11.444  17.732  0.00  0.00    +0.000 A 
ENDBRANCH  22  23
ENDBRANCH  21  22
ENDBRANCH  20  21
ENDBRANCH  19  20
ENDBRANCH  18  19
ENDBRANCH   4  18
TORSDOF 7
ENDMDL
MODEL 4
REMARK VINA RESULT:      -7.5      2.794      3.672
REMARK  Name = 
REMARK  8 active torsions:
REMARK  status: ('A' for Active; 'I' for Inactive)
REMARK    1  A    between atoms: C_1  and  N_2
REMARK    2  A    between atoms: N_2  and  C_12
REMARK    3  A    between atoms: N_15  and  C_16
REMARK    4  A    between atoms: C_16  and  C_17
REMARK    5  A    between atoms: C_17  and  C_18
REMARK    6  A    between atoms: C_18  and  C_19
REMARK    7  A    between atoms: C_19  and  O_20
REMARK    8  A    between atoms: O_20  and  C_21
REMARK                            x       y       z     vdW  Elec       q    Type
REMARK                         _______ _______ _______ _____ _____    ______ ____
ROOT
ATOM      1  C   UNL     1       1.629   5.082  20.922  0.00  0.00    +0.000 C 
ATOM      2  C   UNL     1       2.722   4.133  21.418  0.00  0.00    +0.000 C 
ATOM      3  C   UNL     1       3.237   3.162  20.357  0.00  0.00    +0.000 C 
ATOM      4  N   UNL     1       2.172   2.468  19.621  0.00  0.00    +0.000 NA
ATOM      5  C   UNL     1       1.189   3.407  19.059  0.00  0.00    +0.000 C 
ATOM      6  C   UNL     1       0.575   4.293  20.137  0.00  0.00    +0.000 C 
ENDROOT
BRANCH   1   8
ATOM      7  C   UNL     1       2.923   6.129  18.976  0.00  0.00    +0.000 C 
ATOM      8  N   UNL     1       2.115   6.275  20.176  0.00  0.00    +0.000 N 
ATOM      9  C   UNL     1       1.547   7.484  20.502  0.00  0.00    +0.000 A 
ATOM     10  N   UNL     1       0.865   7.678  21.613  0.00  0.00    +0.000 NA
ATOM     11  C   UNL     1       0.406   8.978  21.710  0.00  0.00    +0.000 A 
ATOM     12  C   UNL     1      -0.334   9.514  22.784  0.00  0.00    +0.000 A 
ATOM     13  C   UNL     1      -0.737  10.853  22.746  0.00  0.00    +0.000 A 
ATOM     14  C   UNL     1      -0.415  11.655  21.655  0.00  0.00    +0.000 A 
ATOM     15  C   UNL     1       0.318  11.143  20.581  0.00  0.00    +0.000 A 
ATOM     16  C   UNL     1       0.720   9.799  20.636  0.00  0.00    +0.000 A 
ATOM     17  S   UNL     1       1.624   8.896  19.497  0.00  0.00    +0.000 S 
ENDBRANCH   1   8
BRANCH   4  18
ATOM     18  C   UNL     1       2.738   1.629  18.551  0.00  0.00    +0.000 C 
BRANCH  18  19
ATOM     19  C   UNL     1       3.179   2.437  17.318  0.00  0.00    +0.000 C 
BRANCH  19  20
ATOM     20  C   UNL     1       4.576   3.057  17.446  0.00  0.00    +0.000 C 
BRANCH  20  21
ATOM     21  C   UNL     1       4.807   4.104  16.364  0.00  0.00    +0.000 C 
BRANCH  21  22
ATOM     22  O   UNL     1       6.202   4.247  16.093  0.00  0.00    +0.000 OA
BRANCH  22  23
ATOM     23  C   UNL     1       6.823   5.164  16.904  0.00  0.00    +0.000 A 
ATOM     24  C   UNL     1       7.446   4.852  18.119  0.00  0.00    +0.000 A 
ATOM     25  C   UNL     1       8.057   5.853  18.874  0.00  0.00    +0.000 A 
ATOM     26  C   UNL     1       8.055   7.158  18.407  0.00  0.00    +0.000 A 
ATOM     27  F   UNL     1       8.643   8.118  19.132  0.00  0.00    +0.000 F 
ATOM     28  C   UNL     1       7.457   7.483  17.193  0.00  0.00    +0.000 A 
ATOM     29  C   UNL     1       6.844   6.480  16.436  0.00  0.00    +0.000 A 
ENDBRANCH  22  23
ENDBRANCH  21  22
ENDBRANCH  20  21
ENDBRANCH  19  20
ENDBRANCH  18  19
ENDBRANCH   4  18
TORSDOF 7
ENDMDL
MODEL 5
REMARK VINA RESULT:      -7.4      4.225      9.926
REMARK  Name = 
REMARK  8 active torsions:
REMARK  status: ('A' for Active; 'I' for Inactive)
REMARK    1  A    between atoms: C_1  and  N_2
REMARK    2  A    between atoms: N_2  and  C_12
REMARK    3  A    between atoms: N_15  and  C_16
REMARK    4  A    between atoms: C_16  and  C_17
REMARK    5  A    between atoms: C_17  and  C_18
REMARK    6  A    between atoms: C_18  and  C_19
REMARK    7  A    between atoms: C_19  and  O_20
REMARK    8  A    between atoms: O_20  and  C_21
REMARK                            x       y       z     vdW  Elec       q    Type
REMARK                         _______ _______ _______ _____ _____    ______ ____
ROOT
ATOM      1  C   UNL     1       3.879   2.985  17.435  0.00  0.00    +0.000 C 
ATOM      2  C   UNL     1       2.405   3.254  17.123  0.00  0.00    +0.000 C 
ATOM      3  C   UNL     1       1.626   3.887  18.273  0.00  0.00    +0.000 C 
ATOM      4  N   UNL     1       1.821   3.214  19.564  0.00  0.00    +0.000 NA
ATOM      5  C   UNL     1       3.244   3.062  19.897  0.00  0.00    +0.000 C 
ATOM      6  C   UNL     1       4.003   2.313  18.807  0.00  0.00    +0.000 C 
ENDROOT
BRANCH   1   8
ATOM      7  C   UNL     1       5.154   4.958  18.454  0.00  0.00    +0.000 C 
ATOM      8  N   UNL     1       4.781   4.161  17.296  0.00  0.00    +0.000 N 
ATOM      9  C   UNL     1       5.455   4.288  16.104  0.00  0.00    +0.000 A 
ATOM     10  N   UNL     1       5.108   3.635  15.013  0.00  0.00    +0.000 NA
ATOM     11  C   UNL     1       5.936   3.941  13.950  0.00  0.00    +0.000 A 
ATOM     12  C   UNL     1       5.820   3.432  12.640  0.00  0.00    +0.000 A 
ATOM     13  C   UNL     1       6.736   3.829  11.661  0.00  0.00    +0.000 A 
ATOM     14  C   UNL     1       7.759   4.720  11.972  0.00  0.00    +0.000 A 
ATOM     15  C   UNL     1       7.891   5.236  13.264  0.00  0.00    +0.000 A 
ATOM     16  C   UNL     1       6.962   4.833  14.235  0.00  0.00    +0.000 A 
ATOM     17  S   UNL     1       6.852   5.290  15.881  0.00  0.00    +0.000 S 
ENDBRANCH   1   8
BRANCH   4  18
ATOM     18  C   UNL     1       1.123   3.938  20.641  0.00  0.00    +0.000 C 
BRANCH  18  19
ATOM     19  C   UNL     1       1.836   5.237  21.056  0.00  0.00    +0.000 C 
BRANCH  19  20
ATOM     20  C   UNL     1       1.455   6.455  20.205  0.00  0.00    +0.000 C 
BRANCH  20  21
ATOM     21  C   UNL     1       1.766   7.751  20.943  0.00  0.00    +0.000 C 
BRANCH  21  22
ATOM     22  O   UNL     1       1.121   8.857  20.310  0.00  0.00    +0.000 OA
BRANCH  22  23
ATOM     23  C   UNL     1       0.354   9.605  21.168  0.00  0.00    +0.000 A 
ATOM     24  C   UNL     1      -0.039   9.188  22.446  0.00  0.00    +0.000 A 
ATOM     25  C   UNL     1      -0.816  10.021  23.250  0.00  0.00    +0.000 A 
ATOM     26  C   UNL     1      -1.189  11.271  22.779  0.00  0.00    +0.000 A 
ATOM     27  F   UNL     1      -1.935  12.070  23.552  0.00  0.00    +0.000 F 
ATOM     28  C   UNL     1      -0.793  11.708  21.519  0.00  0.00    +0.000 A 
ATOM     29  C   UNL     1      -0.013  10.874  20.713  0.00  0.00    +0.000 A 
ENDBRANCH  22  23
ENDBRANCH  21  22
ENDBRANCH  20  21
ENDBRANCH  19  20
ENDBRANCH  18  19
ENDBRANCH   4  18
TORSDOF 7
ENDMDL
MODEL 6
REMARK VINA RESULT:      -7.3      3.941      9.369
REMARK  Name = 
REMARK  8 active torsions:
REMARK  status: ('A' for Active; 'I' for Inactive)
REMARK    1  A    between atoms: C_1  and  N_2
REMARK    2  A    between atoms: N_2  and  C_12
REMARK    3  A    between atoms: N_15  and  C_16
REMARK    4  A    between atoms: C_16  and  C_17
REMARK    5  A    between atoms: C_17  and  C_18
REMARK    6  A    between atoms: C_18  and  C_19
REMARK    7  A    between atoms: C_19  and  O_20
REMARK    8  A    between atoms: O_20  and  C_21
REMARK                            x       y       z     vdW  Elec       q    Type
REMARK                         _______ _______ _______ _____ _____    ______ ____
ROOT
ATOM      1  C   UNL     1       4.060   2.943  17.708  0.00  0.00    +0.000 C 
ATOM      2  C   UNL     1       2.586   3.123  17.337  0.00  0.00    +0.000 C 
ATOM      3  C   UNL     1       1.739   3.768  18.432  0.00  0.00    +0.000 C 
ATOM      4  N   UNL     1       1.922   3.163  19.758  0.00  0.00    +0.000 NA
ATOM      5  C   UNL     1       3.339   3.098  20.143  0.00  0.00    +0.000 C 
ATOM      6  C   UNL     1       4.170   2.340  19.113  0.00  0.00    +0.000 C 
ENDROOT
BRANCH   1   8
ATOM      7  C   UNL     1       5.279   4.969  18.689  0.00  0.00    +0.000 C 
ATOM      8  N   UNL     1       4.908   4.154  17.543  0.00  0.00    +0.000 N 
ATOM      9  C   UNL     1       5.543   4.307  16.333  0.00  0.00    +0.000 A 
ATOM     10  N   UNL     1       5.194   3.638  15.253  0.00  0.00    +0.000 NA
ATOM     11  C   UNL     1       5.979   3.976  14.166  0.00  0.00    +0.000 A 
ATOM     12  C   UNL     1       5.848   3.459  12.861  0.00  0.00    +0.000 A 
ATOM     13  C   UNL     1       6.720   3.893  11.856  0.00  0.00    +0.000 A 
ATOM     14  C   UNL     1       7.713   4.825  12.138  0.00  0.00    +0.000 A 
ATOM     15  C   UNL     1       7.858   5.349  13.426  0.00  0.00    +0.000 A 
ATOM     16  C   UNL     1       6.974   4.910  14.422  0.00  0.00    +0.000 A 
ATOM     17  S   UNL     1       6.891   5.366  16.070  0.00  0.00    +0.000 S 
ENDBRANCH   1   8
BRANCH   4  18
ATOM     18  C   UNL     1       1.155   3.899  20.778  0.00  0.00    +0.000 C 
BRANCH  18  19
ATOM     19  C   UNL     1       0.808   5.337  20.354  0.00  0.00    +0.000 C 
BRANCH  19  20
ATOM     20  C   UNL     1       1.913   6.358  20.651  0.00  0.00    +0.000 C 
BRANCH  20  21
ATOM     21  C   UNL     1       1.319   7.714  21.008  0.00  0.00    +0.000 C 
BRANCH  21  22
ATOM     22  O   UNL     1       1.583   8.666  19.977  0.00  0.00    +0.000 OA
BRANCH  22  23
ATOM     23  C   UNL     1       0.619   9.638  19.872  0.00  0.00    +0.000 A 
ATOM     24  C   UNL     1       0.201  10.455  20.930  0.00  0.00    +0.000 A 
ATOM     25  C   UNL     1      -0.784  11.422  20.727  0.00  0.00    +0.000 A 
ATOM     26  C   UNL     1      -1.340  11.575  19.465  0.00  0.00    +0.000 A 
ATOM     27  F   UNL     1      -2.285  12.503  19.271  0.00  0.00    +0.000 F 
ATOM     28  C   UNL     1      -0.924  10.783  18.399  0.00  0.00    +0.000 A 
ATOM     29  C   UNL     1       0.064   9.816  18.603  0.00  0.00    +0.000 A 
ENDBRANCH  22  23
ENDBRANCH  21  22
ENDBRANCH  20  21
ENDBRANCH  19  20
ENDBRANCH  18  19
ENDBRANCH   4  18
TORSDOF 7
ENDMDL
MODEL 7
REMARK VINA RESULT:      -7.2      2.928      3.789
REMARK  Name = 
REMARK  8 active torsions:
REMARK  status: ('A' for Active; 'I' for Inactive)
REMARK    1  A    between atoms: C_1  and  N_2
REMARK    2  A    between atoms: N_2  and  C_12
REMARK    3  A    between atoms: N_15  and  C_16
REMARK    4  A    between atoms: C_16  and  C_17
REMARK    5  A    between atoms: C_17  and  C_18
REMARK    6  A    between atoms: C_18  and  C_19
REMARK    7  A    between atoms: C_19  and  O_20
REMARK    8  A    between atoms: O_20  and  C_21
REMARK                            x       y       z     vdW  Elec       q    Type
REMARK                         _______ _______ _______ _____ _____    ______ ____
ROOT
ATOM      1  C   UNL     1       1.645   5.306  20.870  0.00  0.00    +0.000 C 
ATOM      2  C   UNL     1       2.792   4.410  21.345  0.00  0.00    +0.000 C 
ATOM      3  C   UNL     1       3.349   3.483  20.267  0.00  0.00    +0.000 C 
ATOM      4  N   UNL     1       2.317   2.743  19.530  0.00  0.00    +0.000 NA
ATOM      5  C   UNL     1       1.280   3.633  18.989  0.00  0.00    +0.000 C 
ATOM      6  C   UNL     1       0.629   4.471  20.083  0.00  0.00    +0.000 C 
ENDROOT
BRANCH   1   8
ATOM      7  C   UNL     1       2.834   6.445  18.910  0.00  0.00    +0.000 C 
ATOM      8  N   UNL     1       2.060   6.533  20.138  0.00  0.00    +0.000 N 
ATOM      9  C   UNL     1       1.454   7.711  20.508  0.00  0.00    +0.000 A 
ATOM     10  N   UNL     1       0.799   7.853  21.643  0.00  0.00    +0.000 NA
ATOM     11  C   UNL     1       0.292   9.131  21.783  0.00  0.00    +0.000 A 
ATOM     12  C   UNL     1      -0.435   9.613  22.891  0.00  0.00    +0.000 A 
ATOM     13  C   UNL     1      -0.892  10.935  22.895  0.00  0.00    +0.000 A 
ATOM     14  C   UNL     1      -0.637  11.773  21.813  0.00  0.00    +0.000 A 
ATOM     15  C   UNL     1       0.083  11.314  20.706  0.00  0.00    +0.000 A 
ATOM     16  C   UNL     1       0.539   9.987  20.718  0.00  0.00    +0.000 A 
ATOM     17  S   UNL     1       1.443   9.145  19.533  0.00  0.00    +0.000 S 
ENDBRANCH   1   8
BRANCH   4  18
ATOM     18  C   UNL     1       2.919   1.950  18.443  0.00  0.00    +0.000 C 
BRANCH  18  19
ATOM     19  C   UNL     1       2.811   2.629  17.067  0.00  0.00    +0.000 C 
BRANCH  19  20
ATOM     20  C   UNL     1       4.164   2.911  16.404  0.00  0.00    +0.000 C 
BRANCH  20  21
ATOM     21  C   UNL     1       4.650   4.316  16.738  0.00  0.00    +0.000 C 
BRANCH  21  22
ATOM     22  O   UNL     1       5.584   4.281  17.817  0.00  0.00    +0.000 OA
BRANCH  22  23
ATOM     23  C   UNL     1       6.356   5.413  17.907  0.00  0.00    +0.000 A 
ATOM     24  C   UNL     1       6.204   6.541  17.091  0.00  0.00    +0.000 A 
ATOM     25  C   UNL     1       7.034   7.649  17.260  0.00  0.00    +0.000 A 
ATOM     26  C   UNL     1       8.004   7.630  18.251  0.00  0.00    +0.000 A 
ATOM     27  F   UNL     1       8.801   8.695  18.413  0.00  0.00    +0.000 F 
ATOM     28  C   UNL     1       8.157   6.525  19.082  0.00  0.00    +0.000 A 
ATOM     29  C   UNL     1       7.325   5.415  18.913  0.00  0.00    +0.000 A 
ENDBRANCH  22  23
ENDBRANCH  21  22
ENDBRANCH  20  21
ENDBRANCH  19  20
ENDBRANCH  18  19
ENDBRANCH   4  18
TORSDOF 7
ENDMDL
MODEL 8
REMARK VINA RESULT:      -7.1      3.937      9.318
REMARK  Name = 
REMARK  8 active torsions:
REMARK  status: ('A' for Active; 'I' for Inactive)
REMARK    1  A    between atoms: C_1  and  N_2
REMARK    2  A    between atoms: N_2  and  C_12
REMARK    3  A    between atoms: N_15  and  C_16
REMARK    4  A    between atoms: C_16  and  C_17
REMARK    5  A    between atoms: C_17  and  C_18
REMARK    6  A    between atoms: C_18  and  C_19
REMARK    7  A    between atoms: C_19  and  O_20
REMARK    8  A    between atoms: O_20  and  C_21
REMARK                            x       y       z     vdW  Elec       q    Type
REMARK                         _______ _______ _______ _____ _____    ______ ____
ROOT
ATOM      1  C   UNL     1       4.270   3.261  17.913  0.00  0.00    +0.000 C 
ATOM      2  C   UNL     1       2.868   3.347  17.305  0.00  0.00    +0.000 C 
ATOM      3  C   UNL     1       1.887   4.196  18.111  0.00  0.00    +0.000 C 
ATOM      4  N   UNL     1       1.866   3.879  19.544  0.00  0.00    +0.000 NA
ATOM      5  C   UNL     1       3.213   3.909  20.134  0.00  0.00    +0.000 C 
ATOM      6  C   UNL     1       4.166   2.962  19.413  0.00  0.00    +0.000 C 
ENDROOT
BRANCH   1   8
ATOM      7  C   UNL     1       5.640   5.276  18.698  0.00  0.00    +0.000 C 
ATOM      8  N   UNL     1       5.157   4.421  17.626  0.00  0.00    +0.000 N 
ATOM      9  C   UNL     1       5.715   4.479  16.370  0.00  0.00    +0.000 A 
ATOM     10  N   UNL     1       5.265   3.771  15.354  0.00  0.00    +0.000 NA
ATOM     11  C   UNL     1       5.989   4.014  14.202  0.00  0.00    +0.000 A 
ATOM     12  C   UNL     1       5.748   3.436  12.939  0.00  0.00    +0.000 A 
ATOM     13  C   UNL     1       6.568   3.774  11.857  0.00  0.00    +0.000 A 
ATOM     14  C   UNL     1       7.618   4.672  12.021  0.00  0.00    +0.000 A 
ATOM     15  C   UNL     1       7.873   5.256  13.265  0.00  0.00    +0.000 A 
ATOM     16  C   UNL     1       7.039   4.912  14.340  0.00  0.00    +0.000 A 
ATOM     17  S   UNL     1       7.087   5.458  15.962  0.00  0.00    +0.000 S 
ENDBRANCH   1   8
BRANCH   4  18
ATOM     18  C   UNL     1       0.977   4.802  20.270  0.00  0.00    +0.000 C 
BRANCH  18  19
ATOM     19  C   UNL     1       1.734   5.936  20.984  0.00  0.00    +0.000 C 
BRANCH  19  20
ATOM     20  C   UNL     1       1.741   7.262  20.213  0.00  0.00    +0.000 C 
BRANCH  20  21
ATOM     21  C   UNL     1       1.198   8.394  21.075  0.00  0.00    +0.000 C 
BRANCH  21  22
ATOM     22  O   UNL     1       0.311   9.220  20.320  0.00  0.00    +0.000 OA
BRANCH  22  23
ATOM     23  C   UNL     1       0.859  10.428  19.967  0.00  0.00    +0.000 A 
ATOM     24  C   UNL     1       1.354  10.731  18.692  0.00  0.00    +0.000 A 
ATOM     25  C   UNL     1       1.889  11.991  18.426  0.00  0.00    +0.000 A 
ATOM     26  C   UNL     1       1.917  12.947  19.429  0.00  0.00    +0.000 A 
ATOM     27  F   UNL     1       2.430  14.157  19.172  0.00  0.00    +0.000 F 
ATOM     28  C   UNL     1       1.412  12.670  20.696  0.00  0.00    +0.000 A 
ATOM     29  C   UNL     1       0.876  11.407  20.963  0.00  0.00    +0.000 A 
ENDBRANCH  22  23
ENDBRANCH  21  22
ENDBRANCH  20  21
ENDBRANCH  19  20
ENDBRANCH  18  19
ENDBRANCH   4  18
TORSDOF 7
ENDMDL
MODEL 9
REMARK VINA RESULT:      -7.1      3.657      5.584
REMARK  Name = 
REMARK  8 active torsions:
REMARK  status: ('A' for Active; 'I' for Inactive)
REMARK    1  A    between atoms: C_1  and  N_2
REMARK    2  A    between atoms: N_2  and  C_12
REMARK    3  A    between atoms: N_15  and  C_16
REMARK    4  A    between atoms: C_16  and  C_17
REMARK    5  A    between atoms: C_17  and  C_18
REMARK    6  A    between atoms: C_18  and  C_19
REMARK    7  A    between atoms: C_19  and  O_20
REMARK    8  A    between atoms: O_20  and  C_21
REMARK                            x       y       z     vdW  Elec       q    Type
REMARK                         _______ _______ _______ _____ _____    ______ ____
ROOT
ATOM      1  C   UNL     1       0.448  10.196  19.177  0.00  0.00    +0.000 C 
ATOM      2  C   UNL     1       0.486   9.206  20.343  0.00  0.00    +0.000 C 
ATOM      3  C   UNL     1       1.710   8.293  20.351  0.00  0.00    +0.000 C 
ATOM      4  N   UNL     1       1.983   7.657  19.056  0.00  0.00    +0.000 NA
ATOM      5  C   UNL     1       2.051   8.638  17.963  0.00  0.00    +0.000 C 
ATOM      6  C   UNL     1       0.775   9.467  17.869  0.00  0.00    +0.000 C 
ENDROOT
BRANCH   1   8
ATOM      7  C   UNL     1       2.304  11.782  18.406  0.00  0.00    +0.000 C 
ATOM      8  N   UNL     1       1.267  11.425  19.361  0.00  0.00    +0.000 N 
ATOM      9  C   UNL     1       0.824  12.332  20.294  0.00  0.00    +0.000 A 
ATOM     10  N   UNL     1      -0.065  12.030  21.219  0.00  0.00    +0.000 NA
ATOM     11  C   UNL     1      -0.337  13.110  22.038  0.00  0.00    +0.000 A 
ATOM     12  C   UNL     1      -1.222  13.111  23.136  0.00  0.00    +0.000 A 
ATOM     13  C   UNL     1      -1.401  14.284  23.877  0.00  0.00    +0.000 A 
ATOM     14  C   UNL     1      -0.716  15.446  23.535  0.00  0.00    +0.000 A 
ATOM     15  C   UNL     1       0.165  15.465  22.451  0.00  0.00    +0.000 A 
ATOM     16  C   UNL     1       0.340  14.280  21.720  0.00  0.00    +0.000 A 
ATOM     17  S   UNL     1       1.343  13.985  20.365  0.00  0.00    +0.000 S 
ENDBRANCH   1   8
BRANCH   4  18
ATOM     18  C   UNL     1       3.231   6.875  19.111  0.00  0.00    +0.000 C 
BRANCH  18  19
ATOM     19  C   UNL     1       3.709   6.401  17.727  0.00  0.00    +0.000 C 
BRANCH  19  20
ATOM     20  C   UNL     1       4.627   5.173  17.773  0.00  0.00    +0.000 C 
BRANCH  20  21
ATOM     21  C   UNL     1       4.096   4.064  16.874  0.00  0.00    +0.000 C 
BRANCH  21  22
ATOM     22  O   UNL     1       4.066   2.820  17.576  0.00  0.00    +0.000 OA
BRANCH  22  23
ATOM     23  C   UNL     1       3.188   2.811  18.631  0.00  0.00    +0.000 A 
ATOM     24  C   UNL     1       1.794   2.842  18.500  0.00  0.00    +0.000 A 
ATOM     25  C   UNL     1       0.979   2.824  19.633  0.00  0.00    +0.000 A 
ATOM     26  C   UNL     1       1.561   2.764  20.890  0.00  0.00    +0.000 A 
ATOM     27  F   UNL     1       0.778   2.746  21.977  0.00  0.00    +0.000 F 
ATOM     28  C   UNL     1       2.943   2.714  21.038  0.00  0.00    +0.000 A 
ATOM     29  C   UNL     1       3.759   2.731  19.903  0.00  0.00    +0.000 A 
ENDBRANCH  22  23
ENDBRANCH  21  22
ENDBRANCH  20  21
ENDBRANCH  19  20
ENDBRANCH  18  19
ENDBRANCH   4  18
TORSDOF 7
ENDMDL
