MODEL 1
REMARK VINA RESULT:      -7.8      0.000      0.000
REMARK  Name = 
REMARK  8 active torsions:
REMARK  status: ('A' for Active; 'I' for Inactive)
REMARK    1  A    between atoms: C_1  and  C_2
REMARK    2  A    between atoms: C_2  and  C_3
REMARK    3  A    between atoms: C_2  and  N_4
REMARK    4  A    between atoms: N_4  and  C_5
REMARK    5  A    between atoms: N_4  and  S_12
REMARK    6  A    between atoms: C_5  and  C_6
REMARK    7  A    between atoms: S_12  and  C_15
REMARK    8  A    between atoms: C_18  and  N_19
REMARK                            x       y       z     vdW  Elec       q    Type
REMARK                         _______ _______ _______ _____ _____    ______ ____
ROOT
ATOM      1  S   UNL     1       4.803   4.118  19.491  0.00  0.00    +0.000 S 
ATOM      2  O   UNL     1       5.452   5.210  20.193  0.00  0.00    +0.000 OA
ATOM      3  O   UNL     1       4.973   2.749  19.937  0.00  0.00    +0.000 OA
ENDROOT
BRANCH   1   4
ATOM      4  C   UNL     1       5.426   4.239  17.825  0.00  0.00    +0.000 A 
ATOM      5  C   UNL     1       4.536   4.094  16.754  0.00  0.00    +0.000 A 
ATOM      6  C   UNL     1       4.985   4.261  15.440  0.00  0.00    +0.000 A 
ATOM      7  C   UNL     1       6.336   4.542  15.193  0.00  0.00    +0.000 A 
ATOM      8  C   UNL     1       7.209   4.734  16.273  0.00  0.00    +0.000 A 
ATOM      9  C   UNL     1       6.739   4.640  17.583  0.00  0.00    +0.000 A 
BRANCH   7  10
ATOM     10  N   UNL     1       6.841   4.645  13.868  0.00  0.00    +0.000 N 
ATOM     11  C   UNL     1       6.495   3.893  12.765  0.00  0.00    +0.000 A 
ATOM     12  C   UNL     1       7.268   4.332  11.717  0.00  0.00    +0.000 A 
ATOM     13  C   UNL     1       8.058   5.349  12.265  0.00  0.00    +0.000 A 
ATOM     14  N   UNL     1       7.802   5.554  13.557  0.00  0.00    +0.000 NA
ENDBRANCH   7  10
ENDBRANCH   1   4
BRANCH   1  15
ATOM     15  N   UNL     1       3.104   4.454  19.384  0.00  0.00    +0.000 NA
BRANCH  15  17
ATOM     16  C   UNL     1       1.235   3.307  20.658  0.00  0.00    +0.000 C 
ATOM     17  C   UNL     1       2.132   3.286  19.409  0.00  0.00    +0.000 C 
ATOM     18  C   UNL     1       1.174   3.267  18.223  0.00  0.00    +0.000 C 
ENDBRANCH  15  17
BRANCH  15  19
ATOM     19  C   UNL     1       2.698   5.603  20.273  0.00  0.00    +0.000 C 
BRANCH  19  20
ATOM     20  C   UNL     1       2.337   6.910  19.591  0.00  0.00    +0.000 A 
ATOM     21  C   UNL     1       1.639   7.913  20.283  0.00  0.00    +0.000 A 
ATOM     22  C   UNL     1       1.286   9.111  19.659  0.00  0.00    +0.000 A 
ATOM     23  C   UNL     1       1.641   9.336  18.333  0.00  0.00    +0.000 A 
ATOM     24  C   UNL     1       2.354   8.366  17.637  0.00  0.00    +0.000 A 
ATOM     25  C   UNL     1       2.702   7.165  18.261  0.00  0.00    +0.000 A 
ENDBRANCH  19  20
ENDBRANCH  15  19
ENDBRANCH   1  15
TORSDOF 6
ENDMDL
MODEL 2
REMARK VINA RESULT:      -7.7      0.205      1.379
REMARK  Name = 
REMARK  8 active torsions:
REMARK  status: ('A' for Active; 'I' for Inactive)
REMARK    1  A    between atoms: C_1  and  C_2
REMARK    2  A    between atoms: C_2  and  C_3
REMARK    3  A    between atoms: C_2  and  N_4
REMARK    4  A    between atoms: N_4  and  C_5
REMARK    5  A    between atoms: N_4  and  S_12
REMARK    6  A    between atoms: C_5  and  C_6
REMARK    7  A    between atoms: S_12  and  C_15
REMARK    8  A    between atoms: C_18  and  N_19
REMARK                            x       y       z     vdW  Elec       q    Type
REMARK                         _______ _______ _______ _____ _____    ______ ____
ROOT
ATOM      1  S   UNL     1       4.831   4.228  19.386  0.00  0.00    +0.000 S 
ATOM      2  O   UNL     1       5.541   5.288  20.079  0.00  0.00    +0.000 OA
ATOM      3  O   UNL     1       4.969   2.848  19.807  0.00  0.00    +0.000 OA
ENDROOT
BRANCH   1   4
ATOM      4  C   UNL     1       5.400   4.353  17.701  0.00  0.00    +0.000 A 
ATOM      5  C   UNL     1       6.748   4.644  17.458  0.00  0.00    +0.000 A 
ATOM      6  C   UNL     1       7.235   4.672  16.147  0.00  0.00    +0.000 A 
ATOM      7  C   UNL     1       6.365   4.440  15.072  0.00  0.00    +0.000 A 
ATOM      8  C   UNL     1       5.029   4.101  15.328  0.00  0.00    +0.000 A 
ATOM      9  C   UNL     1       4.566   4.002  16.640  0.00  0.00    +0.000 A 
BRANCH   7  10
ATOM     10  N   UNL     1       6.811   4.533  13.725  0.00  0.00    +0.000 N 
ATOM     11  C   UNL     1       6.503   3.703  12.668  0.00  0.00    +0.000 A 
ATOM     12  C   UNL     1       7.192   4.170  11.574  0.00  0.00    +0.000 A 
ATOM     13  C   UNL     1       7.895   5.282  12.049  0.00  0.00    +0.000 A 
ATOM     14  N   UNL     1       7.665   5.518  13.341  0.00  0.00    +0.000 NA
ENDBRANCH   7  10
ENDBRANCH   1   4
BRANCH   1  15
ATOM     15  N   UNL     1       3.142   4.625  19.343  0.00  0.00    +0.000 NA
BRANCH  15  17
ATOM     16  C   UNL     1       1.163   3.598  20.551  0.00  0.00    +0.000 C 
ATOM     17  C   UNL     1       2.132   3.489  19.362  0.00  0.00    +0.000 C 
ATOM     18  C   UNL     1       1.246   3.443  18.121  0.00  0.00    +0.000 C 
ENDBRANCH  15  17
BRANCH  15  19
ATOM     19  C   UNL     1       2.803   5.757  20.279  0.00  0.00    +0.000 C 
BRANCH  19  20
ATOM     20  C   UNL     1       2.318   7.052  19.651  0.00  0.00    +0.000 A 
ATOM     21  C   UNL     1       2.595   7.346  18.307  0.00  0.00    +0.000 A 
ATOM     22  C   UNL     1       2.170   8.542  17.725  0.00  0.00    +0.000 A 
ATOM     23  C   UNL     1       1.445   9.461  18.474  0.00  0.00    +0.000 A 
ATOM     24  C   UNL     1       1.138   9.179  19.802  0.00  0.00    +0.000 A 
ATOM     25  C   UNL     1       1.568   7.983  20.384  0.00  0.00    +0.000 A 
ENDBRANCH  19  20
ENDBRANCH  15  19
ENDBRANCH   1  15
TORSDOF 6
ENDMDL
MODEL 3
REMARK VINA RESULT:      -7.2      2.431      7.585
REMARK  Name = 
REMARK  8 active torsions:
REMARK  status: ('A' for Active; 'I' for Inactive)
REMARK    1  A    between atoms: C_1  and  C_2
REMARK    2  A    between atoms: C_2  and  C_3
REMARK    3  A    between atoms: C_2  and  N_4
REMARK    4  A    between atoms: N_4  and  C_5
REMARK    5  A    between atoms: N_4  and  S_12
REMARK    6  A    between atoms: C_5  and  C_6
REMARK    7  A    between atoms: S_12  and  C_15
REMARK    8  A    between atoms: C_18  and  N_19
REMARK                            x       y       z     vdW  Elec       q    Type
REMARK                         _______ _______ _______ _____ _____    ______ ____
ROOT
ATOM      1  S   UNL     1       4.532   4.826  17.835  0.00  0.00    +0.000 S 
ATOM      2  O   UNL     1       3.777   4.253  16.735  0.00  0.00    +0.000 OA
ATOM      3  O   UNL     1       4.846   4.034  19.008  0.00  0.00    +0.000 OA
ENDROOT
BRANCH   1   4
ATOM      4  C   UNL     1       3.552   6.222  18.355  0.00  0.00    +0.000 A 
ATOM      5  C   UNL     1       3.354   7.284  17.465  0.00  0.00    +0.000 A 
ATOM      6  C   UNL     1       2.528   8.354  17.821  0.00  0.00    +0.000 A 
ATOM      7  C   UNL     1       1.922   8.380  19.085  0.00  0.00    +0.000 A 
ATOM      8  C   UNL     1       2.087   7.290  19.951  0.00  0.00    +0.000 A 
ATOM      9  C   UNL     1       2.853   6.191  19.561  0.00  0.00    +0.000 A 
BRANCH   7  10
ATOM     10  N   UNL     1       1.136   9.487  19.507  0.00  0.00    +0.000 N 
ATOM     11  C   UNL     1       0.185   9.524  20.504  0.00  0.00    +0.000 A 
ATOM     12  C   UNL     1      -0.330  10.798  20.525  0.00  0.00    +0.000 A 
ATOM     13  C   UNL     1       0.358  11.472  19.510  0.00  0.00    +0.000 A 
ATOM     14  N   UNL     1       1.252  10.696  18.897  0.00  0.00    +0.000 NA
ENDBRANCH   7  10
ENDBRANCH   1   4
BRANCH   1  15
ATOM     15  N   UNL     1       6.007   5.493  17.210  0.00  0.00    +0.000 NA
BRANCH  15  17
ATOM     16  C   UNL     1       7.864   5.735  18.920  0.00  0.00    +0.000 C 
ATOM     17  C   UNL     1       6.793   6.456  18.085  0.00  0.00    +0.000 C 
ATOM     18  C   UNL     1       7.545   7.521  17.294  0.00  0.00    +0.000 C 
ENDBRANCH  15  17
BRANCH  15  19
ATOM     19  C   UNL     1       6.860   4.448  16.537  0.00  0.00    +0.000 C 
BRANCH  19  20
ATOM     20  C   UNL     1       6.872   4.438  15.019  0.00  0.00    +0.000 A 
ATOM     21  C   UNL     1       6.001   3.606  14.299  0.00  0.00    +0.000 A 
ATOM     22  C   UNL     1       6.017   3.576  12.903  0.00  0.00    +0.000 A 
ATOM     23  C   UNL     1       6.895   4.393  12.199  0.00  0.00    +0.000 A 
ATOM     24  C   UNL     1       7.750   5.244  12.892  0.00  0.00    +0.000 A 
ATOM     25  C   UNL     1       7.736   5.269  14.290  0.00  0.00    +0.000 A 
ENDBRANCH  19  20
ENDBRANCH  15  19
ENDBRANCH   1  15
TORSDOF 6
ENDMDL
MODEL 4
REMARK VINA RESULT:      -7.2      2.394      7.559
REMARK  Name = 
REMARK  8 active torsions:
REMARK  status: ('A' for Active; 'I' for Inactive)
REMARK    1  A    between atoms: C_1  and  C_2
REMARK    2  A    between atoms: C_2  and  C_3
REMARK    3  A    between atoms: C_2  and  N_4
REMARK    4  A    between atoms: N_4  and  C_5
REMARK    5  A    between atoms: N_4  and  S_12
REMARK    6  A    between atoms: C_5  and  C_6
REMARK    7  A    between atoms: S_12  and  C_15
REMARK    8  A    between atoms: C_18  and  N_19
REMARK                            x       y       z     vdW  Elec       q    Type
REMARK                         _______ _______ _______ _____ _____    ______ ____
ROOT
ATOM      1  S   UNL     1       4.561   4.757  17.889  0.00  0.00    +0.000 S 
ATOM      2  O   UNL     1       3.860   4.073  16.817  0.00  0.00    +0.000 OA
ATOM      3  O   UNL     1       4.890   4.062  19.118  0.00  0.00    +0.000 OA
ENDROOT
BRANCH   1   4
ATOM      4  C   UNL     1       3.501   6.131  18.295  0.00  0.00    +0.000 A 
ATOM      5  C   UNL     1       2.850   6.144  19.536  0.00  0.00    +0.000 A 
ATOM      6  C   UNL     1       2.074   7.246  19.910  0.00  0.00    +0.000 A 
ATOM      7  C   UNL     1       1.920   8.325  19.027  0.00  0.00    +0.000 A 
ATOM      8  C   UNL     1       2.613   8.324  17.809  0.00  0.00    +0.000 A 
ATOM      9  C   UNL     1       3.445   7.255  17.473  0.00  0.00    +0.000 A 
BRANCH   7  10
ATOM     10  N   UNL     1       1.079   9.426  19.345  0.00  0.00    +0.000 N 
ATOM     11  C   UNL     1       0.849   9.992  20.581  0.00  0.00    +0.000 A 
ATOM     12  C   UNL     1      -0.060  11.007  20.398  0.00  0.00    +0.000 A 
ATOM     13  C   UNL     1      -0.333  10.992  19.026  0.00  0.00    +0.000 A 
ATOM     14  N   UNL     1       0.355  10.051  18.379  0.00  0.00    +0.000 NA
ENDBRANCH   7  10
ENDBRANCH   1   4
BRANCH   1  15
ATOM     15  N   UNL     1       6.013   5.457  17.246  0.00  0.00    +0.000 NA
BRANCH  15  17
ATOM     16  C   UNL     1       7.871   5.746  18.948  0.00  0.00    +0.000 C 
ATOM     17  C   UNL     1       6.785   6.441  18.110  0.00  0.00    +0.000 C 
ATOM     18  C   UNL     1       7.517   7.511  17.307  0.00  0.00    +0.000 C 
ENDBRANCH  15  17
BRANCH  15  19
ATOM     19  C   UNL     1       6.884   4.431  16.566  0.00  0.00    +0.000 C 
BRANCH  19  20
ATOM     20  C   UNL     1       6.902   4.438  15.048  0.00  0.00    +0.000 A 
ATOM     21  C   UNL     1       7.789   5.267  14.343  0.00  0.00    +0.000 A 
ATOM     22  C   UNL     1       7.800   5.294  12.947  0.00  0.00    +0.000 A 
ATOM     23  C   UNL     1       6.935   4.478  12.228  0.00  0.00    +0.000 A 
ATOM     24  C   UNL     1       6.064   3.630  12.906  0.00  0.00    +0.000 A 
ATOM     25  C   UNL     1       6.051   3.607  14.304  0.00  0.00    +0.000 A 
ENDBRANCH  19  20
ENDBRANCH  15  19
ENDBRANCH   1  15
TORSDOF 6
ENDMDL
MODEL 5
REMARK VINA RESULT:      -6.9      2.464      7.490
REMARK  Name = 
REMARK  8 active torsions:
REMARK  status: ('A' for Active; 'I' for Inactive)
REMARK    1  A    between atoms: C_1  and  C_2
REMARK    2  A    between atoms: C_2  and  C_3
REMARK    3  A    between atoms: C_2  and  N_4
REMARK    4  A    between atoms: N_4  and  C_5
REMARK    5  A    between atoms: N_4  and  S_12
REMARK    6  A    between atoms: C_5  and  C_6
REMARK    7  A    between atoms: S_12  and  C_15
REMARK    8  A    between atoms: C_18  and  N_19
REMARK                            x       y       z     vdW  Elec       q    Type
REMARK                         _______ _______ _______ _____ _____    ______ ____
ROOT
ATOM      1  S   UNL     1       4.097   4.782  18.154  0.00  0.00    +0.000 S 
ATOM      2  O   UNL     1       3.307   4.057  17.175  0.00  0.00    +0.000 OA
ATOM      3  O   UNL     1       4.406   4.187  19.440  0.00  0.00    +0.000 OA
ENDROOT
BRANCH   1   4
ATOM      4  C   UNL     1       3.167   6.275  18.444  0.00  0.00    +0.000 A 
ATOM      5  C   UNL     1       2.559   6.467  19.691  0.00  0.00    +0.000 A 
ATOM      6  C   UNL     1       1.889   7.662  19.969  0.00  0.00    +0.000 A 
ATOM      7  C   UNL     1       1.796   8.657  18.986  0.00  0.00    +0.000 A 
ATOM      8  C   UNL     1       2.449   8.476  17.758  0.00  0.00    +0.000 A 
ATOM      9  C   UNL     1       3.179   7.313  17.514  0.00  0.00    +0.000 A 
BRANCH   7  10
ATOM     10  N   UNL     1       1.060   9.853  19.209  0.00  0.00    +0.000 N 
ATOM     11  C   UNL     1      -0.147   9.999  19.860  0.00  0.00    +0.000 A 
ATOM     12  C   UNL     1      -0.481  11.331  19.798  0.00  0.00    +0.000 A 
ATOM     13  C   UNL     1       0.572  11.925  19.093  0.00  0.00    +0.000 A 
ATOM     14  N   UNL     1       1.511  11.047  18.743  0.00  0.00    +0.000 NA
ENDBRANCH   7  10
ENDBRANCH   1   4
BRANCH   1  15
ATOM     15  N   UNL     1       5.580   5.288  17.410  0.00  0.00    +0.000 NA
BRANCH  15  17
ATOM     16  C   UNL     1       7.779   5.464  18.661  0.00  0.00    +0.000 C 
ATOM     17  C   UNL     1       6.510   6.198  18.196  0.00  0.00    +0.000 C 
ATOM     18  C   UNL     1       7.006   7.398  17.397  0.00  0.00    +0.000 C 
ENDBRANCH  15  17
BRANCH  15  19
ATOM     19  C   UNL     1       6.285   4.148  16.718  0.00  0.00    +0.000 C 
BRANCH  19  20
ATOM     20  C   UNL     1       6.505   4.278  15.222  0.00  0.00    +0.000 A 
ATOM     21  C   UNL     1       5.696   3.577  14.313  0.00  0.00    +0.000 A 
ATOM     22  C   UNL     1       5.903   3.675  12.936  0.00  0.00    +0.000 A 
ATOM     23  C   UNL     1       6.913   4.491  12.440  0.00  0.00    +0.000 A 
ATOM     24  C   UNL     1       7.710   5.214  13.322  0.00  0.00    +0.000 A 
ATOM     25  C   UNL     1       7.505   5.111  14.701  0.00  0.00    +0.000 A 
ENDBRANCH  19  20
ENDBRANCH  15  19
ENDBRANCH   1  15
TORSDOF 6
ENDMDL
MODEL 6
REMARK VINA RESULT:      -6.8      0.786      1.424
REMARK  Name = 
REMARK  8 active torsions:
REMARK  status: ('A' for Active; 'I' for Inactive)
REMARK    1  A    between atoms: C_1  and  C_2
REMARK    2  A    between atoms: C_2  and  C_3
REMARK    3  A    between atoms: C_2  and  N_4
REMARK    4  A    between atoms: N_4  and  C_5
REMARK    5  A    between atoms: N_4  and  S_12
REMARK    6  A    between atoms: C_5  and  C_6
REMARK    7  A    between atoms: S_12  and  C_15
REMARK    8  A    between atoms: C_18  and  N_19
REMARK                            x       y       z     vdW  Elec       q    Type
REMARK                         _______ _______ _______ _____ _____    ______ ____
ROOT
ATOM      1  S   UNL     1       4.198   3.534  19.339  0.00  0.00    +0.000 S 
ATOM      2  O   UNL     1       5.235   3.789  20.322  0.00  0.00    +0.000 OA
ATOM      3  O   UNL     1       3.585   2.224  19.234  0.00  0.00    +0.000 OA
ENDROOT
BRANCH   1   4
ATOM      4  C   UNL     1       4.975   3.908  17.779  0.00  0.00    +0.000 A 
ATOM      5  C   UNL     1       6.329   4.265  17.762  0.00  0.00    +0.000 A 
ATOM      6  C   UNL     1       6.981   4.489  16.545  0.00  0.00    +0.000 A 
ATOM      7  C   UNL     1       6.269   4.389  15.341  0.00  0.00    +0.000 A 
ATOM      8  C   UNL     1       4.927   3.984  15.365  0.00  0.00    +0.000 A 
ATOM      9  C   UNL     1       4.302   3.689  16.578  0.00  0.00    +0.000 A 
BRANCH   7  10
ATOM     10  N   UNL     1       6.882   4.682  14.092  0.00  0.00    +0.000 N 
ATOM     11  C   UNL     1       6.566   4.173  12.850  0.00  0.00    +0.000 A 
ATOM     12  C   UNL     1       7.450   4.723  11.952  0.00  0.00    +0.000 A 
ATOM     13  C   UNL     1       8.269   5.551  12.726  0.00  0.00    +0.000 A 
ATOM     14  N   UNL     1       7.930   5.543  14.015  0.00  0.00    +0.000 NA
ENDBRANCH   7  10
ENDBRANCH   1   4
BRANCH   1  15
ATOM     15  N   UNL     1       2.942   4.714  19.535  0.00  0.00    +0.000 NA
BRANCH  15  17
ATOM     16  C   UNL     1       0.715   3.514  19.723  0.00  0.00    +0.000 C 
ATOM     17  C   UNL     1       1.767   4.378  20.439  0.00  0.00    +0.000 C 
ATOM     18  C   UNL     1       2.163   3.586  21.681  0.00  0.00    +0.000 C 
ENDBRANCH  15  17
BRANCH  15  19
ATOM     19  C   UNL     1       3.496   6.101  19.747  0.00  0.00    +0.000 C 
BRANCH  19  20
ATOM     20  C   UNL     1       2.609   7.268  19.353  0.00  0.00    +0.000 A 
ATOM     21  C   UNL     1       1.794   7.904  20.302  0.00  0.00    +0.000 A 
ATOM     22  C   UNL     1       0.960   8.966  19.945  0.00  0.00    +0.000 A 
ATOM     23  C   UNL     1       0.939   9.423  18.632  0.00  0.00    +0.000 A 
ATOM     24  C   UNL     1       1.757   8.823  17.680  0.00  0.00    +0.000 A 
ATOM     25  C   UNL     1       2.587   7.757  18.038  0.00  0.00    +0.000 A 
ENDBRANCH  19  20
ENDBRANCH  15  19
ENDBRANCH   1  15
TORSDOF 6
ENDMDL
MODEL 7
REMARK VINA RESULT:      -6.7      2.307      6.902
REMARK  Name = 
REMARK  8 active torsions:
REMARK  status: ('A' for Active; 'I' for Inactive)
REMARK    1  A    between atoms: C_1  and  C_2
REMARK    2  A    between atoms: C_2  and  C_3
REMARK    3  A    between atoms: C_2  and  N_4
REMARK    4  A    between atoms: N_4  and  C_5
REMARK    5  A    between atoms: N_4  and  S_12
REMARK    6  A    between atoms: C_5  and  C_6
REMARK    7  A    between atoms: S_12  and  C_15
REMARK    8  A    between atoms: C_18  and  N_19
REMARK                            x       y       z     vdW  Elec       q    Type
REMARK                         _______ _______ _______ _____ _____    ______ ____
ROOT
ATOM      1  S   UNL     1       5.323   5.648  18.160  0.00  0.00    +0.000 S 
ATOM      2  O   UNL     1       5.255   4.709  19.265  0.00  0.00    +0.000 OA
ATOM      3  O   UNL     1       6.520   6.433  17.930  0.00  0.00    +0.000 OA
ENDROOT
BRANCH   1   4
ATOM      4  C   UNL     1       3.973   6.773  18.462  0.00  0.00    +0.000 A 
ATOM      5  C   UNL     1       3.653   7.728  17.489  0.00  0.00    +0.000 A 
ATOM      6  C   UNL     1       2.551   8.571  17.668  0.00  0.00    +0.000 A 
ATOM      7  C   UNL     1       1.786   8.482  18.839  0.00  0.00    +0.000 A 
ATOM      8  C   UNL     1       2.084   7.491  19.785  0.00  0.00    +0.000 A 
ATOM      9  C   UNL     1       3.139   6.605  19.566  0.00  0.00    +0.000 A 
BRANCH   7  10
ATOM     10  N   UNL     1       0.705   9.373  19.087  0.00  0.00    +0.000 N 
ATOM     11  C   UNL     1       0.288   9.889  20.295  0.00  0.00    +0.000 A 
ATOM     12  C   UNL     1      -0.811  10.674  20.042  0.00  0.00    +0.000 A 
ATOM     13  C   UNL     1      -0.999  10.580  18.659  0.00  0.00    +0.000 A 
ATOM     14  N   UNL     1      -0.086   9.808  18.071  0.00  0.00    +0.000 NA
ENDBRANCH   7  10
ENDBRANCH   1   4
BRANCH   1  15
ATOM     15  N   UNL     1       4.921   4.813  16.694  0.00  0.00    +0.000 NA
BRANCH  15  17
ATOM     16  C   UNL     1       7.224   4.432  15.702  0.00  0.00    +0.000 C 
ATOM     17  C   UNL     1       5.816   5.010  15.481  0.00  0.00    +0.000 C 
ATOM     18  C   UNL     1       5.291   4.328  14.222  0.00  0.00    +0.000 C 
ENDBRANCH  15  17
BRANCH  15  19
ATOM     19  C   UNL     1       4.545   3.375  16.946  0.00  0.00    +0.000 C 
BRANCH  19  20
ATOM     20  C   UNL     1       3.241   3.119  17.680  0.00  0.00    +0.000 A 
ATOM     21  C   UNL     1       3.134   2.076  18.613  0.00  0.00    +0.000 A 
ATOM     22  C   UNL     1       1.933   1.822  19.279  0.00  0.00    +0.000 A 
ATOM     23  C   UNL     1       0.820   2.618  19.037  0.00  0.00    +0.000 A 
ATOM     24  C   UNL     1       0.911   3.673  18.134  0.00  0.00    +0.000 A 
ATOM     25  C   UNL     1       2.112   3.923  17.464  0.00  0.00    +0.000 A 
ENDBRANCH  19  20
ENDBRANCH  15  19
ENDBRANCH   1  15
TORSDOF 6
ENDMDL
MODEL 8
REMARK VINA RESULT:      -6.6      4.137      6.511
REMARK  Name = 
REMARK  8 active torsions:
REMARK  status: ('A' for Active; 'I' for Inactive)
REMARK    1  A    between atoms: C_1  and  C_2
REMARK    2  A    between atoms: C_2  and  C_3
REMARK    3  A    between atoms: C_2  and  N_4
REMARK    4  A    between atoms: N_4  and  C_5
REMARK    5  A    between atoms: N_4  and  S_12
REMARK    6  A    between atoms: C_5  and  C_6
REMARK    7  A    between atoms: S_12  and  C_15
REMARK    8  A    between atoms: C_18  and  N_19
REMARK                            x       y       z     vdW  Elec       q    Type
REMARK                         _______ _______ _______ _____ _____    ______ ____
ROOT
ATOM      1  S   UNL     1       0.430   9.721  20.785  0.00  0.00    +0.000 S 
ATOM      2  O   UNL     1       1.334  10.379  21.711  0.00  0.00    +0.000 OA
ATOM      3  O   UNL     1      -0.662   8.903  21.274  0.00  0.00    +0.000 OA
ENDROOT
BRANCH   1   4
ATOM      4  C   UNL     1       1.497   8.688  19.797  0.00  0.00    +0.000 A 
ATOM      5  C   UNL     1       1.881   7.436  20.293  0.00  0.00    +0.000 A 
ATOM      6  C   UNL     1       2.654   6.576  19.505  0.00  0.00    +0.000 A 
ATOM      7  C   UNL     1       3.072   6.982  18.230  0.00  0.00    +0.000 A 
ATOM      8  C   UNL     1       2.642   8.217  17.724  0.00  0.00    +0.000 A 
ATOM      9  C   UNL     1       1.810   9.038  18.485  0.00  0.00    +0.000 A 
BRANCH   7  10
ATOM     10  N   UNL     1       3.920   6.164  17.434  0.00  0.00    +0.000 N 
ATOM     11  C   UNL     1       4.908   6.562  16.559  0.00  0.00    +0.000 A 
ATOM     12  C   UNL     1       5.432   5.422  15.996  0.00  0.00    +0.000 A 
ATOM     13  C   UNL     1       4.708   4.377  16.579  0.00  0.00    +0.000 A 
ATOM     14  N   UNL     1       3.802   4.810  17.455  0.00  0.00    +0.000 NA
ENDBRANCH   7  10
ENDBRANCH   1   4
BRANCH   1  15
ATOM     15  N   UNL     1      -0.215  10.908  19.697  0.00  0.00    +0.000 NA
BRANCH  15  17
ATOM     16  C   UNL     1      -2.463  11.897  19.064  0.00  0.00    +0.000 C 
ATOM     17  C   UNL     1      -1.569  10.645  19.059  0.00  0.00    +0.000 C 
ATOM     18  C   UNL     1      -1.481  10.217  17.598  0.00  0.00    +0.000 C 
ENDBRANCH  15  17
BRANCH  15  19
ATOM     19  C   UNL     1      -0.054  12.310  20.229  0.00  0.00    +0.000 C 
BRANCH  19  20
ATOM     20  C   UNL     1       0.923  13.217  19.504  0.00  0.00    +0.000 A 
ATOM     21  C   UNL     1       2.054  12.688  18.863  0.00  0.00    +0.000 A 
ATOM     22  C   UNL     1       2.969  13.516  18.209  0.00  0.00    +0.000 A 
ATOM     23  C   UNL     1       2.760  14.890  18.170  0.00  0.00    +0.000 A 
ATOM     24  C   UNL     1       1.633  15.433  18.778  0.00  0.00    +0.000 A 
ATOM     25  C   UNL     1       0.720  14.603  19.436  0.00  0.00    +0.000 A 
ENDBRANCH  19  20
ENDBRANCH  15  19
ENDBRANCH   1  15
TORSDOF 6
ENDMDL
MODEL 9
REMARK VINA RESULT:      -6.6      2.285      6.872
REMARK  Name = 
REMARK  8 active torsions:
REMARK  status: ('A' for Active; 'I' for Inactive)
REMARK    1  A    between atoms: C_1  and  C_2
REMARK    2  A    between atoms: C_2  and  C_3
REMARK    3  A    between atoms: C_2  and  N_4
REMARK    4  A    between atoms: N_4  and  C_5
REMARK    5  A    between atoms: N_4  and  S_12
REMARK    6  A    between atoms: C_5  and  C_6
REMARK    7  A    between atoms: S_12  and  C_15
REMARK    8  A    between atoms: C_18  and  N_19
REMARK                            x       y       z     vdW  Elec       q    Type
REMARK                         _______ _______ _______ _____ _____    ______ ____
ROOT
ATOM      1  S   UNL     1       5.268   5.434  18.373  0.00  0.00    +0.000 S 
ATOM      2  O   UNL     1       5.084   4.461  19.435  0.00  0.00    +0.000 OA
ATOM      3  O   UNL     1       6.512   6.169  18.252  0.00  0.00    +0.000 OA
ENDROOT
BRANCH   1   4
ATOM      4  C   UNL     1       3.952   6.610  18.627  0.00  0.00    +0.000 A 
ATOM      5  C   UNL     1       3.684   7.556  17.629  0.00  0.00    +0.000 A 
ATOM      6  C   UNL     1       2.609   8.440  17.771  0.00  0.00    +0.000 A 
ATOM      7  C   UNL     1       1.818   8.400  18.928  0.00  0.00    +0.000 A 
ATOM      8  C   UNL     1       2.064   7.418  19.898  0.00  0.00    +0.000 A 
ATOM      9  C   UNL     1       3.092   6.492  19.717  0.00  0.00    +0.000 A 
BRANCH   7  10
ATOM     10  N   UNL     1       0.764   9.331  19.137  0.00  0.00    +0.000 N 
ATOM     11  C   UNL     1       0.258   9.788  20.335  0.00  0.00    +0.000 A 
ATOM     12  C   UNL     1      -0.771  10.648  20.038  0.00  0.00    +0.000 A 
ATOM     13  C   UNL     1      -0.828  10.659  18.640  0.00  0.00    +0.000 A 
ATOM     14  N   UNL     1       0.099   9.878  18.086  0.00  0.00    +0.000 NA
ENDBRANCH   7  10
ENDBRANCH   1   4
BRANCH   1  15
ATOM     15  N   UNL     1       4.930   4.670  16.853  0.00  0.00    +0.000 NA
BRANCH  15  17
ATOM     16  C   UNL     1       5.960   3.664  14.765  0.00  0.00    +0.000 C 
ATOM     17  C   UNL     1       5.904   4.880  15.705  0.00  0.00    +0.000 C 
ATOM     18  C   UNL     1       5.546   6.065  14.814  0.00  0.00    +0.000 C 
ENDBRANCH  15  17
BRANCH  15  19
ATOM     19  C   UNL     1       4.491   3.237  17.024  0.00  0.00    +0.000 C 
BRANCH  19  20
ATOM     20  C   UNL     1       3.178   2.998  17.746  0.00  0.00    +0.000 A 
ATOM     21  C   UNL     1       2.062   3.813  17.498  0.00  0.00    +0.000 A 
ATOM     22  C   UNL     1       0.856   3.612  18.171  0.00  0.00    +0.000 A 
ATOM     23  C   UNL     1       0.736   2.580  19.095  0.00  0.00    +0.000 A 
ATOM     24  C   UNL     1       1.822   1.745  19.338  0.00  0.00    +0.000 A 
ATOM     25  C   UNL     1       3.031   1.950  18.667  0.00  0.00    +0.000 A 
ENDBRANCH  19  20
ENDBRANCH  15  19
ENDBRANCH   1  15
TORSDOF 6
ENDMDL
