MODEL 1
REMARK VINA RESULT:      -5.5      0.000      0.000
REMARK  Name = 
REMARK  7 active torsions:
REMARK  status: ('A' for Active; 'I' for Inactive)
REMARK    1  A    between atoms: C_1  and  S_2
REMARK    2  A    between atoms: S_2  and  C_3
REMARK    3  A    between atoms: S_2  and  C_4
REMARK    4  A    between atoms: C_4  and  C_5
REMARK    5  A    between atoms: N_7  and  C_8
REMARK    6  A    between atoms: C_8  and  C_9
REMARK    7  A    between atoms: C_9  and  C_10
REMARK                            x       y       z     vdW  Elec       q    Type
REMARK                         _______ _______ _______ _____ _____    ______ ____
ROOT
ATOM      1  C   UNL     1       3.707   4.910  17.913  0.00  0.00    +0.000 C 
ATOM      2  O   UNL     1       3.644   6.072  17.523  0.00  0.00    +0.000 OA
ATOM      3  N   UNL     1       4.273   3.901  17.154  0.00  0.00    +0.000 N 
ATOM      4  H   UNL     1       4.368   2.977  17.559  0.00  0.00    +0.000 HD
ENDROOT
BRANCH   1   5
ATOM      5  C   UNL     1       3.151   4.499  19.262  0.00  0.00    +0.000 C 
BRANCH   5   7
ATOM      6  C   UNL     1       2.418   2.705  21.176  0.00  0.00    +0.000 C 
ATOM      7  S   UNL     1       2.862   2.702  19.417  0.00  0.00    +0.000 S 
ATOM      8  C   UNL     1       1.153   2.726  18.806  0.00  0.00    +0.000 C 
ENDBRANCH   5   7
ENDBRANCH   1   5
BRANCH   3   9
ATOM      9  C   UNL     1       4.909   4.236  15.893  0.00  0.00    +0.000 C 
BRANCH   9  10
ATOM     10  C   UNL     1       6.433   4.119  15.903  0.00  0.00    +0.000 C 
BRANCH  10  11
ATOM     11  C   UNL     1       7.037   5.105  16.880  0.00  0.00    +0.000 A 
ATOM     12  C   UNL     1       7.509   4.679  18.129  0.00  0.00    +0.000 A 
ATOM     13  C   UNL     1       7.999   5.603  19.054  0.00  0.00    +0.000 A 
ATOM     14  C   UNL     1       8.022   6.961  18.744  0.00  0.00    +0.000 A 
ATOM     15  C   UNL     1       7.558   7.395  17.504  0.00  0.00    +0.000 A 
ATOM     16  C   UNL     1       7.067   6.473  16.578  0.00  0.00    +0.000 A 
ENDBRANCH  10  11
ENDBRANCH   9  10
ENDBRANCH   3   9
TORSDOF 5
ENDMDL
MODEL 2
REMARK VINA RESULT:      -5.5      1.225      1.907
REMARK  Name = 
REMARK  7 active torsions:
REMARK  status: ('A' for Active; 'I' for Inactive)
REMARK    1  A    between atoms: C_1  and  S_2
REMARK    2  A    between atoms: S_2  and  C_3
REMARK    3  A    between atoms: S_2  and  C_4
REMARK    4  A    between atoms: C_4  and  C_5
REMARK    5  A    between atoms: N_7  and  C_8
REMARK    6  A    between atoms: C_8  and  C_9
REMARK    7  A    between atoms: C_9  and  C_10
REMARK                            x       y       z     vdW  Elec       q    Type
REMARK                         _______ _______ _______ _____ _____    ______ ____
ROOT
ATOM      1  C   UNL     1       3.082   2.954  17.721  0.00  0.00    +0.000 C 
ATOM      2  O   UNL     1       2.168   3.444  17.063  0.00  0.00    +0.000 OA
ATOM      3  N   UNL     1       4.413   3.123  17.385  0.00  0.00    +0.000 N 
ATOM      4  H   UNL     1       5.126   2.763  18.008  0.00  0.00    +0.000 HD
ENDROOT
BRANCH   1   5
ATOM      5  C   UNL     1       2.806   2.112  18.951  0.00  0.00    +0.000 C 
BRANCH   5   7
ATOM      6  C   UNL     1       3.340   4.639  19.816  0.00  0.00    +0.000 C 
ATOM      7  S   UNL     1       2.693   3.085  20.494  0.00  0.00    +0.000 S 
ATOM      8  C   UNL     1       0.943   3.532  20.314  0.00  0.00    +0.000 C 
ENDBRANCH   5   7
ENDBRANCH   1   5
BRANCH   3   9
ATOM      9  C   UNL     1       4.758   3.993  16.275  0.00  0.00    +0.000 C 
BRANCH   9  10
ATOM     10  C   UNL     1       6.260   4.146  16.034  0.00  0.00    +0.000 C 
BRANCH  10  11
ATOM     11  C   UNL     1       6.847   5.182  16.969  0.00  0.00    +0.000 A 
ATOM     12  C   UNL     1       6.882   6.535  16.609  0.00  0.00    +0.000 A 
ATOM     13  C   UNL     1       7.488   7.476  17.445  0.00  0.00    +0.000 A 
ATOM     14  C   UNL     1       8.068   7.074  18.647  0.00  0.00    +0.000 A 
ATOM     15  C   UNL     1       8.036   5.732  19.016  0.00  0.00    +0.000 A 
ATOM     16  C   UNL     1       7.431   4.790  18.181  0.00  0.00    +0.000 A 
ENDBRANCH  10  11
ENDBRANCH   9  10
ENDBRANCH   3   9
TORSDOF 5
ENDMDL
MODEL 3
REMARK VINA RESULT:      -5.4      2.261      3.663
REMARK  Name = 
REMARK  7 active torsions:
REMARK  status: ('A' for Active; 'I' for Inactive)
REMARK    1  A    between atoms: C_1  and  S_2
REMARK    2  A    between atoms: S_2  and  C_3
REMARK    3  A    between atoms: S_2  and  C_4
REMARK    4  A    between atoms: C_4  and  C_5
REMARK    5  A    between atoms: N_7  and  C_8
REMARK    6  A    between atoms: C_8  and  C_9
REMARK    7  A    between atoms: C_9  and  C_10
REMARK                            x       y       z     vdW  Elec       q    Type
REMARK                         _______ _______ _______ _____ _____    ______ ____
ROOT
ATOM      1  C   UNL     1       4.394   4.030  18.831  0.00  0.00    +0.000 C 
ATOM      2  O   UNL     1       5.447   3.838  19.430  0.00  0.00    +0.000 OA
ATOM      3  N   UNL     1       4.340   4.217  17.461  0.00  0.00    +0.000 N 
ATOM      4  H   UNL     1       3.436   4.292  17.011  0.00  0.00    +0.000 HD
ENDROOT
BRANCH   1   5
ATOM      5  C   UNL     1       3.067   4.086  19.564  0.00  0.00    +0.000 C 
BRANCH   5   7
ATOM      6  C   UNL     1       1.532   2.885  21.466  0.00  0.00    +0.000 C 
ATOM      7  S   UNL     1       2.353   2.440  19.911  0.00  0.00    +0.000 S 
ATOM      8  C   UNL     1       0.880   2.644  18.871  0.00  0.00    +0.000 C 
ENDBRANCH   5   7
ENDBRANCH   1   5
BRANCH   3   9
ATOM      9  C   UNL     1       5.557   4.084  16.681  0.00  0.00    +0.000 C 
BRANCH   9  10
ATOM     10  C   UNL     1       5.870   5.283  15.787  0.00  0.00    +0.000 C 
BRANCH  10  11
ATOM     11  C   UNL     1       6.238   4.826  14.391  0.00  0.00    +0.000 A 
ATOM     12  C   UNL     1       5.479   3.848  13.734  0.00  0.00    +0.000 A 
ATOM     13  C   UNL     1       5.864   3.379  12.476  0.00  0.00    +0.000 A 
ATOM     14  C   UNL     1       7.011   3.879  11.862  0.00  0.00    +0.000 A 
ATOM     15  C   UNL     1       7.770   4.854  12.505  0.00  0.00    +0.000 A 
ATOM     16  C   UNL     1       7.387   5.324  13.763  0.00  0.00    +0.000 A 
ENDBRANCH  10  11
ENDBRANCH   9  10
ENDBRANCH   3   9
TORSDOF 5
ENDMDL
MODEL 4
REMARK VINA RESULT:      -5.4      4.419      6.061
REMARK  Name = 
REMARK  7 active torsions:
REMARK  status: ('A' for Active; 'I' for Inactive)
REMARK    1  A    between atoms: C_1  and  S_2
REMARK    2  A    between atoms: S_2  and  C_3
REMARK    3  A    between atoms: S_2  and  C_4
REMARK    4  A    between atoms: C_4  and  C_5
REMARK    5  A    between atoms: N_7  and  C_8
REMARK    6  A    between atoms: C_8  and  C_9
REMARK    7  A    between atoms: C_9  and  C_10
REMARK                            x       y       z     vdW  Elec       q    Type
REMARK                         _______ _______ _______ _____ _____    ______ ____
ROOT
ATOM      1  C   UNL     1       7.677   6.794  17.907  0.00  0.00    +0.000 C 
ATOM      2  O   UNL     1       8.062   6.370  18.992  0.00  0.00    +0.000 OA
ATOM      3  N   UNL     1       7.769   8.130  17.556  0.00  0.00    +0.000 N 
ATOM      4  H   UNL     1       7.509   8.410  16.618  0.00  0.00    +0.000 HD
ENDROOT
BRANCH   1   5
ATOM      5  C   UNL     1       7.057   5.874  16.874  0.00  0.00    +0.000 C 
BRANCH   5   7
ATOM      6  C   UNL     1       5.032   4.453  15.734  0.00  0.00    +0.000 C 
ATOM      7  S   UNL     1       5.263   5.616  17.107  0.00  0.00    +0.000 S 
ATOM      8  C   UNL     1       5.415   4.342  18.392  0.00  0.00    +0.000 C 
ENDBRANCH   5   7
ENDBRANCH   1   5
BRANCH   3   9
ATOM      9  C   UNL     1       8.436   9.053  18.456  0.00  0.00    +0.000 C 
BRANCH   9  10
ATOM     10  C   UNL     1       8.636  10.458  17.887  0.00  0.00    +0.000 C 
BRANCH  10  11
ATOM     11  C   UNL     1       9.825  11.133  18.538  0.00  0.00    +0.000 A 
ATOM     12  C   UNL     1       9.867  11.329  19.925  0.00  0.00    +0.000 A 
ATOM     13  C   UNL     1      10.933  12.015  20.511  0.00  0.00    +0.000 A 
ATOM     14  C   UNL     1      11.967  12.512  19.720  0.00  0.00    +0.000 A 
ATOM     15  C   UNL     1      11.936  12.320  18.341  0.00  0.00    +0.000 A 
ATOM     16  C   UNL     1      10.871  11.635  17.752  0.00  0.00    +0.000 A 
ENDBRANCH  10  11
ENDBRANCH   9  10
ENDBRANCH   3   9
TORSDOF 5
ENDMDL
MODEL 5
REMARK VINA RESULT:      -5.4      2.121      5.644
REMARK  Name = 
REMARK  7 active torsions:
REMARK  status: ('A' for Active; 'I' for Inactive)
REMARK    1  A    between atoms: C_1  and  S_2
REMARK    2  A    between atoms: S_2  and  C_3
REMARK    3  A    between atoms: S_2  and  C_4
REMARK    4  A    between atoms: C_4  and  C_5
REMARK    5  A    between atoms: N_7  and  C_8
REMARK    6  A    between atoms: C_8  and  C_9
REMARK    7  A    between atoms: C_9  and  C_10
REMARK                            x       y       z     vdW  Elec       q    Type
REMARK                         _______ _______ _______ _____ _____    ______ ____
ROOT
ATOM      1  C   UNL     1       5.950   4.400  16.228  0.00  0.00    +0.000 C 
ATOM      2  O   UNL     1       5.719   4.001  15.091  0.00  0.00    +0.000 OA
ATOM      3  N   UNL     1       5.263   3.934  17.335  0.00  0.00    +0.000 N 
ATOM      4  H   UNL     1       5.550   4.240  18.257  0.00  0.00    +0.000 HD
ENDROOT
BRANCH   1   5
ATOM      5  C   UNL     1       7.008   5.454  16.495  0.00  0.00    +0.000 C 
BRANCH   5   7
ATOM      6  C   UNL     1       7.913   5.732  19.049  0.00  0.00    +0.000 C 
ATOM      7  S   UNL     1       6.663   6.480  17.967  0.00  0.00    +0.000 S 
ATOM      8  C   UNL     1       7.688   7.891  17.465  0.00  0.00    +0.000 C 
ENDBRANCH   5   7
ENDBRANCH   1   5
BRANCH   3   9
ATOM      9  C   UNL     1       4.302   2.858  17.169  0.00  0.00    +0.000 C 
BRANCH   9  10
ATOM     10  C   UNL     1       2.842   3.284  17.320  0.00  0.00    +0.000 C 
BRANCH  10  11
ATOM     11  C   UNL     1       2.451   3.338  18.782  0.00  0.00    +0.000 A 
ATOM     12  C   UNL     1       3.136   2.572  19.735  0.00  0.00    +0.000 A 
ATOM     13  C   UNL     1       2.726   2.571  21.070  0.00  0.00    +0.000 A 
ATOM     14  C   UNL     1       1.627   3.332  21.467  0.00  0.00    +0.000 A 
ATOM     15  C   UNL     1       0.942   4.099  20.528  0.00  0.00    +0.000 A 
ATOM     16  C   UNL     1       1.350   4.101  19.192  0.00  0.00    +0.000 A 
ENDBRANCH  10  11
ENDBRANCH   9  10
ENDBRANCH   3   9
TORSDOF 5
ENDMDL
MODEL 6
REMARK VINA RESULT:      -5.3      2.481      5.935
REMARK  Name = 
REMARK  7 active torsions:
REMARK  status: ('A' for Active; 'I' for Inactive)
REMARK    1  A    between atoms: C_1  and  S_2
REMARK    2  A    between atoms: S_2  and  C_3
REMARK    3  A    between atoms: S_2  and  C_4
REMARK    4  A    between atoms: C_4  and  C_5
REMARK    5  A    between atoms: N_7  and  C_8
REMARK    6  A    between atoms: C_8  and  C_9
REMARK    7  A    between atoms: C_9  and  C_10
REMARK                            x       y       z     vdW  Elec       q    Type
REMARK                         _______ _______ _______ _____ _____    ______ ____
ROOT
ATOM      1  C   UNL     1       6.825   5.045  17.644  0.00  0.00    +0.000 C 
ATOM      2  O   UNL     1       7.450   6.015  18.061  0.00  0.00    +0.000 OA
ATOM      3  N   UNL     1       5.697   4.558  18.281  0.00  0.00    +0.000 N 
ATOM      4  H   UNL     1       5.176   3.804  17.848  0.00  0.00    +0.000 HD
ENDROOT
BRANCH   1   5
ATOM      5  C   UNL     1       7.259   4.302  16.396  0.00  0.00    +0.000 C 
BRANCH   5   7
ATOM      6  C   UNL     1       6.212   3.804  13.931  0.00  0.00    +0.000 C 
ATOM      7  S   UNL     1       6.911   5.206  14.847  0.00  0.00    +0.000 S 
ATOM      8  C   UNL     1       5.312   5.885  15.374  0.00  0.00    +0.000 C 
ENDBRANCH   5   7
ENDBRANCH   1   5
BRANCH   3   9
ATOM      9  C   UNL     1       5.167   5.274  19.427  0.00  0.00    +0.000 C 
BRANCH   9  10
ATOM     10  C   UNL     1       3.764   5.845  19.224  0.00  0.00    +0.000 C 
BRANCH  10  11
ATOM     11  C   UNL     1       2.718   4.762  19.391  0.00  0.00    +0.000 A 
ATOM     12  C   UNL     1       2.161   4.125  18.275  0.00  0.00    +0.000 A 
ATOM     13  C   UNL     1       1.147   3.178  18.432  0.00  0.00    +0.000 A 
ATOM     14  C   UNL     1       0.678   2.858  19.705  0.00  0.00    +0.000 A 
ATOM     15  C   UNL     1       1.227   3.483  20.822  0.00  0.00    +0.000 A 
ATOM     16  C   UNL     1       2.241   4.431  20.666  0.00  0.00    +0.000 A 
ENDBRANCH  10  11
ENDBRANCH   9  10
ENDBRANCH   3   9
TORSDOF 5
ENDMDL
MODEL 7
REMARK VINA RESULT:      -5.3      2.450      3.798
REMARK  Name = 
REMARK  7 active torsions:
REMARK  status: ('A' for Active; 'I' for Inactive)
REMARK    1  A    between atoms: C_1  and  S_2
REMARK    2  A    between atoms: S_2  and  C_3
REMARK    3  A    between atoms: S_2  and  C_4
REMARK    4  A    between atoms: C_4  and  C_5
REMARK    5  A    between atoms: N_7  and  C_8
REMARK    6  A    between atoms: C_8  and  C_9
REMARK    7  A    between atoms: C_9  and  C_10
REMARK                            x       y       z     vdW  Elec       q    Type
REMARK                         _______ _______ _______ _____ _____    ______ ____
ROOT
ATOM      1  C   UNL     1       3.952   3.032  18.417  0.00  0.00    +0.000 C 
ATOM      2  O   UNL     1       3.415   2.151  17.752  0.00  0.00    +0.000 OA
ATOM      3  N   UNL     1       4.986   3.809  17.926  0.00  0.00    +0.000 N 
ATOM      4  H   UNL     1       5.337   4.573  18.491  0.00  0.00    +0.000 HD
ENDROOT
BRANCH   1   5
ATOM      5  C   UNL     1       3.520   3.320  19.842  0.00  0.00    +0.000 C 
BRANCH   5   7
ATOM      6  C   UNL     1       1.575   2.718  21.651  0.00  0.00    +0.000 C 
ATOM      7  S   UNL     1       1.714   3.523  20.031  0.00  0.00    +0.000 S 
ATOM      8  C   UNL     1       1.775   5.217  20.682  0.00  0.00    +0.000 C 
ENDBRANCH   5   7
ENDBRANCH   1   5
BRANCH   3   9
ATOM      9  C   UNL     1       5.391   3.654  16.540  0.00  0.00    +0.000 C 
BRANCH   9  10
ATOM     10  C   UNL     1       6.010   4.906  15.918  0.00  0.00    +0.000 C 
BRANCH  10  11
ATOM     11  C   UNL     1       6.364   4.660  14.466  0.00  0.00    +0.000 A 
ATOM     12  C   UNL     1       5.665   3.710  13.710  0.00  0.00    +0.000 A 
ATOM     13  C   UNL     1       6.042   3.437  12.393  0.00  0.00    +0.000 A 
ATOM     14  C   UNL     1       7.121   4.108  11.819  0.00  0.00    +0.000 A 
ATOM     15  C   UNL     1       7.819   5.057  12.561  0.00  0.00    +0.000 A 
ATOM     16  C   UNL     1       7.445   5.330  13.879  0.00  0.00    +0.000 A 
ENDBRANCH  10  11
ENDBRANCH   9  10
ENDBRANCH   3   9
TORSDOF 5
ENDMDL
MODEL 8
REMARK VINA RESULT:      -5.3      2.395      6.003
REMARK  Name = 
REMARK  7 active torsions:
REMARK  status: ('A' for Active; 'I' for Inactive)
REMARK    1  A    between atoms: C_1  and  S_2
REMARK    2  A    between atoms: S_2  and  C_3
REMARK    3  A    between atoms: S_2  and  C_4
REMARK    4  A    between atoms: C_4  and  C_5
REMARK    5  A    between atoms: N_7  and  C_8
REMARK    6  A    between atoms: C_8  and  C_9
REMARK    7  A    between atoms: C_9  and  C_10
REMARK                            x       y       z     vdW  Elec       q    Type
REMARK                         _______ _______ _______ _____ _____    ______ ____
ROOT
ATOM      1  C   UNL     1       5.038   6.490  16.808  0.00  0.00    +0.000 C 
ATOM      2  O   UNL     1       5.801   7.325  17.284  0.00  0.00    +0.000 OA
ATOM      3  N   UNL     1       3.942   6.005  17.499  0.00  0.00    +0.000 N 
ATOM      4  H   UNL     1       3.302   5.377  17.027  0.00  0.00    +0.000 HD
ENDROOT
BRANCH   1   5
ATOM      5  C   UNL     1       5.257   5.921  15.420  0.00  0.00    +0.000 C 
BRANCH   5   7
ATOM      6  C   UNL     1       6.573   4.166  13.806  0.00  0.00    +0.000 C 
ATOM      7  S   UNL     1       5.746   4.161  15.421  0.00  0.00    +0.000 S 
ATOM      8  C   UNL     1       7.262   4.380  16.394  0.00  0.00    +0.000 C 
ENDBRANCH   5   7
ENDBRANCH   1   5
BRANCH   3   9
ATOM      9  C   UNL     1       3.615   6.572  18.796  0.00  0.00    +0.000 C 
BRANCH   9  10
ATOM     10  C   UNL     1       2.163   6.370  19.227  0.00  0.00    +0.000 C 
BRANCH  10  11
ATOM     11  C   UNL     1       1.960   4.974  19.780  0.00  0.00    +0.000 A 
ATOM     12  C   UNL     1       1.366   3.974  18.999  0.00  0.00    +0.000 A 
ATOM     13  C   UNL     1       1.118   2.709  19.538  0.00  0.00    +0.000 A 
ATOM     14  C   UNL     1       1.458   2.431  20.860  0.00  0.00    +0.000 A 
ATOM     15  C   UNL     1       2.052   3.418  21.644  0.00  0.00    +0.000 A 
ATOM     16  C   UNL     1       2.301   4.683  21.108  0.00  0.00    +0.000 A 
ENDBRANCH  10  11
ENDBRANCH   9  10
ENDBRANCH   3   9
TORSDOF 5
ENDMDL
MODEL 9
REMARK VINA RESULT:      -5.3      2.186      5.282
REMARK  Name = 
REMARK  7 active torsions:
REMARK  status: ('A' for Active; 'I' for Inactive)
REMARK    1  A    between atoms: C_1  and  S_2
REMARK    2  A    between atoms: S_2  and  C_3
REMARK    3  A    between atoms: S_2  and  C_4
REMARK    4  A    between atoms: C_4  and  C_5
REMARK    5  A    between atoms: N_7  and  C_8
REMARK    6  A    between atoms: C_8  and  C_9
REMARK    7  A    between atoms: C_9  and  C_10
REMARK                            x       y       z     vdW  Elec       q    Type
REMARK                         _______ _______ _______ _____ _____    ______ ____
ROOT
ATOM      1  C   UNL     1       5.449   3.991  16.859  0.00  0.00    +0.000 C 
ATOM      2  O   UNL     1       5.013   4.033  15.713  0.00  0.00    +0.000 OA
ATOM      3  N   UNL     1       4.785   3.343  17.885  0.00  0.00    +0.000 N 
ATOM      4  H   UNL     1       5.230   3.273  18.792  0.00  0.00    +0.000 HD
ENDROOT
BRANCH   1   5
ATOM      5  C   UNL     1       6.756   4.665  17.232  0.00  0.00    +0.000 C 
BRANCH   5   7
ATOM      6  C   UNL     1       8.022   5.673  19.422  0.00  0.00    +0.000 C 
ATOM      7  S   UNL     1       6.556   6.040  18.419  0.00  0.00    +0.000 S 
ATOM      8  C   UNL     1       7.360   7.302  17.390  0.00  0.00    +0.000 C 
ENDBRANCH   5   7
ENDBRANCH   1   5
BRANCH   3   9
ATOM      9  C   UNL     1       3.576   2.596  17.584  0.00  0.00    +0.000 C 
BRANCH   9  10
ATOM     10  C   UNL     1       2.353   3.464  17.287  0.00  0.00    +0.000 C 
BRANCH  10  11
ATOM     11  C   UNL     1       2.112   4.449  18.411  0.00  0.00    +0.000 A 
ATOM     12  C   UNL     1       2.509   5.787  18.289  0.00  0.00    +0.000 A 
ATOM     13  C   UNL     1       2.349   6.674  19.356  0.00  0.00    +0.000 A 
ATOM     14  C   UNL     1       1.792   6.234  20.556  0.00  0.00    +0.000 A 
ATOM     15  C   UNL     1       1.391   4.906  20.687  0.00  0.00    +0.000 A 
ATOM     16  C   UNL     1       1.552   4.018  19.621  0.00  0.00    +0.000 A 
ENDBRANCH  10  11
ENDBRANCH   9  10
ENDBRANCH   3   9
TORSDOF 5
ENDMDL
