MODEL 1
REMARK VINA RESULT:      -8.6      0.000      0.000
REMARK  Name = 
REMARK  6 active torsions:
REMARK  status: ('A' for Active; 'I' for Inactive)
REMARK    1  A    between atoms: O_1  and  C_2
REMARK    2  A    between atoms: C_4  and  C_5
REMARK    3  A    between atoms: C_12  and  C_13
REMARK    4  A    between atoms: C_13  and  C_14
REMARK    5  A    between atoms: C_14  and  N_15
REMARK    6  A    between atoms: N_18  and  C_19
REMARK                            x       y       z     vdW  Elec       q    Type
REMARK                         _______ _______ _______ _____ _____    ______ ____
ROOT
ATOM      1  C   UNL     1       4.285   3.440  17.833  0.00  0.00    +0.000 C 
ENDROOT
BRANCH   1   5
ATOM      2  C   UNL     1       7.079   5.147  19.190  0.00  0.00    +0.000 A 
ATOM      3  N   UNL     1       7.523   5.257  17.974  0.00  0.00    +0.000 NA
ATOM      4  C   UNL     1       6.530   4.663  17.237  0.00  0.00    +0.000 A 
ATOM      5  C   UNL     1       5.539   4.187  18.083  0.00  0.00    +0.000 A 
ATOM      6  O   UNL     1       5.894   4.516  19.370  0.00  0.00    +0.000 OA
BRANCH   4   7
ATOM      7  C   UNL     1       6.562   4.537  15.786  0.00  0.00    +0.000 A 
ATOM      8  C   UNL     1       7.583   5.161  15.057  0.00  0.00    +0.000 A 
ATOM      9  C   UNL     1       7.635   5.035  13.664  0.00  0.00    +0.000 A 
ATOM     10  C   UNL     1       6.674   4.284  13.000  0.00  0.00    +0.000 A 
ATOM     11  F   UNL     1       6.727   4.162  11.666  0.00  0.00    +0.000 F 
ATOM     12  C   UNL     1       5.648   3.669  13.697  0.00  0.00    +0.000 A 
ATOM     13  C   UNL     1       5.584   3.810  15.083  0.00  0.00    +0.000 A 
ENDBRANCH   4   7
BRANCH   2  14
ATOM     14  O   UNL     1       7.685   5.613  20.264  0.00  0.00    +0.000 OA
ATOM     15  H   UNL     1       7.784   4.802  20.790  0.00  0.00    +0.000 HD
ENDBRANCH   2  14
ENDBRANCH   1   5
BRANCH   1  16
ATOM     16  C   UNL     1       3.253   3.334  18.955  0.00  0.00    +0.000 C 
BRANCH  16  17
ATOM     17  N   UNL     1       2.116   4.243  18.698  0.00  0.00    +0.000 NA
ATOM     18  C   UNL     1       1.452   4.655  19.951  0.00  0.00    +0.000 C 
ATOM     19  C   UNL     1       2.214   5.733  20.747  0.00  0.00    +0.000 C 
ATOM     20  N   UNL     1       2.436   6.934  19.929  0.00  0.00    +0.000 N 
ATOM     21  C   UNL     1       3.074   6.666  18.627  0.00  0.00    +0.000 C 
ATOM     22  C   UNL     1       2.414   5.463  17.901  0.00  0.00    +0.000 C 
BRANCH  20  23
ATOM     23  C   UNL     1       1.623   8.052  20.065  0.00  0.00    +0.000 A 
ATOM     24  C   UNL     1       1.335   8.919  18.999  0.00  0.00    +0.000 A 
ATOM     25  C   UNL     1       0.444   9.990  19.133  0.00  0.00    +0.000 A 
ATOM     26  C   UNL     1      -0.190  10.216  20.348  0.00  0.00    +0.000 A 
ATOM     27  C   UNL     1       0.086   9.380  21.423  0.00  0.00    +0.000 A 
ATOM     28 CL   UNL     1      -0.715   9.636  22.926  0.00  0.00    +0.000 Cl
ATOM     29  C   UNL     1       0.987   8.319  21.288  0.00  0.00    +0.000 A 
ENDBRANCH  20  23
ENDBRANCH  16  17
ENDBRANCH   1  16
TORSDOF 6
ENDMDL
MODEL 2
REMARK VINA RESULT:      -8.4      2.901      4.702
REMARK  Name = 
REMARK  6 active torsions:
REMARK  status: ('A' for Active; 'I' for Inactive)
REMARK    1  A    between atoms: O_1  and  C_2
REMARK    2  A    between atoms: C_4  and  C_5
REMARK    3  A    between atoms: C_12  and  C_13
REMARK    4  A    between atoms: C_13  and  C_14
REMARK    5  A    between atoms: C_14  and  N_15
REMARK    6  A    between atoms: N_18  and  C_19
REMARK                            x       y       z     vdW  Elec       q    Type
REMARK                         _______ _______ _______ _____ _____    ______ ____
ROOT
ATOM      1  C   UNL     1       2.326   6.695  19.808  0.00  0.00    +0.000 C 
ENDROOT
BRANCH   1   5
ATOM      2  C   UNL     1       2.122   3.466  21.255  0.00  0.00    +0.000 A 
ATOM      3  N   UNL     1       3.074   3.111  20.446  0.00  0.00    +0.000 NA
ATOM      4  C   UNL     1       3.348   4.278  19.776  0.00  0.00    +0.000 A 
ATOM      5  C   UNL     1       2.495   5.280  20.212  0.00  0.00    +0.000 A 
ATOM      6  O   UNL     1       1.694   4.750  21.195  0.00  0.00    +0.000 OA
BRANCH   4   7
ATOM      7  C   UNL     1       4.368   4.398  18.743  0.00  0.00    +0.000 A 
ATOM      8  C   UNL     1       5.644   4.871  19.077  0.00  0.00    +0.000 A 
ATOM      9  C   UNL     1       6.638   4.976  18.097  0.00  0.00    +0.000 A 
ATOM     10  C   UNL     1       6.361   4.605  16.787  0.00  0.00    +0.000 A 
ATOM     11  F   UNL     1       7.314   4.703  15.850  0.00  0.00    +0.000 F 
ATOM     12  C   UNL     1       5.104   4.147  16.430  0.00  0.00    +0.000 A 
ATOM     13  C   UNL     1       4.108   4.061  17.402  0.00  0.00    +0.000 A 
ENDBRANCH   4   7
BRANCH   2  14
ATOM     14  O   UNL     1       1.546   2.677  22.141  0.00  0.00    +0.000 OA
ATOM     15  H   UNL     1       0.956   2.155  21.572  0.00  0.00    +0.000 HD
ENDBRANCH   2  14
ENDBRANCH   1   5
BRANCH   1  16
ATOM     16  C   UNL     1       1.874   7.713  20.855  0.00  0.00    +0.000 C 
BRANCH  16  17
ATOM     17  N   UNL     1       0.589   8.327  20.457  0.00  0.00    +0.000 NA
ATOM     18  C   UNL     1      -0.369   8.362  21.579  0.00  0.00    +0.000 C 
ATOM     19  C   UNL     1      -0.091   9.469  22.616  0.00  0.00    +0.000 C 
ATOM     20  N   UNL     1      -0.077  10.795  21.982  0.00  0.00    +0.000 N 
ATOM     21  C   UNL     1       0.826  10.897  20.820  0.00  0.00    +0.000 C 
ATOM     22  C   UNL     1       0.666   9.687  19.860  0.00  0.00    +0.000 C 
BRANCH  20  23
ATOM     23  C   UNL     1      -1.182  11.633  22.053  0.00  0.00    +0.000 A 
ATOM     24  C   UNL     1      -1.587  12.454  20.988  0.00  0.00    +0.000 A 
ATOM     25  C   UNL     1      -2.753  13.226  21.047  0.00  0.00    +0.000 A 
ATOM     26  C   UNL     1      -3.551  13.189  22.183  0.00  0.00    +0.000 A 
ATOM     27  C   UNL     1      -3.167  12.395  23.257  0.00  0.00    +0.000 A 
ATOM     28 CL   UNL     1      -4.164  12.323  24.660  0.00  0.00    +0.000 Cl
ATOM     29  C   UNL     1      -1.995  11.635  23.198  0.00  0.00    +0.000 A 
ENDBRANCH  20  23
ENDBRANCH  16  17
ENDBRANCH   1  16
TORSDOF 6
ENDMDL
MODEL 3
REMARK VINA RESULT:      -8.4      3.283      5.275
REMARK  Name = 
REMARK  6 active torsions:
REMARK  status: ('A' for Active; 'I' for Inactive)
REMARK    1  A    between atoms: O_1  and  C_2
REMARK    2  A    between atoms: C_4  and  C_5
REMARK    3  A    between atoms: C_12  and  C_13
REMARK    4  A    between atoms: C_13  and  C_14
REMARK    5  A    between atoms: C_14  and  N_15
REMARK    6  A    between atoms: N_18  and  C_19
REMARK                            x       y       z     vdW  Elec       q    Type
REMARK                         _______ _______ _______ _____ _____    ______ ____
ROOT
ATOM      1  C   UNL     1       2.081   7.456  20.021  0.00  0.00    +0.000 C 
ENDROOT
BRANCH   1   5
ATOM      2  C   UNL     1       1.586   3.976  20.480  0.00  0.00    +0.000 A 
ATOM      3  N   UNL     1       2.670   3.794  19.786  0.00  0.00    +0.000 NA
ATOM      4  C   UNL     1       3.072   5.078  19.517  0.00  0.00    +0.000 A 
ATOM      5  C   UNL     1       2.161   5.977  20.050  0.00  0.00    +0.000 A 
ATOM      6  O   UNL     1       1.187   5.253  20.695  0.00  0.00    +0.000 OA
BRANCH   4   7
ATOM      7  C   UNL     1       4.267   5.409  18.751  0.00  0.00    +0.000 A 
ATOM      8  C   UNL     1       4.142   5.898  17.444  0.00  0.00    +0.000 A 
ATOM      9  C   UNL     1       5.281   6.235  16.703  0.00  0.00    +0.000 A 
ATOM     10  C   UNL     1       6.542   6.090  17.268  0.00  0.00    +0.000 A 
ATOM     11  F   UNL     1       7.631   6.416  16.559  0.00  0.00    +0.000 F 
ATOM     12  C   UNL     1       6.692   5.597  18.553  0.00  0.00    +0.000 A 
ATOM     13  C   UNL     1       5.558   5.242  19.284  0.00  0.00    +0.000 A 
ENDBRANCH   4   7
BRANCH   2  14
ATOM     14  O   UNL     1       0.849   3.016  21.002  0.00  0.00    +0.000 OA
ATOM     15  H   UNL     1       1.429   2.703  21.717  0.00  0.00    +0.000 HD
ENDBRANCH   2  14
ENDBRANCH   1   5
BRANCH   1  16
ATOM     16  C   UNL     1       1.511   8.188  21.235  0.00  0.00    +0.000 C 
BRANCH  16  17
ATOM     17  N   UNL     1       0.119   8.613  20.975  0.00  0.00    +0.000 NA
ATOM     18  C   UNL     1      -0.643   8.784  22.228  0.00  0.00    +0.000 C 
ATOM     19  C   UNL     1      -0.324  10.085  22.992  0.00  0.00    +0.000 C 
ATOM     20  N   UNL     1      -0.559  11.264  22.147  0.00  0.00    +0.000 N 
ATOM     21  C   UNL     1       0.126  11.216  20.842  0.00  0.00    +0.000 C 
ATOM     22  C   UNL     1      -0.053   9.838  20.149  0.00  0.00    +0.000 C 
BRANCH  20  23
ATOM     23  C   UNL     1      -1.724  12.010  22.271  0.00  0.00    +0.000 A 
ATOM     24  C   UNL     1      -2.201  12.852  21.253  0.00  0.00    +0.000 A 
ATOM     25  C   UNL     1      -3.422  13.529  21.362  0.00  0.00    +0.000 A 
ATOM     26  C   UNL     1      -4.202  13.373  22.500  0.00  0.00    +0.000 A 
ATOM     27  C   UNL     1      -3.746  12.555  23.528  0.00  0.00    +0.000 A 
ATOM     28 CL   UNL     1      -4.719  12.335  24.932  0.00  0.00    +0.000 Cl
ATOM     29  C   UNL     1      -2.520  11.891  23.421  0.00  0.00    +0.000 A 
ENDBRANCH  20  23
ENDBRANCH  16  17
ENDBRANCH   1  16
TORSDOF 6
ENDMDL
MODEL 4
REMARK VINA RESULT:      -8.3      0.517      1.045
REMARK  Name = 
REMARK  6 active torsions:
REMARK  status: ('A' for Active; 'I' for Inactive)
REMARK    1  A    between atoms: O_1  and  C_2
REMARK    2  A    between atoms: C_4  and  C_5
REMARK    3  A    between atoms: C_12  and  C_13
REMARK    4  A    between atoms: C_13  and  C_14
REMARK    5  A    between atoms: C_14  and  N_15
REMARK    6  A    between atoms: N_18  and  C_19
REMARK                            x       y       z     vdW  Elec       q    Type
REMARK                         _______ _______ _______ _____ _____    ______ ____
ROOT
ATOM      1  C   UNL     1       4.378   3.486  17.593  0.00  0.00    +0.000 C 
ENDROOT
BRANCH   1   5
ATOM      2  C   UNL     1       7.161   5.117  19.065  0.00  0.00    +0.000 A 
ATOM      3  N   UNL     1       7.649   5.230  17.866  0.00  0.00    +0.000 NA
ATOM      4  C   UNL     1       6.668   4.665  17.088  0.00  0.00    +0.000 A 
ATOM      5  C   UNL     1       5.639   4.203  17.895  0.00  0.00    +0.000 A 
ATOM      6  O   UNL     1       5.957   4.510  19.196  0.00  0.00    +0.000 OA
BRANCH   4   7
ATOM      7  C   UNL     1       6.748   4.554  15.638  0.00  0.00    +0.000 A 
ATOM      8  C   UNL     1       5.878   3.692  14.958  0.00  0.00    +0.000 A 
ATOM      9  C   UNL     1       5.933   3.589  13.563  0.00  0.00    +0.000 A 
ATOM     10  C   UNL     1       6.850   4.348  12.848  0.00  0.00    +0.000 A 
ATOM     11  F   UNL     1       6.899   4.250  11.512  0.00  0.00    +0.000 F 
ATOM     12  C   UNL     1       7.729   5.197  13.499  0.00  0.00    +0.000 A 
ATOM     13  C   UNL     1       7.688   5.286  14.890  0.00  0.00    +0.000 A 
ENDBRANCH   4   7
BRANCH   2  14
ATOM     14  O   UNL     1       7.739   5.557  20.164  0.00  0.00    +0.000 OA
ATOM     15  H   UNL     1       7.587   6.514  20.085  0.00  0.00    +0.000 HD
ENDBRANCH   2  14
ENDBRANCH   1   5
BRANCH   1  16
ATOM     16  C   UNL     1       3.516   2.991  18.753  0.00  0.00    +0.000 C 
BRANCH  16  17
ATOM     17  N   UNL     1       2.278   3.793  18.857  0.00  0.00    +0.000 NA
ATOM     18  C   UNL     1       2.166   4.457  20.170  0.00  0.00    +0.000 C 
ATOM     19  C   UNL     1       3.060   5.703  20.328  0.00  0.00    +0.000 C 
ATOM     20  N   UNL     1       2.769   6.697  19.285  0.00  0.00    +0.000 N 
ATOM     21  C   UNL     1       2.820   6.160  17.912  0.00  0.00    +0.000 C 
ATOM     22  C   UNL     1       2.062   4.811  17.794  0.00  0.00    +0.000 C 
BRANCH  20  23
ATOM     23  C   UNL     1       1.964   7.797  19.550  0.00  0.00    +0.000 A 
ATOM     24  C   UNL     1       1.671   8.777  18.588  0.00  0.00    +0.000 A 
ATOM     25  C   UNL     1       0.788   9.832  18.848  0.00  0.00    +0.000 A 
ATOM     26  C   UNL     1       0.168   9.927  20.087  0.00  0.00    +0.000 A 
ATOM     27  C   UNL     1       0.450   8.977  21.062  0.00  0.00    +0.000 A 
ATOM     28 CL   UNL     1      -0.334   9.072  22.592  0.00  0.00    +0.000 Cl
ATOM     29  C   UNL     1       1.343   7.932  20.802  0.00  0.00    +0.000 A 
ENDBRANCH  20  23
ENDBRANCH  16  17
ENDBRANCH   1  16
TORSDOF 6
ENDMDL
MODEL 5
REMARK VINA RESULT:      -8.2      1.016      1.351
REMARK  Name = 
REMARK  6 active torsions:
REMARK  status: ('A' for Active; 'I' for Inactive)
REMARK    1  A    between atoms: O_1  and  C_2
REMARK    2  A    between atoms: C_4  and  C_5
REMARK    3  A    between atoms: C_12  and  C_13
REMARK    4  A    between atoms: C_13  and  C_14
REMARK    5  A    between atoms: C_14  and  N_15
REMARK    6  A    between atoms: N_18  and  C_19
REMARK                            x       y       z     vdW  Elec       q    Type
REMARK                         _______ _______ _______ _____ _____    ______ ____
ROOT
ATOM      1  C   UNL     1       4.222   3.739  17.437  0.00  0.00    +0.000 C 
ENDROOT
BRANCH   1   5
ATOM      2  C   UNL     1       7.115   5.114  18.955  0.00  0.00    +0.000 A 
ATOM      3  N   UNL     1       7.634   5.174  17.765  0.00  0.00    +0.000 NA
ATOM      4  C   UNL     1       6.621   4.697  16.972  0.00  0.00    +0.000 A 
ATOM      5  C   UNL     1       5.538   4.337  17.760  0.00  0.00    +0.000 A 
ATOM      6  O   UNL     1       5.858   4.622  19.066  0.00  0.00    +0.000 OA
BRANCH   4   7
ATOM      7  C   UNL     1       6.717   4.571  15.524  0.00  0.00    +0.000 A 
ATOM      8  C   UNL     1       7.622   5.372  14.815  0.00  0.00    +0.000 A 
ATOM      9  C   UNL     1       7.737   5.249  13.425  0.00  0.00    +0.000 A 
ATOM     10  C   UNL     1       6.954   4.325  12.745  0.00  0.00    +0.000 A 
ATOM     11  F   UNL     1       7.067   4.206  11.415  0.00  0.00    +0.000 F 
ATOM     12  C   UNL     1       6.044   3.531  13.422  0.00  0.00    +0.000 A 
ATOM     13  C   UNL     1       5.915   3.667  14.804  0.00  0.00    +0.000 A 
ENDBRANCH   4   7
BRANCH   2  14
ATOM     14  O   UNL     1       7.711   5.506  20.064  0.00  0.00    +0.000 OA
ATOM     15  H   UNL     1       8.484   4.918  20.079  0.00  0.00    +0.000 HD
ENDBRANCH   2  14
ENDBRANCH   1   5
BRANCH   1  16
ATOM     16  C   UNL     1       3.381   3.152  18.570  0.00  0.00    +0.000 C 
BRANCH  16  17
ATOM     17  N   UNL     1       2.125   3.917  18.731  0.00  0.00    +0.000 NA
ATOM     18  C   UNL     1       1.932   4.361  20.125  0.00  0.00    +0.000 C 
ATOM     19  C   UNL     1       2.794   5.573  20.530  0.00  0.00    +0.000 C 
ATOM     20  N   UNL     1       2.543   6.719  19.645  0.00  0.00    +0.000 N 
ATOM     21  C   UNL     1       2.677   6.411  18.209  0.00  0.00    +0.000 C 
ATOM     22  C   UNL     1       1.950   5.091  17.835  0.00  0.00    +0.000 C 
BRANCH  20  23
ATOM     23  C   UNL     1       1.706   7.755  20.037  0.00  0.00    +0.000 A 
ATOM     24  C   UNL     1       1.028   7.763  21.267  0.00  0.00    +0.000 A 
ATOM     25  C   UNL     1       0.257   8.855  21.683  0.00  0.00    +0.000 A 
ATOM     26  C   UNL     1       0.151   9.978  20.871  0.00  0.00    +0.000 A 
ATOM     27  C   UNL     1       0.803   9.991  19.643  0.00  0.00    +0.000 A 
ATOM     28 CL   UNL     1       0.699  11.389  18.643  0.00  0.00    +0.000 Cl
ATOM     29  C   UNL     1       1.561   8.893  19.227  0.00  0.00    +0.000 A 
ENDBRANCH  20  23
ENDBRANCH  16  17
ENDBRANCH   1  16
TORSDOF 6
ENDMDL
MODEL 6
REMARK VINA RESULT:      -8.2      3.905      7.827
REMARK  Name = 
REMARK  6 active torsions:
REMARK  status: ('A' for Active; 'I' for Inactive)
REMARK    1  A    between atoms: O_1  and  C_2
REMARK    2  A    between atoms: C_4  and  C_5
REMARK    3  A    between atoms: C_12  and  C_13
REMARK    4  A    between atoms: C_13  and  C_14
REMARK    5  A    between atoms: C_14  and  N_15
REMARK    6  A    between atoms: N_18  and  C_19
REMARK                            x       y       z     vdW  Elec       q    Type
REMARK                         _______ _______ _______ _____ _____    ______ ____
ROOT
ATOM      1  C   UNL     1       4.726   4.495  19.023  0.00  0.00    +0.000 C 
ENDROOT
BRANCH   1   5
ATOM      2  C   UNL     1       2.242   3.423  21.313  0.00  0.00    +0.000 A 
ATOM      3  N   UNL     1       1.653   4.563  21.112  0.00  0.00    +0.000 NA
ATOM      4  C   UNL     1       2.467   5.161  20.182  0.00  0.00    +0.000 A 
ATOM      5  C   UNL     1       3.545   4.334  19.902  0.00  0.00    +0.000 A 
ATOM      6  O   UNL     1       3.392   3.183  20.638  0.00  0.00    +0.000 OA
BRANCH   4   7
ATOM      7  C   UNL     1       2.222   6.483  19.622  0.00  0.00    +0.000 A 
ATOM      8  C   UNL     1       1.737   7.508  20.446  0.00  0.00    +0.000 A 
ATOM      9  C   UNL     1       1.513   8.788  19.924  0.00  0.00    +0.000 A 
ATOM     10  C   UNL     1       1.778   9.046  18.585  0.00  0.00    +0.000 A 
ATOM     11  F   UNL     1       1.566  10.272  18.088  0.00  0.00    +0.000 F 
ATOM     12  C   UNL     1       2.246   8.046  17.749  0.00  0.00    +0.000 A 
ATOM     13  C   UNL     1       2.450   6.766  18.264  0.00  0.00    +0.000 A 
ENDBRANCH   4   7
BRANCH   2  14
ATOM     14  O   UNL     1       1.803   2.473  22.115  0.00  0.00    +0.000 OA
ATOM     15  H   UNL     1       1.143   2.040  21.549  0.00  0.00    +0.000 HD
ENDBRANCH   2  14
ENDBRANCH   1   5
BRANCH   1  16
ATOM     16  C   UNL     1       5.739   5.594  19.343  0.00  0.00    +0.000 C 
BRANCH  16  17
ATOM     17  N   UNL     1       6.663   5.792  18.206  0.00  0.00    +0.000 NA
ATOM     18  C   UNL     1       7.091   4.507  17.620  0.00  0.00    +0.000 C 
ATOM     19  C   UNL     1       6.033   3.835  16.722  0.00  0.00    +0.000 C 
ATOM     20  N   UNL     1       5.627   4.727  15.626  0.00  0.00    +0.000 N 
ATOM     21  C   UNL     1       5.196   6.066  16.068  0.00  0.00    +0.000 C 
ATOM     22  C   UNL     1       6.177   6.671  17.108  0.00  0.00    +0.000 C 
BRANCH  20  23
ATOM     23  C   UNL     1       6.152   4.573  14.350  0.00  0.00    +0.000 A 
ATOM     24  C   UNL     1       7.245   5.320  13.880  0.00  0.00    +0.000 A 
ATOM     25  C   UNL     1       7.815   5.091  12.622  0.00  0.00    +0.000 A 
ATOM     26  C   UNL     1       7.302   4.097  11.800  0.00  0.00    +0.000 A 
ATOM     27  C   UNL     1       6.212   3.351  12.235  0.00  0.00    +0.000 A 
ATOM     28 CL   UNL     1       5.586   2.098  11.233  0.00  0.00    +0.000 Cl
ATOM     29  C   UNL     1       5.638   3.592  13.487  0.00  0.00    +0.000 A 
ENDBRANCH  20  23
ENDBRANCH  16  17
ENDBRANCH   1  16
TORSDOF 6
ENDMDL
MODEL 7
REMARK VINA RESULT:      -8.1      3.036      4.895
REMARK  Name = 
REMARK  6 active torsions:
REMARK  status: ('A' for Active; 'I' for Inactive)
REMARK    1  A    between atoms: O_1  and  C_2
REMARK    2  A    between atoms: C_4  and  C_5
REMARK    3  A    between atoms: C_12  and  C_13
REMARK    4  A    between atoms: C_13  and  C_14
REMARK    5  A    between atoms: C_14  and  N_15
REMARK    6  A    between atoms: N_18  and  C_19
REMARK                            x       y       z     vdW  Elec       q    Type
REMARK                         _______ _______ _______ _____ _____    ______ ____
ROOT
ATOM      1  C   UNL     1       2.406   7.292  19.860  0.00  0.00    +0.000 C 
ENDROOT
BRANCH   1   5
ATOM      2  C   UNL     1       1.485   3.905  20.358  0.00  0.00    +0.000 A 
ATOM      3  N   UNL     1       2.226   3.617  19.331  0.00  0.00    +0.000 NA
ATOM      4  C   UNL     1       2.737   4.842  18.978  0.00  0.00    +0.000 A 
ATOM      5  C   UNL     1       2.228   5.822  19.817  0.00  0.00    +0.000 A 
ATOM      6  O   UNL     1       1.412   5.204  20.735  0.00  0.00    +0.000 OA
BRANCH   4   7
ATOM      7  C   UNL     1       3.648   5.048  17.860  0.00  0.00    +0.000 A 
ATOM      8  C   UNL     1       4.040   6.347  17.513  0.00  0.00    +0.000 A 
ATOM      9  C   UNL     1       4.928   6.558  16.451  0.00  0.00    +0.000 A 
ATOM     10  C   UNL     1       5.429   5.474  15.742  0.00  0.00    +0.000 A 
ATOM     11  F   UNL     1       6.281   5.678  14.728  0.00  0.00    +0.000 F 
ATOM     12  C   UNL     1       5.047   4.181  16.058  0.00  0.00    +0.000 A 
ATOM     13  C   UNL     1       4.147   3.972  17.103  0.00  0.00    +0.000 A 
ENDBRANCH   4   7
BRANCH   2  14
ATOM     14  O   UNL     1       0.806   3.029  21.073  0.00  0.00    +0.000 OA
ATOM     15  H   UNL     1      -0.054   3.045  20.622  0.00  0.00    +0.000 HD
ENDBRANCH   2  14
ENDBRANCH   1   5
BRANCH   1  16
ATOM     16  C   UNL     1       1.788   8.076  21.017  0.00  0.00    +0.000 C 
BRANCH  16  17
ATOM     17  N   UNL     1       0.467   8.614  20.630  0.00  0.00    +0.000 NA
ATOM     18  C   UNL     1      -0.479   8.605  21.763  0.00  0.00    +0.000 C 
ATOM     19  C   UNL     1      -0.251   9.735  22.787  0.00  0.00    +0.000 C 
ATOM     20  N   UNL     1      -0.319  11.054  22.142  0.00  0.00    +0.000 N 
ATOM     21  C   UNL     1       0.563  11.196  20.969  0.00  0.00    +0.000 C 
ATOM     22  C   UNL     1       0.460   9.970  20.022  0.00  0.00    +0.000 C 
BRANCH  20  23
ATOM     23  C   UNL     1      -1.469  11.829  22.220  0.00  0.00    +0.000 A 
ATOM     24  C   UNL     1      -1.919  12.634  21.161  0.00  0.00    +0.000 A 
ATOM     25  C   UNL     1      -3.126  13.340  21.226  0.00  0.00    +0.000 A 
ATOM     26  C   UNL     1      -3.920  13.252  22.362  0.00  0.00    +0.000 A 
ATOM     27  C   UNL     1      -3.492  12.472  23.430  0.00  0.00    +0.000 A 
ATOM     28 CL   UNL     1      -4.482  12.336  24.833  0.00  0.00    +0.000 Cl
ATOM     29  C   UNL     1      -2.279  11.779  23.366  0.00  0.00    +0.000 A 
ENDBRANCH  20  23
ENDBRANCH  16  17
ENDBRANCH   1  16
TORSDOF 6
ENDMDL
MODEL 8
REMARK VINA RESULT:      -8.1      3.956      7.853
REMARK  Name = 
REMARK  6 active torsions:
REMARK  status: ('A' for Active; 'I' for Inactive)
REMARK    1  A    between atoms: O_1  and  C_2
REMARK    2  A    between atoms: C_4  and  C_5
REMARK    3  A    between atoms: C_12  and  C_13
REMARK    4  A    between atoms: C_13  and  C_14
REMARK    5  A    between atoms: C_14  and  N_15
REMARK    6  A    between atoms: N_18  and  C_19
REMARK                            x       y       z     vdW  Elec       q    Type
REMARK                         _______ _______ _______ _____ _____    ______ ____
ROOT
ATOM      1  C   UNL     1       4.570   4.103  20.150  0.00  0.00    +0.000 C 
ENDROOT
BRANCH   1   5
ATOM      2  C   UNL     1       1.633   2.493  18.990  0.00  0.00    +0.000 A 
ATOM      3  N   UNL     1       1.113   3.676  18.854  0.00  0.00    +0.000 NA
ATOM      4  C   UNL     1       2.142   4.501  19.234  0.00  0.00    +0.000 A 
ATOM      5  C   UNL     1       3.235   3.739  19.621  0.00  0.00    +0.000 A 
ATOM      6  O   UNL     1       2.905   2.416  19.449  0.00  0.00    +0.000 OA
BRANCH   4   7
ATOM      7  C   UNL     1       2.052   5.955  19.250  0.00  0.00    +0.000 A 
ATOM      8  C   UNL     1       2.304   6.680  18.078  0.00  0.00    +0.000 A 
ATOM      9  C   UNL     1       2.204   8.076  18.075  0.00  0.00    +0.000 A 
ATOM     10  C   UNL     1       1.848   8.747  19.238  0.00  0.00    +0.000 A 
ATOM     11  F   UNL     1       1.750  10.084  19.232  0.00  0.00    +0.000 F 
ATOM     12  C   UNL     1       1.606   8.054  20.411  0.00  0.00    +0.000 A 
ATOM     13  C   UNL     1       1.725   6.664  20.419  0.00  0.00    +0.000 A 
ENDBRANCH   4   7
BRANCH   2  14
ATOM     14  O   UNL     1       1.023   1.359  18.705  0.00  0.00    +0.000 OA
ATOM     15  H   UNL     1       0.829   1.022  19.595  0.00  0.00    +0.000 HD
ENDBRANCH   2  14
ENDBRANCH   1   5
BRANCH   1  16
ATOM     16  C   UNL     1       5.470   5.016  19.318  0.00  0.00    +0.000 C 
BRANCH  16  17
ATOM     17  N   UNL     1       6.193   4.235  18.292  0.00  0.00    +0.000 NA
ATOM     18  C   UNL     1       5.281   3.735  17.245  0.00  0.00    +0.000 C 
ATOM     19  C   UNL     1       4.851   4.801  16.217  0.00  0.00    +0.000 C 
ATOM     20  N   UNL     1       6.020   5.403  15.560  0.00  0.00    +0.000 N 
ATOM     21  C   UNL     1       7.034   5.925  16.496  0.00  0.00    +0.000 C 
ATOM     22  C   UNL     1       7.339   4.914  17.634  0.00  0.00    +0.000 C 
BRANCH  20  23
ATOM     23  C   UNL     1       6.417   4.993  14.294  0.00  0.00    +0.000 A 
ATOM     24  C   UNL     1       7.551   5.511  13.646  0.00  0.00    +0.000 A 
ATOM     25  C   UNL     1       7.985   5.024  12.407  0.00  0.00    +0.000 A 
ATOM     26  C   UNL     1       7.291   3.994  11.786  0.00  0.00    +0.000 A 
ATOM     27  C   UNL     1       6.158   3.471  12.400  0.00  0.00    +0.000 A 
ATOM     28 CL   UNL     1       5.306   2.176  11.649  0.00  0.00    +0.000 Cl
ATOM     29  C   UNL     1       5.721   3.970  13.631  0.00  0.00    +0.000 A 
ENDBRANCH  20  23
ENDBRANCH  16  17
ENDBRANCH   1  16
TORSDOF 6
ENDMDL
MODEL 9
REMARK VINA RESULT:      -8.0      3.877      7.978
REMARK  Name = 
REMARK  6 active torsions:
REMARK  status: ('A' for Active; 'I' for Inactive)
REMARK    1  A    between atoms: O_1  and  C_2
REMARK    2  A    between atoms: C_4  and  C_5
REMARK    3  A    between atoms: C_12  and  C_13
REMARK    4  A    between atoms: C_13  and  C_14
REMARK    5  A    between atoms: C_14  and  N_15
REMARK    6  A    between atoms: N_18  and  C_19
REMARK                            x       y       z     vdW  Elec       q    Type
REMARK                         _______ _______ _______ _____ _____    ______ ____
ROOT
ATOM      1  C   UNL     1       5.321   6.238  19.302  0.00  0.00    +0.000 C 
ENDROOT
BRANCH   1   5
ATOM      2  C   UNL     1       2.857   3.701  19.553  0.00  0.00    +0.000 A 
ATOM      3  N   UNL     1       1.968   4.648  19.518  0.00  0.00    +0.000 NA
ATOM      4  C   UNL     1       2.738   5.777  19.381  0.00  0.00    +0.000 A 
ATOM      5  C   UNL     1       4.081   5.431  19.379  0.00  0.00    +0.000 A 
ATOM      6  O   UNL     1       4.161   4.062  19.480  0.00  0.00    +0.000 OA
BRANCH   4   7
ATOM      7  C   UNL     1       2.191   7.124  19.290  0.00  0.00    +0.000 A 
ATOM      8  C   UNL     1       2.212   7.801  18.064  0.00  0.00    +0.000 A 
ATOM      9  C   UNL     1       1.675   9.090  17.958  0.00  0.00    +0.000 A 
ATOM     10  C   UNL     1       1.113   9.699  19.073  0.00  0.00    +0.000 A 
ATOM     11  F   UNL     1       0.596  10.931  18.970  0.00  0.00    +0.000 F 
ATOM     12  C   UNL     1       1.092   9.054  20.299  0.00  0.00    +0.000 A 
ATOM     13  C   UNL     1       1.645   7.779  20.408  0.00  0.00    +0.000 A 
ENDBRANCH   4   7
BRANCH   2  14
ATOM     14  O   UNL     1       2.591   2.413  19.642  0.00  0.00    +0.000 OA
ATOM     15  H   UNL     1       3.320   2.110  20.209  0.00  0.00    +0.000 HD
ENDBRANCH   2  14
ENDBRANCH   1   5
BRANCH   1  16
ATOM     16  C   UNL     1       6.670   5.532  19.434  0.00  0.00    +0.000 C 
BRANCH  16  17
ATOM     17  N   UNL     1       7.459   5.691  18.194  0.00  0.00    +0.000 NA
ATOM     18  C   UNL     1       7.701   4.394  17.532  0.00  0.00    +0.000 C 
ATOM     19  C   UNL     1       6.487   3.839  16.761  0.00  0.00    +0.000 C 
ATOM     20  N   UNL     1       6.026   4.795  15.744  0.00  0.00    +0.000 N 
ATOM     21  C   UNL     1       5.768   6.150  16.265  0.00  0.00    +0.000 C 
ATOM     22  C   UNL     1       6.918   6.640  17.185  0.00  0.00    +0.000 C 
BRANCH  20  23
ATOM     23  C   UNL     1       6.374   4.640  14.408  0.00  0.00    +0.000 A 
ATOM     24  C   UNL     1       7.455   5.315  13.819  0.00  0.00    +0.000 A 
ATOM     25  C   UNL     1       7.844   5.081  12.495  0.00  0.00    +0.000 A 
ATOM     26  C   UNL     1       7.156   4.153  11.724  0.00  0.00    +0.000 A 
ATOM     27  C   UNL     1       6.073   3.479  12.279  0.00  0.00    +0.000 A 
ATOM     28 CL   UNL     1       5.231   2.307  11.340  0.00  0.00    +0.000 Cl
ATOM     29  C   UNL     1       5.681   3.726  13.598  0.00  0.00    +0.000 A 
ENDBRANCH  20  23
ENDBRANCH  16  17
ENDBRANCH   1  16
TORSDOF 6
ENDMDL
