MODEL 1
REMARK VINA RESULT:      -7.3      0.000      0.000
REMARK  Name = 
REMARK  16 active torsions:
REMARK  status: ('A' for Active; 'I' for Inactive)
REMARK    1  A    between atoms: C_1  and  O_2
REMARK    2  A    between atoms: O_2  and  C_3
REMARK    3  A    between atoms: C_5  and  C_6
REMARK    4  A    between atoms: N_8  and  C_9
REMARK    5  A    between atoms: N_8  and  C_13
REMARK    6  A    between atoms: C_9  and  C_10
REMARK    7  A    between atoms: C_10  and  C_11
REMARK    8  A    between atoms: C_11  and  O_12
REMARK    9  A    between atoms: C_13  and  C_14
REMARK   10  A    between atoms: C_19  and  C_20
REMARK   11  A    between atoms: C_21  and  C_22
REMARK   12  A    between atoms: C_25  and  O_26
REMARK   13  A    between atoms: C_28  and  O_29
REMARK   14  A    between atoms: O_29  and  C_30
REMARK   15  A    between atoms: C_31  and  O_32
REMARK   16  A    between atoms: O_32  and  C_33
REMARK                            x       y       z     vdW  Elec       q    Type
REMARK                         _______ _______ _______ _____ _____    ______ ____
ROOT
ATOM      1  C   UNL     1       3.225   4.153  18.232  0.00  0.00    +0.000 C 
ATOM      2  O   UNL     1       2.949   3.068  17.728  0.00  0.00    +0.000 OA
ATOM      3  N   UNL     1       2.389   4.798  19.163  0.00  0.00    +0.000 N 
ENDROOT
BRANCH   1   6
ATOM      4  C   UNL     1       6.073   5.696  16.249  0.00  0.00    +0.000 A 
ATOM      5  C   UNL     1       4.923   4.950  16.543  0.00  0.00    +0.000 A 
ATOM      6  C   UNL     1       4.547   4.746  17.867  0.00  0.00    +0.000 A 
ATOM      7  C   UNL     1       5.452   5.070  18.880  0.00  0.00    +0.000 A 
ATOM      8  C   UNL     1       6.617   5.810  18.611  0.00  0.00    +0.000 A 
ATOM      9  C   UNL     1       6.893   6.201  17.282  0.00  0.00    +0.000 A 
BRANCH   4  11
ATOM     10  C   UNL     1       6.773   4.748  14.188  0.00  0.00    +0.000 C 
ATOM     11  O   UNL     1       6.484   5.912  14.956  0.00  0.00    +0.000 OA
ENDBRANCH   4  11
BRANCH   8  12
ATOM     12  O   UNL     1       7.345   6.043  19.744  0.00  0.00    +0.000 OA
ATOM     13  C   UNL     1       8.472   5.234  20.039  0.00  0.00    +0.000 C 
ENDBRANCH   8  12
BRANCH   9  14
ATOM     14  O   UNL     1       7.994   6.967  16.992  0.00  0.00    +0.000 OA
ATOM     15  C   UNL     1       7.914   8.310  17.493  0.00  0.00    +0.000 C 
ENDBRANCH   9  14
ENDBRANCH   1   6
BRANCH   3  16
ATOM     16  C   UNL     1       1.118   4.140  19.539  0.00  0.00    +0.000 C 
BRANCH  16  17
ATOM     17  C   UNL     1       1.057   3.784  21.025  0.00  0.00    +0.000 C 
BRANCH  17  18
ATOM     18  C   UNL     1       1.622   2.398  21.310  0.00  0.00    +0.000 C 
BRANCH  18  19
ATOM     19  O   UNL     1       2.851   2.518  22.019  0.00  0.00    +0.000 OA
ATOM     20  H   UNL     1       2.994   1.690  22.509  0.00  0.00    +0.000 HD
ENDBRANCH  18  19
ENDBRANCH  17  18
ENDBRANCH  16  17
ENDBRANCH   3  16
BRANCH   3  21
ATOM     21  C   UNL     1       2.719   6.021  19.921  0.00  0.00    +0.000 C 
BRANCH  21  22
ATOM     22  C   UNL     1       1.903   7.224  19.551  0.00  0.00    +0.000 A 
ATOM     23  C   UNL     1       1.141   7.925  20.465  0.00  0.00    +0.000 A 
ATOM     24  C   UNL     1       0.810   9.241  20.131  0.00  0.00    +0.000 A 
ATOM     25  C   UNL     1       1.242  10.346  20.884  0.00  0.00    +0.000 A 
ATOM     26  C   UNL     1       1.164  11.631  20.338  0.00  0.00    +0.000 A 
ATOM     27  C   UNL     1       0.361  11.842  19.214  0.00  0.00    +0.000 A 
ATOM     28  C   UNL     1      -0.061  13.222  18.816  0.00  0.00    +0.000 C 
ATOM     29  C   UNL     1      -0.118  10.705  18.561  0.00  0.00    +0.000 A 
ATOM     30  C   UNL     1      -1.590  10.645  18.193  0.00  0.00    +0.000 C 
ATOM     31  C   UNL     1       0.550   9.506  18.809  0.00  0.00    +0.000 A 
ATOM     32  N   UNL     1       1.389   8.945  17.929  0.00  0.00    +0.000 NA
ATOM     33  C   UNL     1       2.138   7.910  18.367  0.00  0.00    +0.000 A 
BRANCH  33  34
ATOM     34  O   UNL     1       3.462   7.990  17.998  0.00  0.00    +0.000 OA
ATOM     35  H   UNL     1       3.875   7.474  18.721  0.00  0.00    +0.000 HD
ENDBRANCH  33  34
ENDBRANCH  21  22
ENDBRANCH   3  21
TORSDOF 11
ENDMDL
MODEL 2
REMARK VINA RESULT:      -6.8      4.042      9.818
REMARK  Name = 
REMARK  16 active torsions:
REMARK  status: ('A' for Active; 'I' for Inactive)
REMARK    1  A    between atoms: C_1  and  O_2
REMARK    2  A    between atoms: O_2  and  C_3
REMARK    3  A    between atoms: C_5  and  C_6
REMARK    4  A    between atoms: N_8  and  C_9
REMARK    5  A    between atoms: N_8  and  C_13
REMARK    6  A    between atoms: C_9  and  C_10
REMARK    7  A    between atoms: C_10  and  C_11
REMARK    8  A    between atoms: C_11  and  O_12
REMARK    9  A    between atoms: C_13  and  C_14
REMARK   10  A    between atoms: C_19  and  C_20
REMARK   11  A    between atoms: C_21  and  C_22
REMARK   12  A    between atoms: C_25  and  O_26
REMARK   13  A    between atoms: C_28  and  O_29
REMARK   14  A    between atoms: O_29  and  C_30
REMARK   15  A    between atoms: C_31  and  O_32
REMARK   16  A    between atoms: O_32  and  C_33
REMARK                            x       y       z     vdW  Elec       q    Type
REMARK                         _______ _______ _______ _____ _____    ______ ____
ROOT
ATOM      1  C   UNL     1      -0.550  12.732  18.741  0.00  0.00    +0.000 C 
ATOM      2  O   UNL     1      -0.347  13.900  18.424  0.00  0.00    +0.000 OA
ATOM      3  N   UNL     1       0.463  11.888  19.235  0.00  0.00    +0.000 N 
ENDROOT
BRANCH   1   6
ATOM      4  C   UNL     1      -4.221  12.116  19.494  0.00  0.00    +0.000 A 
ATOM      5  C   UNL     1      -2.862  12.393  19.696  0.00  0.00    +0.000 A 
ATOM      6  C   UNL     1      -1.959  12.246  18.647  0.00  0.00    +0.000 A 
ATOM      7  C   UNL     1      -2.378  11.587  17.489  0.00  0.00    +0.000 A 
ATOM      8  C   UNL     1      -3.734  11.290  17.265  0.00  0.00    +0.000 A 
ATOM      9  C   UNL     1      -4.686  11.633  18.251  0.00  0.00    +0.000 A 
BRANCH   4  11
ATOM     10  C   UNL     1      -5.497  13.568  20.873  0.00  0.00    +0.000 C 
ATOM     11  O   UNL     1      -5.142  12.239  20.507  0.00  0.00    +0.000 OA
ENDBRANCH   4  11
BRANCH   8  12
ATOM     12  O   UNL     1      -3.928  10.674  16.061  0.00  0.00    +0.000 OA
ATOM     13  C   UNL     1      -2.813  10.349  15.245  0.00  0.00    +0.000 C 
ENDBRANCH   8  12
BRANCH   9  14
ATOM     14  O   UNL     1      -6.022  11.404  18.043  0.00  0.00    +0.000 OA
ATOM     15  C   UNL     1      -6.700  12.484  17.382  0.00  0.00    +0.000 C 
ENDBRANCH   9  14
ENDBRANCH   1   6
BRANCH   3  16
ATOM     16  C   UNL     1       1.831  12.436  19.366  0.00  0.00    +0.000 C 
BRANCH  16  17
ATOM     17  C   UNL     1       2.061  13.126  20.712  0.00  0.00    +0.000 C 
BRANCH  17  18
ATOM     18  C   UNL     1       2.485  14.580  20.550  0.00  0.00    +0.000 C 
BRANCH  18  19
ATOM     19  O   UNL     1       2.244  15.002  19.211  0.00  0.00    +0.000 OA
ATOM     20  H   UNL     1       2.848  15.740  19.019  0.00  0.00    +0.000 HD
ENDBRANCH  18  19
ENDBRANCH  17  18
ENDBRANCH  16  17
ENDBRANCH   3  16
BRANCH   3  21
ATOM     21  C   UNL     1       0.269  10.528  19.775  0.00  0.00    +0.000 C 
BRANCH  21  22
ATOM     22  C   UNL     1       1.231   9.504  19.249  0.00  0.00    +0.000 A 
ATOM     23  C   UNL     1       1.817   8.544  20.049  0.00  0.00    +0.000 A 
ATOM     24  C   UNL     1       2.308   7.404  19.407  0.00  0.00    +0.000 A 
ATOM     25  C   UNL     1       1.799   6.116  19.653  0.00  0.00    +0.000 A 
ATOM     26  C   UNL     1       2.089   5.075  18.765  0.00  0.00    +0.000 A 
ATOM     27  C   UNL     1       3.136   5.233  17.853  0.00  0.00    +0.000 A 
ATOM     28  C   UNL     1       3.734   4.053  17.154  0.00  0.00    +0.000 C 
ATOM     29  C   UNL     1       3.666   6.518  17.722  0.00  0.00    +0.000 A 
ATOM     30  C   UNL     1       5.175   6.687  17.747  0.00  0.00    +0.000 C 
ATOM     31  C   UNL     1       2.875   7.577  18.169  0.00  0.00    +0.000 A 
ATOM     32  N   UNL     1       2.216   8.394  17.338  0.00  0.00    +0.000 NA
ATOM     33  C   UNL     1       1.316   9.236  17.889  0.00  0.00    +0.000 A 
BRANCH  33  34
ATOM     34  O   UNL     1       0.118   9.285  17.215  0.00  0.00    +0.000 OA
ATOM     35  H   UNL     1      -0.000   8.336  16.999  0.00  0.00    +0.000 HD
ENDBRANCH  33  34
ENDBRANCH  21  22
ENDBRANCH   3  21
TORSDOF 11
ENDMDL
MODEL 3
REMARK VINA RESULT:      -6.8      3.873      9.594
REMARK  Name = 
REMARK  16 active torsions:
REMARK  status: ('A' for Active; 'I' for Inactive)
REMARK    1  A    between atoms: C_1  and  O_2
REMARK    2  A    between atoms: O_2  and  C_3
REMARK    3  A    between atoms: C_5  and  C_6
REMARK    4  A    between atoms: N_8  and  C_9
REMARK    5  A    between atoms: N_8  and  C_13
REMARK    6  A    between atoms: C_9  and  C_10
REMARK    7  A    between atoms: C_10  and  C_11
REMARK    8  A    between atoms: C_11  and  O_12
REMARK    9  A    between atoms: C_13  and  C_14
REMARK   10  A    between atoms: C_19  and  C_20
REMARK   11  A    between atoms: C_21  and  C_22
REMARK   12  A    between atoms: C_25  and  O_26
REMARK   13  A    between atoms: C_28  and  O_29
REMARK   14  A    between atoms: O_29  and  C_30
REMARK   15  A    between atoms: C_31  and  O_32
REMARK   16  A    between atoms: O_32  and  C_33
REMARK                            x       y       z     vdW  Elec       q    Type
REMARK                         _______ _______ _______ _____ _____    ______ ____
ROOT
ATOM      1  C   UNL     1      -0.197  12.456  18.705  0.00  0.00    +0.000 C 
ATOM      2  O   UNL     1       0.081  13.496  18.114  0.00  0.00    +0.000 OA
ATOM      3  N   UNL     1       0.737  11.748  19.485  0.00  0.00    +0.000 N 
ENDROOT
BRANCH   1   6
ATOM      4  C   UNL     1      -3.923  12.084  19.340  0.00  0.00    +0.000 A 
ATOM      5  C   UNL     1      -2.568  12.362  19.566  0.00  0.00    +0.000 A 
ATOM      6  C   UNL     1      -1.615  11.994  18.621  0.00  0.00    +0.000 A 
ATOM      7  C   UNL     1      -1.992  11.136  17.587  0.00  0.00    +0.000 A 
ATOM      8  C   UNL     1      -3.344  10.833  17.343  0.00  0.00    +0.000 A 
ATOM      9  C   UNL     1      -4.336  11.382  18.186  0.00  0.00    +0.000 A 
BRANCH   4  11
ATOM     10  C   UNL     1      -4.578  13.493  21.135  0.00  0.00    +0.000 C 
ATOM     11  O   UNL     1      -4.893  12.421  20.254  0.00  0.00    +0.000 OA
ENDBRANCH   4  11
BRANCH   8  12
ATOM     12  O   UNL     1      -3.494  10.002  16.269  0.00  0.00    +0.000 OA
ATOM     13  C   UNL     1      -3.350  10.514  14.953  0.00  0.00    +0.000 C 
ENDBRANCH   8  12
BRANCH   9  14
ATOM     14  O   UNL     1      -5.666  11.149  17.946  0.00  0.00    +0.000 OA
ATOM     15  C   UNL     1      -6.334  12.233  17.283  0.00  0.00    +0.000 C 
ENDBRANCH   9  14
ENDBRANCH   1   6
BRANCH   3  16
ATOM     16  C   UNL     1       2.114  12.281  19.586  0.00  0.00    +0.000 C 
BRANCH  16  17
ATOM     17  C   UNL     1       2.259  13.330  20.689  0.00  0.00    +0.000 C 
BRANCH  17  18
ATOM     18  C   UNL     1       2.775  14.661  20.156  0.00  0.00    +0.000 C 
BRANCH  18  19
ATOM     19  O   UNL     1       2.702  14.666  18.734  0.00  0.00    +0.000 OA
ATOM     20  H   UNL     1       1.832  14.314  18.480  0.00  0.00    +0.000 HD
ENDBRANCH  18  19
ENDBRANCH  17  18
ENDBRANCH  16  17
ENDBRANCH   3  16
BRANCH   3  21
ATOM     21  C   UNL     1       0.443  10.583  20.341  0.00  0.00    +0.000 C 
BRANCH  21  22
ATOM     22  C   UNL     1       0.930   9.271  19.799  0.00  0.00    +0.000 A 
ATOM     23  C   UNL     1       1.231   9.075  18.465  0.00  0.00    +0.000 A 
ATOM     24  C   UNL     1       2.081   8.008  18.163  0.00  0.00    +0.000 A 
ATOM     25  C   UNL     1       3.343   8.189  17.570  0.00  0.00    +0.000 A 
ATOM     26  C   UNL     1       4.273   7.145  17.588  0.00  0.00    +0.000 A 
ATOM     27  C   UNL     1       3.835   5.851  17.881  0.00  0.00    +0.000 A 
ATOM     28  C   UNL     1       4.679   4.659  17.553  0.00  0.00    +0.000 C 
ATOM     29  C   UNL     1       2.537   5.725  18.378  0.00  0.00    +0.000 A 
ATOM     30  C   UNL     1       1.626   4.673  17.770  0.00  0.00    +0.000 C 
ATOM     31  C   UNL     1       1.954   6.870  18.920  0.00  0.00    +0.000 A 
ATOM     32  N   UNL     1       1.815   7.062  20.237  0.00  0.00    +0.000 NA
ATOM     33  C   UNL     1       1.441   8.294  20.643  0.00  0.00    +0.000 A 
BRANCH  33  34
ATOM     34  O   UNL     1       2.174   8.774  21.705  0.00  0.00    +0.000 OA
ATOM     35  H   UNL     1       1.499   9.332  22.145  0.00  0.00    +0.000 HD
ENDBRANCH  33  34
ENDBRANCH  21  22
ENDBRANCH   3  21
TORSDOF 11
ENDMDL
MODEL 4
REMARK VINA RESULT:      -6.6      1.185      2.552
REMARK  Name = 
REMARK  16 active torsions:
REMARK  status: ('A' for Active; 'I' for Inactive)
REMARK    1  A    between atoms: C_1  and  O_2
REMARK    2  A    between atoms: O_2  and  C_3
REMARK    3  A    between atoms: C_5  and  C_6
REMARK    4  A    between atoms: N_8  and  C_9
REMARK    5  A    between atoms: N_8  and  C_13
REMARK    6  A    between atoms: C_9  and  C_10
REMARK    7  A    between atoms: C_10  and  C_11
REMARK    8  A    between atoms: C_11  and  O_12
REMARK    9  A    between atoms: C_13  and  C_14
REMARK   10  A    between atoms: C_19  and  C_20
REMARK   11  A    between atoms: C_21  and  C_22
REMARK   12  A    between atoms: C_25  and  O_26
REMARK   13  A    between atoms: C_28  and  O_29
REMARK   14  A    between atoms: O_29  and  C_30
REMARK   15  A    between atoms: C_31  and  O_32
REMARK   16  A    between atoms: O_32  and  C_33
REMARK                            x       y       z     vdW  Elec       q    Type
REMARK                         _______ _______ _______ _____ _____    ______ ____
ROOT
ATOM      1  C   UNL     1       3.339   4.242  17.853  0.00  0.00    +0.000 C 
ATOM      2  O   UNL     1       2.972   3.075  17.747  0.00  0.00    +0.000 OA
ATOM      3  N   UNL     1       2.785   5.135  18.789  0.00  0.00    +0.000 N 
ENDROOT
BRANCH   1   6
ATOM      4  C   UNL     1       6.433   6.022  16.555  0.00  0.00    +0.000 A 
ATOM      5  C   UNL     1       5.259   5.778  17.281  0.00  0.00    +0.000 A 
ATOM      6  C   UNL     1       4.471   4.672  16.978  0.00  0.00    +0.000 A 
ATOM      7  C   UNL     1       4.726   3.968  15.799  0.00  0.00    +0.000 A 
ATOM      8  C   UNL     1       5.892   4.199  15.047  0.00  0.00    +0.000 A 
ATOM      9  C   UNL     1       6.804   5.189  15.475  0.00  0.00    +0.000 A 
BRANCH   4  11
ATOM     10  C   UNL     1       7.792   7.175  18.123  0.00  0.00    +0.000 C 
ATOM     11  O   UNL     1       7.232   7.109  16.815  0.00  0.00    +0.000 OA
ENDBRANCH   4  11
BRANCH   8  12
ATOM     12  O   UNL     1       5.960   3.386  13.950  0.00  0.00    +0.000 OA
ATOM     13  C   UNL     1       5.070   3.589  12.864  0.00  0.00    +0.000 C 
ENDBRANCH   8  12
BRANCH   9  14
ATOM     14  O   UNL     1       7.974   5.405  14.794  0.00  0.00    +0.000 OA
ATOM     15  C   UNL     1       7.799   5.570  13.378  0.00  0.00    +0.000 C 
ENDBRANCH   9  14
ENDBRANCH   1   6
BRANCH   3  16
ATOM     16  C   UNL     1       1.706   4.642  19.675  0.00  0.00    +0.000 C 
BRANCH  16  17
ATOM     17  C   UNL     1       2.191   4.384  21.103  0.00  0.00    +0.000 C 
BRANCH  17  18
ATOM     18  C   UNL     1       2.390   2.900  21.385  0.00  0.00    +0.000 C 
BRANCH  18  19
ATOM     19  O   UNL     1       1.760   2.131  20.365  0.00  0.00    +0.000 OA
ATOM     20  H   UNL     1       1.796   2.645  19.540  0.00  0.00    +0.000 HD
ENDBRANCH  18  19
ENDBRANCH  17  18
ENDBRANCH  16  17
ENDBRANCH   3  16
BRANCH   3  21
ATOM     21  C   UNL     1       3.271   6.498  19.078  0.00  0.00    +0.000 C 
BRANCH  21  22
ATOM     22  C   UNL     1       2.239   7.576  18.920  0.00  0.00    +0.000 A 
ATOM     23  C   UNL     1       1.547   8.114  19.987  0.00  0.00    +0.000 A 
ATOM     24  C   UNL     1       0.977   9.376  19.795  0.00  0.00    +0.000 A 
ATOM     25  C   UNL     1       1.364  10.504  20.540  0.00  0.00    +0.000 A 
ATOM     26  C   UNL     1       1.010  11.782  20.096  0.00  0.00    +0.000 A 
ATOM     27  C   UNL     1       0.009  11.912  19.130  0.00  0.00    +0.000 A 
ATOM     28  C   UNL     1      -0.669  13.225  18.894  0.00  0.00    +0.000 C 
ATOM     29  C   UNL     1      -0.402  10.741  18.490  0.00  0.00    +0.000 A 
ATOM     30  C   UNL     1      -1.891  10.470  18.358  0.00  0.00    +0.000 C 
ATOM     31  C   UNL     1       0.465   9.650  18.551  0.00  0.00    +0.000 A 
ATOM     32  N   UNL     1       1.217   9.260  17.515  0.00  0.00    +0.000 NA
ATOM     33  C   UNL     1       2.171   8.336  17.760  0.00  0.00    +0.000 A 
BRANCH  33  34
ATOM     34  O   UNL     1       3.389   8.632  17.192  0.00  0.00    +0.000 OA
ATOM     35  H   UNL     1       3.181   9.493  16.773  0.00  0.00    +0.000 HD
ENDBRANCH  33  34
ENDBRANCH  21  22
ENDBRANCH   3  21
TORSDOF 11
ENDMDL
MODEL 5
REMARK VINA RESULT:      -6.5      1.474      2.854
REMARK  Name = 
REMARK  16 active torsions:
REMARK  status: ('A' for Active; 'I' for Inactive)
REMARK    1  A    between atoms: C_1  and  O_2
REMARK    2  A    between atoms: O_2  and  C_3
REMARK    3  A    between atoms: C_5  and  C_6
REMARK    4  A    between atoms: N_8  and  C_9
REMARK    5  A    between atoms: N_8  and  C_13
REMARK    6  A    between atoms: C_9  and  C_10
REMARK    7  A    between atoms: C_10  and  C_11
REMARK    8  A    between atoms: C_11  and  O_12
REMARK    9  A    between atoms: C_13  and  C_14
REMARK   10  A    between atoms: C_19  and  C_20
REMARK   11  A    between atoms: C_21  and  C_22
REMARK   12  A    between atoms: C_25  and  O_26
REMARK   13  A    between atoms: C_28  and  O_29
REMARK   14  A    between atoms: O_29  and  C_30
REMARK   15  A    between atoms: C_31  and  O_32
REMARK   16  A    between atoms: O_32  and  C_33
REMARK                            x       y       z     vdW  Elec       q    Type
REMARK                         _______ _______ _______ _____ _____    ______ ____
ROOT
ATOM      1  C   UNL     1       4.040   3.717  17.709  0.00  0.00    +0.000 C 
ATOM      2  O   UNL     1       3.760   2.533  17.547  0.00  0.00    +0.000 OA
ATOM      3  N   UNL     1       3.529   4.484  18.773  0.00  0.00    +0.000 N 
ENDROOT
BRANCH   1   6
ATOM      4  C   UNL     1       6.854   5.807  16.247  0.00  0.00    +0.000 A 
ATOM      5  C   UNL     1       5.804   5.413  17.087  0.00  0.00    +0.000 A 
ATOM      6  C   UNL     1       5.022   4.312  16.753  0.00  0.00    +0.000 A 
ATOM      7  C   UNL     1       5.133   3.774  15.469  0.00  0.00    +0.000 A 
ATOM      8  C   UNL     1       6.172   4.158  14.602  0.00  0.00    +0.000 A 
ATOM      9  C   UNL     1       7.099   5.135  15.029  0.00  0.00    +0.000 A 
BRANCH   4  11
ATOM     10  C   UNL     1       7.768   7.229  17.914  0.00  0.00    +0.000 C 
ATOM     11  O   UNL     1       7.642   6.895  16.536  0.00  0.00    +0.000 OA
ENDBRANCH   4  11
BRANCH   8  12
ATOM     12  O   UNL     1       6.115   3.491  13.411  0.00  0.00    +0.000 OA
ATOM     13  C   UNL     1       4.916   3.503  12.651  0.00  0.00    +0.000 C 
ENDBRANCH   8  12
BRANCH   9  14
ATOM     14  O   UNL     1       8.153   5.496  14.229  0.00  0.00    +0.000 OA
ATOM     15  C   UNL     1       7.846   5.491  12.827  0.00  0.00    +0.000 C 
ENDBRANCH   9  14
ENDBRANCH   1   6
BRANCH   3  16
ATOM     16  C   UNL     1       2.607   3.831  19.730  0.00  0.00    +0.000 C 
BRANCH  16  17
ATOM     17  C   UNL     1       1.153   3.861  19.256  0.00  0.00    +0.000 C 
BRANCH  17  18
ATOM     18  C   UNL     1       0.682   2.502  18.754  0.00  0.00    +0.000 C 
BRANCH  18  19
ATOM     19  O   UNL     1       1.618   1.500  19.138  0.00  0.00    +0.000 OA
ATOM     20  H   UNL     1       1.400   0.687  18.650  0.00  0.00    +0.000 HD
ENDBRANCH  18  19
ENDBRANCH  17  18
ENDBRANCH  16  17
ENDBRANCH   3  16
BRANCH   3  21
ATOM     21  C   UNL     1       3.933   5.861  19.120  0.00  0.00    +0.000 C 
BRANCH  21  22
ATOM     22  C   UNL     1       2.894   6.905  18.842  0.00  0.00    +0.000 A 
ATOM     23  C   UNL     1       1.928   7.267  19.760  0.00  0.00    +0.000 A 
ATOM     24  C   UNL     1       1.330   8.518  19.586  0.00  0.00    +0.000 A 
ATOM     25  C   UNL     1       1.443   9.551  20.532  0.00  0.00    +0.000 A 
ATOM     26  C   UNL     1       1.113  10.861  20.171  0.00  0.00    +0.000 A 
ATOM     27  C   UNL     1       0.367  11.078  19.010  0.00  0.00    +0.000 A 
ATOM     28  C   UNL     1      -0.329  12.381  18.772  0.00  0.00    +0.000 C 
ATOM     29  C   UNL     1       0.208   9.987  18.153  0.00  0.00    +0.000 A 
ATOM     30  C   UNL     1      -1.181   9.675  17.624  0.00  0.00    +0.000 C 
ATOM     31  C   UNL     1       1.113   8.935  18.296  0.00  0.00    +0.000 A 
ATOM     32  N   UNL     1       2.119   8.719  17.439  0.00  0.00    +0.000 NA
ATOM     33  C   UNL     1       3.051   7.811  17.801  0.00  0.00    +0.000 A 
BRANCH  33  34
ATOM     34  O   UNL     1       4.344   8.231  17.591  0.00  0.00    +0.000 OA
ATOM     35  H   UNL     1       4.821   7.650  18.219  0.00  0.00    +0.000 HD
ENDBRANCH  33  34
ENDBRANCH  21  22
ENDBRANCH   3  21
TORSDOF 11
ENDMDL
MODEL 6
REMARK VINA RESULT:      -6.4      3.768      8.736
REMARK  Name = 
REMARK  16 active torsions:
REMARK  status: ('A' for Active; 'I' for Inactive)
REMARK    1  A    between atoms: C_1  and  O_2
REMARK    2  A    between atoms: O_2  and  C_3
REMARK    3  A    between atoms: C_5  and  C_6
REMARK    4  A    between atoms: N_8  and  C_9
REMARK    5  A    between atoms: N_8  and  C_13
REMARK    6  A    between atoms: C_9  and  C_10
REMARK    7  A    between atoms: C_10  and  C_11
REMARK    8  A    between atoms: C_11  and  O_12
REMARK    9  A    between atoms: C_13  and  C_14
REMARK   10  A    between atoms: C_19  and  C_20
REMARK   11  A    between atoms: C_21  and  C_22
REMARK   12  A    between atoms: C_25  and  O_26
REMARK   13  A    between atoms: C_28  and  O_29
REMARK   14  A    between atoms: O_29  and  C_30
REMARK   15  A    between atoms: C_31  and  O_32
REMARK   16  A    between atoms: O_32  and  C_33
REMARK                            x       y       z     vdW  Elec       q    Type
REMARK                         _______ _______ _______ _____ _____    ______ ____
ROOT
ATOM      1  C   UNL     1      -0.031  12.436  18.747  0.00  0.00    +0.000 C 
ATOM      2  O   UNL     1      -0.651  12.982  17.838  0.00  0.00    +0.000 OA
ATOM      3  N   UNL     1       0.066  11.037  18.872  0.00  0.00    +0.000 N 
ENDROOT
BRANCH   1   6
ATOM      4  C   UNL     1       0.867  14.471  21.825  0.00  0.00    +0.000 A 
ATOM      5  C   UNL     1       0.094  13.811  20.859  0.00  0.00    +0.000 A 
ATOM      6  C   UNL     1       0.692  13.331  19.699  0.00  0.00    +0.000 A 
ATOM      7  C   UNL     1       1.996  13.733  19.399  0.00  0.00    +0.000 A 
ATOM      8  C   UNL     1       2.790  14.404  20.346  0.00  0.00    +0.000 A 
ATOM      9  C   UNL     1       2.243  14.708  21.613  0.00  0.00    +0.000 A 
BRANCH   4  11
ATOM     10  C   UNL     1      -0.799  15.843  22.814  0.00  0.00    +0.000 C 
ATOM     11  O   UNL     1       0.312  14.969  22.979  0.00  0.00    +0.000 OA
ENDBRANCH   4  11
BRANCH   8  12
ATOM     12  O   UNL     1       4.038  14.678  19.861  0.00  0.00    +0.000 OA
ATOM     13  C   UNL     1       4.277  14.641  18.463  0.00  0.00    +0.000 C 
ENDBRANCH   8  12
BRANCH   9  14
ATOM     14  O   UNL     1       3.006  15.316  22.577  0.00  0.00    +0.000 OA
ATOM     15  C   UNL     1       3.187  16.725  22.370  0.00  0.00    +0.000 C 
ENDBRANCH   9  14
ENDBRANCH   1   6
BRANCH   3  16
ATOM     16  C   UNL     1      -0.618  10.193  17.866  0.00  0.00    +0.000 C 
BRANCH  16  17
ATOM     17  C   UNL     1      -2.129  10.121  18.092  0.00  0.00    +0.000 C 
BRANCH  17  18
ATOM     18  C   UNL     1      -2.917  10.407  16.820  0.00  0.00    +0.000 C 
BRANCH  18  19
ATOM     19  O   UNL     1      -2.325  11.502  16.128  0.00  0.00    +0.000 OA
ATOM     20  H   UNL     1      -1.654  11.895  16.712  0.00  0.00    +0.000 HD
ENDBRANCH  18  19
ENDBRANCH  17  18
ENDBRANCH  16  17
ENDBRANCH   3  16
BRANCH   3  21
ATOM     21  C   UNL     1       0.910  10.311  19.841  0.00  0.00    +0.000 C 
BRANCH  21  22
ATOM     22  C   UNL     1       1.306   8.929  19.413  0.00  0.00    +0.000 A 
ATOM     23  C   UNL     1       1.813   8.647  18.159  0.00  0.00    +0.000 A 
ATOM     24  C   UNL     1       2.552   7.469  18.030  0.00  0.00    +0.000 A 
ATOM     25  C   UNL     1       3.913   7.462  17.676  0.00  0.00    +0.000 A 
ATOM     26  C   UNL     1       4.676   6.308  17.877  0.00  0.00    +0.000 A 
ATOM     27  C   UNL     1       4.023   5.093  18.099  0.00  0.00    +0.000 A 
ATOM     28  C   UNL     1       4.743   3.790  17.945  0.00  0.00    +0.000 C 
ATOM     29  C   UNL     1       2.651   5.155  18.352  0.00  0.00    +0.000 A 
ATOM     30  C   UNL     1       1.731   4.209  17.600  0.00  0.00    +0.000 C 
ATOM     31  C   UNL     1       2.139   6.385  18.765  0.00  0.00    +0.000 A 
ATOM     32  N   UNL     1       1.793   6.641  20.032  0.00  0.00    +0.000 NA
ATOM     33  C   UNL     1       1.521   7.925  20.348  0.00  0.00    +0.000 A 
BRANCH  33  34
ATOM     34  O   UNL     1       2.108   8.344  21.520  0.00  0.00    +0.000 OA
ATOM     35  H   UNL     1       1.799   9.273  21.548  0.00  0.00    +0.000 HD
ENDBRANCH  33  34
ENDBRANCH  21  22
ENDBRANCH   3  21
TORSDOF 11
ENDMDL
MODEL 7
REMARK VINA RESULT:      -6.4      3.856      9.356
REMARK  Name = 
REMARK  16 active torsions:
REMARK  status: ('A' for Active; 'I' for Inactive)
REMARK    1  A    between atoms: C_1  and  O_2
REMARK    2  A    between atoms: O_2  and  C_3
REMARK    3  A    between atoms: C_5  and  C_6
REMARK    4  A    between atoms: N_8  and  C_9
REMARK    5  A    between atoms: N_8  and  C_13
REMARK    6  A    between atoms: C_9  and  C_10
REMARK    7  A    between atoms: C_10  and  C_11
REMARK    8  A    between atoms: C_11  and  O_12
REMARK    9  A    between atoms: C_13  and  C_14
REMARK   10  A    between atoms: C_19  and  C_20
REMARK   11  A    between atoms: C_21  and  C_22
REMARK   12  A    between atoms: C_25  and  O_26
REMARK   13  A    between atoms: C_28  and  O_29
REMARK   14  A    between atoms: O_29  and  C_30
REMARK   15  A    between atoms: C_31  and  O_32
REMARK   16  A    between atoms: O_32  and  C_33
REMARK                            x       y       z     vdW  Elec       q    Type
REMARK                         _______ _______ _______ _____ _____    ______ ____
ROOT
ATOM      1  C   UNL     1      -0.113  12.598  18.738  0.00  0.00    +0.000 C 
ATOM      2  O   UNL     1       0.256  13.643  18.209  0.00  0.00    +0.000 OA
ATOM      3  N   UNL     1       0.733  11.807  19.540  0.00  0.00    +0.000 N 
ENDROOT
BRANCH   1   6
ATOM      4  C   UNL     1      -3.279  10.923  17.475  0.00  0.00    +0.000 A 
ATOM      5  C   UNL     1      -1.970  11.424  17.495  0.00  0.00    +0.000 A 
ATOM      6  C   UNL     1      -1.547  12.221  18.554  0.00  0.00    +0.000 A 
ATOM      7  C   UNL     1      -2.501  12.714  19.446  0.00  0.00    +0.000 A 
ATOM      8  C   UNL     1      -3.823  12.235  19.442  0.00  0.00    +0.000 A 
ATOM      9  C   UNL     1      -4.200  11.262  18.491  0.00  0.00    +0.000 A 
BRANCH   4  11
ATOM     10  C   UNL     1      -3.192  10.417  15.157  0.00  0.00    +0.000 C 
ATOM     11  O   UNL     1      -3.739  10.142  16.442  0.00  0.00    +0.000 OA
ENDBRANCH   4  11
BRANCH   8  12
ATOM     12  O   UNL     1      -4.582  12.827  20.413  0.00  0.00    +0.000 OA
ATOM     13  C   UNL     1      -4.232  12.668  21.779  0.00  0.00    +0.000 C 
ENDBRANCH   8  12
BRANCH   9  14
ATOM     14  O   UNL     1      -5.467  10.736  18.492  0.00  0.00    +0.000 OA
ATOM     15  C   UNL     1      -6.463  11.624  17.960  0.00  0.00    +0.000 C 
ENDBRANCH   9  14
ENDBRANCH   1   6
BRANCH   3  16
ATOM     16  C   UNL     1       2.129  12.256  19.742  0.00  0.00    +0.000 C 
BRANCH  16  17
ATOM     17  C   UNL     1       2.243  13.367  20.786  0.00  0.00    +0.000 C 
BRANCH  17  18
ATOM     18  C   UNL     1       3.095  14.532  20.299  0.00  0.00    +0.000 C 
BRANCH  18  19
ATOM     19  O   UNL     1       2.899  14.715  18.900  0.00  0.00    +0.000 OA
ATOM     20  H   UNL     1       1.977  14.483  18.697  0.00  0.00    +0.000 HD
ENDBRANCH  18  19
ENDBRANCH  17  18
ENDBRANCH  16  17
ENDBRANCH   3  16
BRANCH   3  21
ATOM     21  C   UNL     1       0.325  10.627  20.326  0.00  0.00    +0.000 C 
BRANCH  21  22
ATOM     22  C   UNL     1       0.839   9.319  19.802  0.00  0.00    +0.000 A 
ATOM     23  C   UNL     1       1.137   9.109  18.470  0.00  0.00    +0.000 A 
ATOM     24  C   UNL     1       2.010   8.057  18.178  0.00  0.00    +0.000 A 
ATOM     25  C   UNL     1       3.264   8.257  17.576  0.00  0.00    +0.000 A 
ATOM     26  C   UNL     1       4.218   7.235  17.605  0.00  0.00    +0.000 A 
ATOM     27  C   UNL     1       3.811   5.936  17.920  0.00  0.00    +0.000 A 
ATOM     28  C   UNL     1       4.680   4.758  17.605  0.00  0.00    +0.000 C 
ATOM     29  C   UNL     1       2.518   5.788  18.426  0.00  0.00    +0.000 A 
ATOM     30  C   UNL     1       1.628   4.706  17.839  0.00  0.00    +0.000 C 
ATOM     31  C   UNL     1       1.912   6.928  18.954  0.00  0.00    +0.000 A 
ATOM     32  N   UNL     1       1.776   7.138  20.269  0.00  0.00    +0.000 NA
ATOM     33  C   UNL     1       1.376   8.367  20.658  0.00  0.00    +0.000 A 
BRANCH  33  34
ATOM     34  O   UNL     1       2.103   8.879  21.708  0.00  0.00    +0.000 OA
ATOM     35  H   UNL     1       2.806   8.201  21.782  0.00  0.00    +0.000 HD
ENDBRANCH  33  34
ENDBRANCH  21  22
ENDBRANCH   3  21
TORSDOF 11
ENDMDL
MODEL 8
REMARK VINA RESULT:      -6.4      1.643      3.057
REMARK  Name = 
REMARK  16 active torsions:
REMARK  status: ('A' for Active; 'I' for Inactive)
REMARK    1  A    between atoms: C_1  and  O_2
REMARK    2  A    between atoms: O_2  and  C_3
REMARK    3  A    between atoms: C_5  and  C_6
REMARK    4  A    between atoms: N_8  and  C_9
REMARK    5  A    between atoms: N_8  and  C_13
REMARK    6  A    between atoms: C_9  and  C_10
REMARK    7  A    between atoms: C_10  and  C_11
REMARK    8  A    between atoms: C_11  and  O_12
REMARK    9  A    between atoms: C_13  and  C_14
REMARK   10  A    between atoms: C_19  and  C_20
REMARK   11  A    between atoms: C_21  and  C_22
REMARK   12  A    between atoms: C_25  and  O_26
REMARK   13  A    between atoms: C_28  and  O_29
REMARK   14  A    between atoms: O_29  and  C_30
REMARK   15  A    between atoms: C_31  and  O_32
REMARK   16  A    between atoms: O_32  and  C_33
REMARK                            x       y       z     vdW  Elec       q    Type
REMARK                         _______ _______ _______ _____ _____    ______ ____
ROOT
ATOM      1  C   UNL     1       2.947   4.306  17.305  0.00  0.00    +0.000 C 
ATOM      2  O   UNL     1       2.353   3.334  16.846  0.00  0.00    +0.000 OA
ATOM      3  N   UNL     1       2.539   4.965  18.481  0.00  0.00    +0.000 N 
ENDROOT
BRANCH   1   6
ATOM      4  C   UNL     1       6.175   6.102  16.424  0.00  0.00    +0.000 A 
ATOM      5  C   UNL     1       4.911   5.857  16.978  0.00  0.00    +0.000 A 
ATOM      6  C   UNL     1       4.190   4.731  16.594  0.00  0.00    +0.000 A 
ATOM      7  C   UNL     1       4.623   4.003  15.484  0.00  0.00    +0.000 A 
ATOM      8  C   UNL     1       5.883   4.233  14.904  0.00  0.00    +0.000 A 
ATOM      9  C   UNL     1       6.710   5.248  15.434  0.00  0.00    +0.000 A 
BRANCH   4  11
ATOM     10  C   UNL     1       7.686   7.099  17.960  0.00  0.00    +0.000 C 
ATOM     11  O   UNL     1       6.914   7.208  16.769  0.00  0.00    +0.000 OA
ENDBRANCH   4  11
BRANCH   8  12
ATOM     12  O   UNL     1       6.120   3.394  13.852  0.00  0.00    +0.000 OA
ATOM     13  C   UNL     1       5.323   3.485  12.681  0.00  0.00    +0.000 C 
ENDBRANCH   8  12
BRANCH   9  14
ATOM     14  O   UNL     1       7.965   5.466  14.925  0.00  0.00    +0.000 OA
ATOM     15  C   UNL     1       7.985   5.682  13.505  0.00  0.00    +0.000 C 
ENDBRANCH   9  14
ENDBRANCH   1   6
BRANCH   3  16
ATOM     16  C   UNL     1       1.335   4.465  19.183  0.00  0.00    +0.000 C 
BRANCH  16  17
ATOM     17  C   UNL     1       1.677   3.693  20.458  0.00  0.00    +0.000 C 
BRANCH  17  18
ATOM     18  C   UNL     1       2.285   2.328  20.161  0.00  0.00    +0.000 C 
BRANCH  18  19
ATOM     19  O   UNL     1       1.532   1.682  19.139  0.00  0.00    +0.000 OA
ATOM     20  H   UNL     1       1.080   0.920  19.539  0.00  0.00    +0.000 HD
ENDBRANCH  18  19
ENDBRANCH  17  18
ENDBRANCH  16  17
ENDBRANCH   3  16
BRANCH   3  21
ATOM     21  C   UNL     1       3.280   6.036  19.174  0.00  0.00    +0.000 C 
BRANCH  21  22
ATOM     22  C   UNL     1       2.626   7.385  19.117  0.00  0.00    +0.000 A 
ATOM     23  C   UNL     1       2.293   8.009  17.931  0.00  0.00    +0.000 A 
ATOM     24  C   UNL     1       1.312   9.002  17.996  0.00  0.00    +0.000 A 
ATOM     25  C   UNL     1       0.079   8.895  17.329  0.00  0.00    +0.000 A 
ATOM     26  C   UNL     1      -0.976   9.741  17.682  0.00  0.00    +0.000 A 
ATOM     27  C   UNL     1      -0.704  10.887  18.434  0.00  0.00    +0.000 A 
ATOM     28  C   UNL     1      -1.695  12.006  18.521  0.00  0.00    +0.000 C 
ATOM     29  C   UNL     1       0.571  10.983  18.994  0.00  0.00    +0.000 A 
ATOM     30  C   UNL     1       1.337  12.285  18.838  0.00  0.00    +0.000 C 
ATOM     31  C   UNL     1       1.299   9.798  19.114  0.00  0.00    +0.000 A 
ATOM     32  N   UNL     1       1.470   9.164  20.280  0.00  0.00    +0.000 NA
ATOM     33  C   UNL     1       2.001   7.924  20.234  0.00  0.00    +0.000 A 
BRANCH  33  34
ATOM     34  O   UNL     1       1.343   7.010  21.025  0.00  0.00    +0.000 OA
ATOM     35  H   UNL     1       0.494   6.941  20.542  0.00  0.00    +0.000 HD
ENDBRANCH  33  34
ENDBRANCH  21  22
ENDBRANCH   3  21
TORSDOF 11
ENDMDL
MODEL 9
REMARK VINA RESULT:      -6.4      3.978      9.576
REMARK  Name = 
REMARK  16 active torsions:
REMARK  status: ('A' for Active; 'I' for Inactive)
REMARK    1  A    between atoms: C_1  and  O_2
REMARK    2  A    between atoms: O_2  and  C_3
REMARK    3  A    between atoms: C_5  and  C_6
REMARK    4  A    between atoms: N_8  and  C_9
REMARK    5  A    between atoms: N_8  and  C_13
REMARK    6  A    between atoms: C_9  and  C_10
REMARK    7  A    between atoms: C_10  and  C_11
REMARK    8  A    between atoms: C_11  and  O_12
REMARK    9  A    between atoms: C_13  and  C_14
REMARK   10  A    between atoms: C_19  and  C_20
REMARK   11  A    between atoms: C_21  and  C_22
REMARK   12  A    between atoms: C_25  and  O_26
REMARK   13  A    between atoms: C_28  and  O_29
REMARK   14  A    between atoms: O_29  and  C_30
REMARK   15  A    between atoms: C_31  and  O_32
REMARK   16  A    between atoms: O_32  and  C_33
REMARK                            x       y       z     vdW  Elec       q    Type
REMARK                         _______ _______ _______ _____ _____    ______ ____
ROOT
ATOM      1  C   UNL     1      -0.490  12.844  18.938  0.00  0.00    +0.000 C 
ATOM      2  O   UNL     1      -0.255  14.031  18.731  0.00  0.00    +0.000 OA
ATOM      3  N   UNL     1       0.479  11.948  19.430  0.00  0.00    +0.000 N 
ENDROOT
BRANCH   1   6
ATOM      4  C   UNL     1      -3.541  11.134  17.458  0.00  0.00    +0.000 A 
ATOM      5  C   UNL     1      -2.275  11.729  17.544  0.00  0.00    +0.000 A 
ATOM      6  C   UNL     1      -1.894  12.387  18.709  0.00  0.00    +0.000 A 
ATOM      7  C   UNL     1      -2.865  12.661  19.674  0.00  0.00    +0.000 A 
ATOM      8  C   UNL     1      -4.146  12.085  19.607  0.00  0.00    +0.000 A 
ATOM      9  C   UNL     1      -4.466  11.240  18.521  0.00  0.00    +0.000 A 
BRANCH   4  11
ATOM     10  C   UNL     1      -3.137  10.643  15.170  0.00  0.00    +0.000 C 
ATOM     11  O   UNL     1      -3.960  10.485  16.321  0.00  0.00    +0.000 OA
ENDBRANCH   4  11
BRANCH   8  12
ATOM     12  O   UNL     1      -4.929  12.459  20.663  0.00  0.00    +0.000 OA
ATOM     13  C   UNL     1      -5.577  13.721  20.649  0.00  0.00    +0.000 C 
ENDBRANCH   8  12
BRANCH   9  14
ATOM     14  O   UNL     1      -5.688  10.622  18.451  0.00  0.00    +0.000 OA
ATOM     15  C   UNL     1      -6.747  11.480  18.001  0.00  0.00    +0.000 C 
ENDBRANCH   9  14
ENDBRANCH   1   6
BRANCH   3  16
ATOM     16  C   UNL     1       1.839  12.464  19.699  0.00  0.00    +0.000 C 
BRANCH  16  17
ATOM     17  C   UNL     1       2.632  12.726  18.417  0.00  0.00    +0.000 C 
BRANCH  17  18
ATOM     18  C   UNL     1       3.229  14.127  18.383  0.00  0.00    +0.000 C 
BRANCH  18  19
ATOM     19  O   UNL     1       3.885  14.397  19.618  0.00  0.00    +0.000 OA
ATOM     20  H   UNL     1       4.814  14.124  19.527  0.00  0.00    +0.000 HD
ENDBRANCH  18  19
ENDBRANCH  17  18
ENDBRANCH  16  17
ENDBRANCH   3  16
BRANCH   3  21
ATOM     21  C   UNL     1       0.236  10.552  19.843  0.00  0.00    +0.000 C 
BRANCH  21  22
ATOM     22  C   UNL     1       1.210   9.557  19.285  0.00  0.00    +0.000 A 
ATOM     23  C   UNL     1       1.835   8.601  20.062  0.00  0.00    +0.000 A 
ATOM     24  C   UNL     1       2.338   7.480  19.396  0.00  0.00    +0.000 A 
ATOM     25  C   UNL     1       1.864   6.179  19.636  0.00  0.00    +0.000 A 
ATOM     26  C   UNL     1       2.160   5.155  18.730  0.00  0.00    +0.000 A 
ATOM     27  C   UNL     1       3.183   5.348  17.799  0.00  0.00    +0.000 A 
ATOM     28  C   UNL     1       3.793   4.190  17.073  0.00  0.00    +0.000 C 
ATOM     29  C   UNL     1       3.681   6.646  17.672  0.00  0.00    +0.000 A 
ATOM     30  C   UNL     1       5.186   6.850  17.669  0.00  0.00    +0.000 C 
ATOM     31  C   UNL     1       2.875   7.681  18.148  0.00  0.00    +0.000 A 
ATOM     32  N   UNL     1       2.181   8.493  17.341  0.00  0.00    +0.000 NA
ATOM     33  C   UNL     1       1.273   9.307  17.921  0.00  0.00    +0.000 A 
BRANCH  33  34
ATOM     34  O   UNL     1       0.060   9.336  17.271  0.00  0.00    +0.000 OA
ATOM     35  H   UNL     1      -0.423   8.646  17.772  0.00  0.00    +0.000 HD
ENDBRANCH  33  34
ENDBRANCH  21  22
ENDBRANCH   3  21
TORSDOF 11
ENDMDL
