MODEL 1
REMARK VINA RESULT:      -7.5      0.000      0.000
REMARK  Name = 
REMARK  5 active torsions:
REMARK  status: ('A' for Active; 'I' for Inactive)
REMARK    1  A    between atoms: C_1  and  C_2
REMARK    2  A    between atoms: C_5  and  C_6
REMARK    3  A    between atoms: C_11  and  N_12
REMARK    4  A    between atoms: C_14  and  C_15
REMARK    5  A    between atoms: C_15  and  O_16
REMARK                            x       y       z     vdW  Elec       q    Type
REMARK                         _______ _______ _______ _____ _____    ______ ____
ROOT
ATOM      1  C   UNL     1       2.899   6.795  18.474  0.00  0.00    +0.000 C 
ATOM      2  O   UNL     1       3.375   6.703  17.341  0.00  0.00    +0.000 OA
ATOM      3  N   UNL     1       2.160   7.914  18.854  0.00  0.00    +0.000 N 
ATOM      4  C   UNL     1       1.905   8.281  20.244  0.00  0.00    +0.000 C 
ATOM      5  C   UNL     1       0.529   8.916  20.390  0.00  0.00    +0.000 C 
ATOM      6  C   UNL     1       0.324  10.087  19.426  0.00  0.00    +0.000 C 
ATOM      7  C   UNL     1       0.696   9.706  17.987  0.00  0.00    +0.000 C 
ATOM      8  C   UNL     1       2.049   9.008  17.886  0.00  0.00    +0.000 C 
ENDROOT
BRANCH   1  13
ATOM      9  C   UNL     1       3.257   1.876  19.029  0.00  0.00    +0.000 C 
ATOM     10  C   UNL     1       3.148   3.021  18.018  0.00  0.00    +0.000 C 
ATOM     11  C   UNL     1       1.839   3.804  18.184  0.00  0.00    +0.000 C 
ATOM     12  C   UNL     1       1.821   4.706  19.419  0.00  0.00    +0.000 C 
ATOM     13  C   UNL     1       3.034   5.646  19.485  0.00  0.00    +0.000 C 
ATOM     14  C   UNL     1       4.346   4.871  19.314  0.00  0.00    +0.000 C 
ATOM     15  C   UNL     1       4.366   3.947  18.098  0.00  0.00    +0.000 C 
ENDBRANCH   1  13
BRANCH   6  16
ATOM     16  N   UNL     1       0.988  11.297  19.881  0.00  0.00    +0.000 N 
ATOM     17  C   UNL     1       1.548  12.272  19.115  0.00  0.00    +0.000 A 
ATOM     18  C   UNL     1       2.071  13.164  20.028  0.00  0.00    +0.000 A 
ATOM     19  N   UNL     1       1.804  12.708  21.290  0.00  0.00    +0.000 NA
ATOM     20  N   UNL     1       1.132  11.574  21.188  0.00  0.00    +0.000 NA
BRANCH  18  21
ATOM     21  C   UNL     1       2.882  14.386  19.784  0.00  0.00    +0.000 C 
ATOM     22  C   UNL     1       2.090  15.698  19.812  0.00  0.00    +0.000 C 
ATOM     23  C   UNL     1       3.009  16.707  19.126  0.00  0.00    +0.000 C 
ATOM     24  C   UNL     1       3.932  15.891  18.220  0.00  0.00    +0.000 C 
ATOM     25  C   UNL     1       3.504  14.434  18.387  0.00  0.00    +0.000 C 
BRANCH  21  26
ATOM     26  O   UNL     1       3.939  14.471  20.751  0.00  0.00    +0.000 OA
ATOM     27  H   UNL     1       4.309  13.573  20.821  0.00  0.00    +0.000 HD
ENDBRANCH  21  26
ENDBRANCH  18  21
ENDBRANCH   6  16
TORSDOF 4
ENDMDL
MODEL 2
REMARK VINA RESULT:      -7.3      5.187      6.007
REMARK  Name = 
REMARK  5 active torsions:
REMARK  status: ('A' for Active; 'I' for Inactive)
REMARK    1  A    between atoms: C_1  and  C_2
REMARK    2  A    between atoms: C_5  and  C_6
REMARK    3  A    between atoms: C_11  and  N_12
REMARK    4  A    between atoms: C_14  and  C_15
REMARK    5  A    between atoms: C_15  and  O_16
REMARK                            x       y       z     vdW  Elec       q    Type
REMARK                         _______ _______ _______ _____ _____    ______ ____
ROOT
ATOM      1  C   UNL     1       4.677   4.417  19.189  0.00  0.00    +0.000 C 
ATOM      2  O   UNL     1       5.161   3.427  19.741  0.00  0.00    +0.000 OA
ATOM      3  N   UNL     1       5.489   5.349  18.544  0.00  0.00    +0.000 N 
ATOM      4  C   UNL     1       5.062   6.707  18.220  0.00  0.00    +0.000 C 
ATOM      5  C   UNL     1       5.687   7.170  16.910  0.00  0.00    +0.000 C 
ATOM      6  C   UNL     1       7.209   7.016  16.907  0.00  0.00    +0.000 C 
ATOM      7  C   UNL     1       7.636   5.611  17.349  0.00  0.00    +0.000 C 
ATOM      8  C   UNL     1       6.938   5.150  18.625  0.00  0.00    +0.000 C 
ENDROOT
BRANCH   1  13
ATOM      9  C   UNL     1       0.272   2.156  18.853  0.00  0.00    +0.000 C 
ATOM     10  C   UNL     1       1.787   1.948  18.946  0.00  0.00    +0.000 C 
ATOM     11  C   UNL     1       2.520   2.567  17.747  0.00  0.00    +0.000 C 
ATOM     12  C   UNL     1       2.586   4.095  17.797  0.00  0.00    +0.000 C 
ATOM     13  C   UNL     1       3.157   4.622  19.122  0.00  0.00    +0.000 C 
ATOM     14  C   UNL     1       2.432   4.003  20.324  0.00  0.00    +0.000 C 
ATOM     15  C   UNL     1       2.338   2.479  20.272  0.00  0.00    +0.000 C 
ENDBRANCH   1  13
BRANCH   6  16
ATOM     16  N   UNL     1       7.871   8.072  17.656  0.00  0.00    +0.000 N 
ATOM     17  C   UNL     1       7.963   9.388  17.324  0.00  0.00    +0.000 A 
ATOM     18  C   UNL     1       8.719   9.941  18.337  0.00  0.00    +0.000 A 
ATOM     19  N   UNL     1       9.042   8.958  19.232  0.00  0.00    +0.000 NA
ATOM     20  N   UNL     1       8.509   7.823  18.811  0.00  0.00    +0.000 NA
BRANCH  18  21
ATOM     21  C   UNL     1       9.226  11.333  18.474  0.00  0.00    +0.000 C 
ATOM     22  C   UNL     1       8.447  12.382  17.674  0.00  0.00    +0.000 C 
ATOM     23  C   UNL     1       9.382  13.589  17.623  0.00  0.00    +0.000 C 
ATOM     24  C   UNL     1      10.796  13.035  17.804  0.00  0.00    +0.000 C 
ATOM     25  C   UNL     1      10.642  11.519  17.926  0.00  0.00    +0.000 C 
BRANCH  21  26
ATOM     26  O   UNL     1       9.223  11.719  19.856  0.00  0.00    +0.000 OA
ATOM     27  H   UNL     1      10.002  11.290  20.254  0.00  0.00    +0.000 HD
ENDBRANCH  21  26
ENDBRANCH  18  21
ENDBRANCH   6  16
TORSDOF 4
ENDMDL
MODEL 3
REMARK VINA RESULT:      -7.2      0.729      1.020
REMARK  Name = 
REMARK  5 active torsions:
REMARK  status: ('A' for Active; 'I' for Inactive)
REMARK    1  A    between atoms: C_1  and  C_2
REMARK    2  A    between atoms: C_5  and  C_6
REMARK    3  A    between atoms: C_11  and  N_12
REMARK    4  A    between atoms: C_14  and  C_15
REMARK    5  A    between atoms: C_15  and  O_16
REMARK                            x       y       z     vdW  Elec       q    Type
REMARK                         _______ _______ _______ _____ _____    ______ ____
ROOT
ATOM      1  C   UNL     1       2.947   6.751  18.448  0.00  0.00    +0.000 C 
ATOM      2  O   UNL     1       3.466   6.681  17.333  0.00  0.00    +0.000 OA
ATOM      3  N   UNL     1       2.189   7.861  18.820  0.00  0.00    +0.000 N 
ATOM      4  C   UNL     1       1.879   8.201  20.206  0.00  0.00    +0.000 C 
ATOM      5  C   UNL     1       0.495   8.828  20.309  0.00  0.00    +0.000 C 
ATOM      6  C   UNL     1       0.322  10.016  19.360  0.00  0.00    +0.000 C 
ATOM      7  C   UNL     1       0.750   9.662  17.929  0.00  0.00    +0.000 C 
ATOM      8  C   UNL     1       2.110   8.971  17.868  0.00  0.00    +0.000 C 
ENDROOT
BRANCH   1  13
ATOM      9  C   UNL     1       3.271   1.822  18.929  0.00  0.00    +0.000 C 
ATOM     10  C   UNL     1       3.197   2.985  17.935  0.00  0.00    +0.000 C 
ATOM     11  C   UNL     1       1.885   3.769  18.075  0.00  0.00    +0.000 C 
ATOM     12  C   UNL     1       1.834   4.651  19.325  0.00  0.00    +0.000 C 
ATOM     13  C   UNL     1       3.047   5.585  19.442  0.00  0.00    +0.000 C 
ATOM     14  C   UNL     1       4.362   4.808  19.297  0.00  0.00    +0.000 C 
ATOM     15  C   UNL     1       4.414   3.905  18.066  0.00  0.00    +0.000 C 
ENDBRANCH   1  13
BRANCH   6  16
ATOM     16  N   UNL     1       0.962  11.220  19.862  0.00  0.00    +0.000 N 
ATOM     17  C   UNL     1       1.587  12.188  19.138  0.00  0.00    +0.000 A 
ATOM     18  C   UNL     1       2.051  13.076  20.086  0.00  0.00    +0.000 A 
ATOM     19  N   UNL     1       1.687  12.625  21.326  0.00  0.00    +0.000 NA
ATOM     20  N   UNL     1       1.013  11.497  21.175  0.00  0.00    +0.000 NA
BRANCH  18  21
ATOM     21  C   UNL     1       2.890  14.290  19.901  0.00  0.00    +0.000 C 
ATOM     22  C   UNL     1       3.936  14.520  20.997  0.00  0.00    +0.000 C 
ATOM     23  C   UNL     1       4.340  15.984  20.831  0.00  0.00    +0.000 C 
ATOM     24  C   UNL     1       3.159  16.673  20.147  0.00  0.00    +0.000 C 
ATOM     25  C   UNL     1       2.093  15.594  19.961  0.00  0.00    +0.000 C 
BRANCH  21  26
ATOM     26  O   UNL     1       3.561  14.230  18.634  0.00  0.00    +0.000 OA
ATOM     27  H   UNL     1       4.414  14.682  18.764  0.00  0.00    +0.000 HD
ENDBRANCH  21  26
ENDBRANCH  18  21
ENDBRANCH   6  16
TORSDOF 4
ENDMDL
MODEL 4
REMARK VINA RESULT:      -7.1      0.978      1.017
REMARK  Name = 
REMARK  5 active torsions:
REMARK  status: ('A' for Active; 'I' for Inactive)
REMARK    1  A    between atoms: C_1  and  C_2
REMARK    2  A    between atoms: C_5  and  C_6
REMARK    3  A    between atoms: C_11  and  N_12
REMARK    4  A    between atoms: C_14  and  C_15
REMARK    5  A    between atoms: C_15  and  O_16
REMARK                            x       y       z     vdW  Elec       q    Type
REMARK                         _______ _______ _______ _____ _____    ______ ____
ROOT
ATOM      1  C   UNL     1       2.735   7.376  18.543  0.00  0.00    +0.000 C 
ATOM      2  O   UNL     1       3.249   7.485  17.429  0.00  0.00    +0.000 OA
ATOM      3  N   UNL     1       1.846   8.336  19.023  0.00  0.00    +0.000 N 
ATOM      4  C   UNL     1       1.508   8.494  20.435  0.00  0.00    +0.000 C 
ATOM      5  C   UNL     1       0.057   8.925  20.596  0.00  0.00    +0.000 C 
ATOM      6  C   UNL     1      -0.275  10.170  19.771  0.00  0.00    +0.000 C 
ATOM      7  C   UNL     1       0.182  10.020  18.314  0.00  0.00    +0.000 C 
ATOM      8  C   UNL     1       1.617   9.517  18.188  0.00  0.00    +0.000 C 
ENDROOT
BRANCH   1  13
ATOM      9  C   UNL     1       3.484   2.469  18.536  0.00  0.00    +0.000 C 
ATOM     10  C   UNL     1       3.252   3.706  17.663  0.00  0.00    +0.000 C 
ATOM     11  C   UNL     1       1.894   4.359  17.951  0.00  0.00    +0.000 C 
ATOM     12  C   UNL     1       1.853   5.118  19.279  0.00  0.00    +0.000 C 
ATOM     13  C   UNL     1       2.993   6.138  19.416  0.00  0.00    +0.000 C 
ATOM     14  C   UNL     1       4.353   5.492  19.123  0.00  0.00    +0.000 C 
ATOM     15  C   UNL     1       4.398   4.711  17.811  0.00  0.00    +0.000 C 
ENDBRANCH   1  13
BRANCH   6  16
ATOM     16  N   UNL     1       0.212  11.390  20.394  0.00  0.00    +0.000 N 
ATOM     17  C   UNL     1       1.102  12.283  19.881  0.00  0.00    +0.000 A 
ATOM     18  C   UNL     1       1.249  13.226  20.878  0.00  0.00    +0.000 A 
ATOM     19  N   UNL     1       0.450  12.879  21.932  0.00  0.00    +0.000 NA
ATOM     20  N   UNL     1      -0.187  11.763  21.621  0.00  0.00    +0.000 NA
BRANCH  18  21
ATOM     21  C   UNL     1       2.163  14.398  20.929  0.00  0.00    +0.000 C 
ATOM     22  C   UNL     1       1.532  15.723  20.488  0.00  0.00    +0.000 C 
ATOM     23  C   UNL     1       2.726  16.636  20.213  0.00  0.00    +0.000 C 
ATOM     24  C   UNL     1       3.901  15.710  19.896  0.00  0.00    +0.000 C 
ATOM     25  C   UNL     1       3.348  14.288  19.969  0.00  0.00    +0.000 C 
BRANCH  21  26
ATOM     26  O   UNL     1       2.675  14.558  22.260  0.00  0.00    +0.000 OA
ATOM     27  H   UNL     1       2.026  14.133  22.848  0.00  0.00    +0.000 HD
ENDBRANCH  21  26
ENDBRANCH  18  21
ENDBRANCH   6  16
TORSDOF 4
ENDMDL
MODEL 5
REMARK VINA RESULT:      -6.9      5.196      5.948
REMARK  Name = 
REMARK  5 active torsions:
REMARK  status: ('A' for Active; 'I' for Inactive)
REMARK    1  A    between atoms: C_1  and  C_2
REMARK    2  A    between atoms: C_5  and  C_6
REMARK    3  A    between atoms: C_11  and  N_12
REMARK    4  A    between atoms: C_14  and  C_15
REMARK    5  A    between atoms: C_15  and  O_16
REMARK                            x       y       z     vdW  Elec       q    Type
REMARK                         _______ _______ _______ _____ _____    ______ ____
ROOT
ATOM      1  C   UNL     1       4.627   4.463  19.274  0.00  0.00    +0.000 C 
ATOM      2  O   UNL     1       5.088   3.499  19.887  0.00  0.00    +0.000 OA
ATOM      3  N   UNL     1       5.463   5.358  18.607  0.00  0.00    +0.000 N 
ATOM      4  C   UNL     1       5.055   6.701  18.205  0.00  0.00    +0.000 C 
ATOM      5  C   UNL     1       5.719   7.095  16.893  0.00  0.00    +0.000 C 
ATOM      6  C   UNL     1       7.240   6.932  16.940  0.00  0.00    +0.000 C 
ATOM      7  C   UNL     1       7.645   5.548  17.463  0.00  0.00    +0.000 C 
ATOM      8  C   UNL     1       6.907   5.154  18.739  0.00  0.00    +0.000 C 
ENDROOT
BRANCH   1  13
ATOM      9  C   UNL     1       0.220   2.214  18.886  0.00  0.00    +0.000 C 
ATOM     10  C   UNL     1       1.730   2.002  19.032  0.00  0.00    +0.000 C 
ATOM     11  C   UNL     1       2.502   2.573  17.835  0.00  0.00    +0.000 C 
ATOM     12  C   UNL     1       2.576   4.101  17.832  0.00  0.00    +0.000 C 
ATOM     13  C   UNL     1       3.110   4.673  19.154  0.00  0.00    +0.000 C 
ATOM     14  C   UNL     1       2.346   4.102  20.354  0.00  0.00    +0.000 C 
ATOM     15  C   UNL     1       2.245   2.577  20.355  0.00  0.00    +0.000 C 
ENDBRANCH   1  13
BRANCH   6  16
ATOM     16  N   UNL     1       7.888   8.020  17.654  0.00  0.00    +0.000 N 
ATOM     17  C   UNL     1       7.986   9.321  17.269  0.00  0.00    +0.000 A 
ATOM     18  C   UNL     1       8.723   9.918  18.271  0.00  0.00    +0.000 A 
ATOM     19  N   UNL     1       9.030   8.974  19.212  0.00  0.00    +0.000 NA
ATOM     20  N   UNL     1       8.506   7.822  18.831  0.00  0.00    +0.000 NA
BRANCH  18  21
ATOM     21  C   UNL     1       9.227  11.314  18.357  0.00  0.00    +0.000 C 
ATOM     22  C   UNL     1       9.312  11.880  19.778  0.00  0.00    +0.000 C 
ATOM     23  C   UNL     1       9.420  13.391  19.577  0.00  0.00    +0.000 C 
ATOM     24  C   UNL     1       8.792  13.681  18.214  0.00  0.00    +0.000 C 
ATOM     25  C   UNL     1       8.313  12.333  17.675  0.00  0.00    +0.000 C 
BRANCH  21  26
ATOM     26  O   UNL     1      10.527  11.401  17.754  0.00  0.00    +0.000 OA
ATOM     27  H   UNL     1      11.153  11.535  18.488  0.00  0.00    +0.000 HD
ENDBRANCH  21  26
ENDBRANCH  18  21
ENDBRANCH   6  16
TORSDOF 4
ENDMDL
MODEL 6
REMARK VINA RESULT:      -6.9      3.720      5.287
REMARK  Name = 
REMARK  5 active torsions:
REMARK  status: ('A' for Active; 'I' for Inactive)
REMARK    1  A    between atoms: C_1  and  C_2
REMARK    2  A    between atoms: C_5  and  C_6
REMARK    3  A    between atoms: C_11  and  N_12
REMARK    4  A    between atoms: C_14  and  C_15
REMARK    5  A    between atoms: C_15  and  O_16
REMARK                            x       y       z     vdW  Elec       q    Type
REMARK                         _______ _______ _______ _____ _____    ______ ____
ROOT
ATOM      1  C   UNL     1       2.214   6.941  19.905  0.00  0.00    +0.000 C 
ATOM      2  O   UNL     1       1.991   6.410  20.994  0.00  0.00    +0.000 OA
ATOM      3  N   UNL     1       1.603   8.144  19.553  0.00  0.00    +0.000 N 
ATOM      4  C   UNL     1       1.500   8.628  18.180  0.00  0.00    +0.000 C 
ATOM      5  C   UNL     1       1.598  10.147  18.134  0.00  0.00    +0.000 C 
ATOM      6  C   UNL     1       0.595  10.822  19.072  0.00  0.00    +0.000 C 
ATOM      7  C   UNL     1       0.653  10.227  20.485  0.00  0.00    +0.000 C 
ATOM      8  C   UNL     1       0.624   8.701  20.490  0.00  0.00    +0.000 C 
ENDROOT
BRANCH   1  13
ATOM      9  C   UNL     1       3.769   2.786  17.681  0.00  0.00    +0.000 C 
ATOM     10  C   UNL     1       2.735   3.387  18.638  0.00  0.00    +0.000 C 
ATOM     11  C   UNL     1       3.397   3.982  19.888  0.00  0.00    +0.000 C 
ATOM     12  C   UNL     1       4.124   5.302  19.623  0.00  0.00    +0.000 C 
ATOM     13  C   UNL     1       3.234   6.341  18.926  0.00  0.00    +0.000 C 
ATOM     14  C   UNL     1       2.565   5.751  17.678  0.00  0.00    +0.000 C 
ATOM     15  C   UNL     1       1.856   4.420  17.927  0.00  0.00    +0.000 C 
ENDBRANCH   1  13
BRANCH   6  16
ATOM     16  N   UNL     1      -0.749  10.841  18.520  0.00  0.00    +0.000 N 
ATOM     17  C   UNL     1      -1.810  11.575  18.951  0.00  0.00    +0.000 A 
ATOM     18  C   UNL     1      -2.845  11.197  18.120  0.00  0.00    +0.000 A 
ATOM     19  N   UNL     1      -2.376  10.272  17.227  0.00  0.00    +0.000 NA
ATOM     20  N   UNL     1      -1.093  10.071  17.474  0.00  0.00    +0.000 NA
BRANCH  18  21
ATOM     21  C   UNL     1      -4.277  11.597  18.166  0.00  0.00    +0.000 C 
ATOM     22  C   UNL     1      -4.686  12.375  19.422  0.00  0.00    +0.000 C 
ATOM     23  C   UNL     1      -6.211  12.282  19.442  0.00  0.00    +0.000 C 
ATOM     24  C   UNL     1      -6.568  11.024  18.649  0.00  0.00    +0.000 C 
ATOM     25  C   UNL     1      -5.238  10.409  18.214  0.00  0.00    +0.000 C 
BRANCH  21  26
ATOM     26  O   UNL     1      -4.598  12.391  17.014  0.00  0.00    +0.000 OA
ATOM     27  H   UNL     1      -5.462  12.067  16.700  0.00  0.00    +0.000 HD
ENDBRANCH  21  26
ENDBRANCH  18  21
ENDBRANCH   6  16
TORSDOF 4
ENDMDL
MODEL 7
REMARK VINA RESULT:      -6.9      5.115      6.144
REMARK  Name = 
REMARK  5 active torsions:
REMARK  status: ('A' for Active; 'I' for Inactive)
REMARK    1  A    between atoms: C_1  and  C_2
REMARK    2  A    between atoms: C_5  and  C_6
REMARK    3  A    between atoms: C_11  and  N_12
REMARK    4  A    between atoms: C_14  and  C_15
REMARK    5  A    between atoms: C_15  and  O_16
REMARK                            x       y       z     vdW  Elec       q    Type
REMARK                         _______ _______ _______ _____ _____    ______ ____
ROOT
ATOM      1  C   UNL     1       4.404   4.904  19.380  0.00  0.00    +0.000 C 
ATOM      2  O   UNL     1       4.649   4.260  20.401  0.00  0.00    +0.000 OA
ATOM      3  N   UNL     1       5.397   5.647  18.743  0.00  0.00    +0.000 N 
ATOM      4  C   UNL     1       5.120   6.720  17.793  0.00  0.00    +0.000 C 
ATOM      5  C   UNL     1       6.184   6.765  16.705  0.00  0.00    +0.000 C 
ATOM      6  C   UNL     1       7.600   6.840  17.281  0.00  0.00    +0.000 C 
ATOM      7  C   UNL     1       7.833   5.766  18.351  0.00  0.00    +0.000 C 
ATOM      8  C   UNL     1       6.712   5.700  19.384  0.00  0.00    +0.000 C 
ENDROOT
BRANCH   1  13
ATOM      9  C   UNL     1       0.318   2.167  18.708  0.00  0.00    +0.000 C 
ATOM     10  C   UNL     1       1.691   2.230  19.383  0.00  0.00    +0.000 C 
ATOM     11  C   UNL     1       2.826   2.331  18.356  0.00  0.00    +0.000 C 
ATOM     12  C   UNL     1       2.932   3.709  17.700  0.00  0.00    +0.000 C 
ATOM     13  C   UNL     1       3.016   4.850  18.724  0.00  0.00    +0.000 C 
ATOM     14  C   UNL     1       1.887   4.751  19.758  0.00  0.00    +0.000 C 
ATOM     15  C   UNL     1       1.756   3.372  20.402  0.00  0.00    +0.000 C 
ENDBRANCH   1  13
BRANCH   6  16
ATOM     16  N   UNL     1       7.938   8.178  17.739  0.00  0.00    +0.000 N 
ATOM     17  C   UNL     1       8.841   8.521  18.697  0.00  0.00    +0.000 A 
ATOM     18  C   UNL     1       8.749   9.896  18.774  0.00  0.00    +0.000 A 
ATOM     19  N   UNL     1       7.816  10.325  17.869  0.00  0.00    +0.000 NA
ATOM     20  N   UNL     1       7.337   9.269  17.235  0.00  0.00    +0.000 NA
BRANCH  18  21
ATOM     21  C   UNL     1       9.431  10.829  19.710  0.00  0.00    +0.000 C 
ATOM     22  C   UNL     1       8.907  12.268  19.677  0.00  0.00    +0.000 C 
ATOM     23  C   UNL     1      10.006  13.085  20.356  0.00  0.00    +0.000 C 
ATOM     24  C   UNL     1      11.295  12.281  20.187  0.00  0.00    +0.000 C 
ATOM     25  C   UNL     1      10.913  11.034  19.390  0.00  0.00    +0.000 C 
BRANCH  21  26
ATOM     26  O   UNL     1       9.325  10.335  21.054  0.00  0.00    +0.000 OA
ATOM     27  H   UNL     1      10.197   9.959  21.269  0.00  0.00    +0.000 HD
ENDBRANCH  21  26
ENDBRANCH  18  21
ENDBRANCH   6  16
TORSDOF 4
ENDMDL
MODEL 8
REMARK VINA RESULT:      -6.8      3.480      4.647
REMARK  Name = 
REMARK  5 active torsions:
REMARK  status: ('A' for Active; 'I' for Inactive)
REMARK    1  A    between atoms: C_1  and  C_2
REMARK    2  A    between atoms: C_5  and  C_6
REMARK    3  A    between atoms: C_11  and  N_12
REMARK    4  A    between atoms: C_14  and  C_15
REMARK    5  A    between atoms: C_15  and  O_16
REMARK                            x       y       z     vdW  Elec       q    Type
REMARK                         _______ _______ _______ _____ _____    ______ ____
ROOT
ATOM      1  C   UNL     1       2.196   5.555  20.087  0.00  0.00    +0.000 C 
ATOM      2  O   UNL     1       1.850   4.885  21.061  0.00  0.00    +0.000 OA
ATOM      3  N   UNL     1       1.892   6.914  20.004  0.00  0.00    +0.000 N 
ATOM      4  C   UNL     1       1.910   7.673  18.757  0.00  0.00    +0.000 C 
ATOM      5  C   UNL     1       2.371   9.103  19.004  0.00  0.00    +0.000 C 
ATOM      6  C   UNL     1       1.558   9.794  20.101  0.00  0.00    +0.000 C 
ATOM      7  C   UNL     1       1.469   8.932  21.366  0.00  0.00    +0.000 C 
ATOM      8  C   UNL     1       1.075   7.487  21.076  0.00  0.00    +0.000 C 
ENDROOT
BRANCH   1  13
ATOM      9  C   UNL     1       3.685   1.329  17.955  0.00  0.00    +0.000 C 
ATOM     10  C   UNL     1       2.820   1.941  19.060  0.00  0.00    +0.000 C 
ATOM     11  C   UNL     1       3.664   2.727  20.073  0.00  0.00    +0.000 C 
ATOM     12  C   UNL     1       4.169   4.067  19.534  0.00  0.00    +0.000 C 
ATOM     13  C   UNL     1       3.043   4.940  18.963  0.00  0.00    +0.000 C 
ATOM     14  C   UNL     1       2.192   4.159  17.954  0.00  0.00    +0.000 C 
ATOM     15  C   UNL     1       1.702   2.808  18.473  0.00  0.00    +0.000 C 
ENDBRANCH   1  13
BRANCH   6  16
ATOM     16  N   UNL     1       0.258  10.240  19.626  0.00  0.00    +0.000 N 
ATOM     17  C   UNL     1      -0.197  10.244  18.344  0.00  0.00    +0.000 A 
ATOM     18  C   UNL     1      -1.458  10.796  18.433  0.00  0.00    +0.000 A 
ATOM     19  N   UNL     1      -1.717  11.091  19.743  0.00  0.00    +0.000 NA
ATOM     20  N   UNL     1      -0.666  10.737  20.463  0.00  0.00    +0.000 NA
BRANCH  18  21
ATOM     21  C   UNL     1      -2.409  11.138  17.342  0.00  0.00    +0.000 C 
ATOM     22  C   UNL     1      -3.813  11.533  17.814  0.00  0.00    +0.000 C 
ATOM     23  C   UNL     1      -4.681  11.406  16.563  0.00  0.00    +0.000 C 
ATOM     24  C   UNL     1      -3.967  10.407  15.652  0.00  0.00    +0.000 C 
ATOM     25  C   UNL     1      -2.718   9.962  16.414  0.00  0.00    +0.000 C 
BRANCH  21  26
ATOM     26  O   UNL     1      -1.877  12.210  16.549  0.00  0.00    +0.000 OA
ATOM     27  H   UNL     1      -2.578  12.884  16.508  0.00  0.00    +0.000 HD
ENDBRANCH  21  26
ENDBRANCH  18  21
ENDBRANCH   6  16
TORSDOF 4
ENDMDL
MODEL 9
REMARK VINA RESULT:      -6.7      2.420      2.886
REMARK  Name = 
REMARK  5 active torsions:
REMARK  status: ('A' for Active; 'I' for Inactive)
REMARK    1  A    between atoms: C_1  and  C_2
REMARK    2  A    between atoms: C_5  and  C_6
REMARK    3  A    between atoms: C_11  and  N_12
REMARK    4  A    between atoms: C_14  and  C_15
REMARK    5  A    between atoms: C_15  and  O_16
REMARK                            x       y       z     vdW  Elec       q    Type
REMARK                         _______ _______ _______ _____ _____    ______ ____
ROOT
ATOM      1  C   UNL     1       2.583   7.570  18.635  0.00  0.00    +0.000 C 
ATOM      2  O   UNL     1       3.011   7.763  17.496  0.00  0.00    +0.000 OA
ATOM      3  N   UNL     1       1.661   8.442  19.214  0.00  0.00    +0.000 N 
ATOM      4  C   UNL     1       1.409   8.515  20.651  0.00  0.00    +0.000 C 
ATOM      5  C   UNL     1      -0.055   8.831  20.925  0.00  0.00    +0.000 C 
ATOM      6  C   UNL     1      -0.529  10.081  20.180  0.00  0.00    +0.000 C 
ATOM      7  C   UNL     1      -0.162  10.025  18.692  0.00  0.00    +0.000 C 
ATOM      8  C   UNL     1       1.294   9.636  18.451  0.00  0.00    +0.000 C 
ENDROOT
BRANCH   1  13
ATOM      9  C   UNL     1       3.579   2.715  18.368  0.00  0.00    +0.000 C 
ATOM     10  C   UNL     1       3.202   3.966  17.569  0.00  0.00    +0.000 C 
ATOM     11  C   UNL     1       1.846   4.533  18.008  0.00  0.00    +0.000 C 
ATOM     12  C   UNL     1       1.892   5.244  19.362  0.00  0.00    +0.000 C 
ATOM     13  C   UNL     1       2.986   6.320  19.431  0.00  0.00    +0.000 C 
ATOM     14  C   UNL     1       4.343   5.760  18.988  0.00  0.00    +0.000 C 
ATOM     15  C   UNL     1       4.303   5.027  17.648  0.00  0.00    +0.000 C 
ENDBRANCH   1  13
BRANCH   6  16
ATOM     16  N   UNL     1      -0.089  11.307  20.826  0.00  0.00    +0.000 N 
ATOM     17  C   UNL     1      -0.867  12.257  21.413  0.00  0.00    +0.000 A 
ATOM     18  C   UNL     1       0.030  13.219  21.830  0.00  0.00    +0.000 A 
ATOM     19  N   UNL     1       1.294  12.818  21.494  0.00  0.00    +0.000 NA
ATOM     20  N   UNL     1       1.209  11.644  20.892  0.00  0.00    +0.000 NA
BRANCH  18  21
ATOM     21  C   UNL     1      -0.240  14.540  22.459  0.00  0.00    +0.000 C 
ATOM     22  C   UNL     1      -1.144  14.490  23.695  0.00  0.00    +0.000 C 
ATOM     23  C   UNL     1      -1.611  15.933  23.879  0.00  0.00    +0.000 C 
ATOM     24  C   UNL     1      -1.510  16.589  22.501  0.00  0.00    +0.000 C 
ATOM     25  C   UNL     1      -1.013  15.498  21.552  0.00  0.00    +0.000 C 
BRANCH  21  26
ATOM     26  O   UNL     1       0.999  15.166  22.826  0.00  0.00    +0.000 OA
ATOM     27  H   UNL     1       0.778  15.797  23.535  0.00  0.00    +0.000 HD
ENDBRANCH  21  26
ENDBRANCH  18  21
ENDBRANCH   6  16
TORSDOF 4
ENDMDL
