MODEL 1
REMARK VINA RESULT:      -6.7      0.000      0.000
REMARK  Name = 
REMARK  5 active torsions:
REMARK  status: ('A' for Active; 'I' for Inactive)
REMARK    1  A    between atoms: C_1  and  O_2
REMARK    2  A    between atoms: O_2  and  C_3
REMARK    3  A    between atoms: C_6  and  S_7
REMARK    4  A    between atoms: S_7  and  N_10
REMARK    5  A    between atoms: C_12  and  C_13
REMARK                            x       y       z     vdW  Elec       q    Type
REMARK                         _______ _______ _______ _____ _____    ______ ____
ROOT
ATOM      1  N   UNL     1       4.896   5.643  17.962  0.00  0.00    +0.000 NA
ATOM      2  C   UNL     1       4.973   5.051  19.313  0.00  0.00    +0.000 C 
ATOM      3  C   UNL     1       3.520   5.169  19.822  0.00  0.00    +0.000 C 
ATOM      4  C   UNL     1       2.677   3.967  19.385  0.00  0.00    +0.000 C 
ATOM      5  N   UNL     1       3.042   6.398  19.181  0.00  0.00    +0.000 N 
ATOM      6  C   UNL     1       2.102   7.212  19.756  0.00  0.00    +0.000 C 
ATOM      7  O   UNL     1       1.646   6.912  20.864  0.00  0.00    +0.000 OA
ATOM      8  N   UNL     1       1.684   8.369  19.116  0.00  0.00    +0.000 N 
ATOM      9  C   UNL     1       1.947   8.888  17.765  0.00  0.00    +0.000 C 
ATOM     10  C   UNL     1       2.559  10.286  17.856  0.00  0.00    +0.000 C 
ATOM     11  O   UNL     1       1.643  11.175  18.504  0.00  0.00    +0.000 OA
ATOM     12  C   UNL     1       1.334  10.712  19.832  0.00  0.00    +0.000 C 
ATOM     13  C   UNL     1       0.773   9.278  19.831  0.00  0.00    +0.000 C 
ATOM     14  C   UNL     1       3.845   6.656  18.027  0.00  0.00    +0.000 C 
ENDROOT
BRANCH   1  15
ATOM     15  S   UNL     1       6.265   6.221  17.180  0.00  0.00    +0.000 S 
ATOM     16  O   UNL     1       7.412   5.845  17.978  0.00  0.00    +0.000 OA
ATOM     17  O   UNL     1       6.017   7.613  16.848  0.00  0.00    +0.000 OA
BRANCH  15  21
ATOM     18  C   UNL     1       6.280   3.874  13.302  0.00  0.00    +0.000 A 
ATOM     19  C   UNL     1       5.287   3.646  14.261  0.00  0.00    +0.000 A 
ATOM     20  C   UNL     1       5.277   4.373  15.450  0.00  0.00    +0.000 A 
ATOM     21  C   UNL     1       6.284   5.310  15.677  0.00  0.00    +0.000 A 
ATOM     22  C   UNL     1       7.291   5.536  14.743  0.00  0.00    +0.000 A 
ATOM     23  C   UNL     1       7.287   4.811  13.549  0.00  0.00    +0.000 A 
BRANCH  18  25
ATOM     24  C   UNL     1       4.881   2.983  11.627  0.00  0.00    +0.000 C 
ATOM     25  O   UNL     1       6.187   3.095  12.183  0.00  0.00    +0.000 OA
ENDBRANCH  18  25
ENDBRANCH  15  21
ENDBRANCH   1  15
TORSDOF 3
ENDMDL
MODEL 2
REMARK VINA RESULT:      -6.7      5.159      8.215
REMARK  Name = 
REMARK  5 active torsions:
REMARK  status: ('A' for Active; 'I' for Inactive)
REMARK    1  A    between atoms: C_1  and  O_2
REMARK    2  A    between atoms: O_2  and  C_3
REMARK    3  A    between atoms: C_6  and  S_7
REMARK    4  A    between atoms: S_7  and  N_10
REMARK    5  A    between atoms: C_12  and  C_13
REMARK                            x       y       z     vdW  Elec       q    Type
REMARK                         _______ _______ _______ _____ _____    ______ ____
ROOT
ATOM      1  N   UNL     1      -1.054  11.186  18.552  0.00  0.00    +0.000 NA
ATOM      2  C   UNL     1      -1.499   9.952  17.872  0.00  0.00    +0.000 C 
ATOM      3  C   UNL     1      -2.882  10.350  17.314  0.00  0.00    +0.000 C 
ATOM      4  C   UNL     1      -2.757  11.016  15.940  0.00  0.00    +0.000 C 
ATOM      5  N   UNL     1      -3.382  11.303  18.309  0.00  0.00    +0.000 N 
ATOM      6  C   UNL     1      -4.716  11.455  18.580  0.00  0.00    +0.000 C 
ATOM      7  O   UNL     1      -5.535  10.754  17.976  0.00  0.00    +0.000 OA
ATOM      8  N   UNL     1      -5.143  12.365  19.535  0.00  0.00    +0.000 N 
ATOM      9  C   UNL     1      -4.422  13.401  20.289  0.00  0.00    +0.000 C 
ATOM     10  C   UNL     1      -4.604  13.173  21.790  0.00  0.00    +0.000 C 
ATOM     11  O   UNL     1      -5.992  13.261  22.128  0.00  0.00    +0.000 OA
ATOM     12  C   UNL     1      -6.757  12.277  21.409  0.00  0.00    +0.000 C 
ATOM     13  C   UNL     1      -6.573  12.398  19.885  0.00  0.00    +0.000 C 
ATOM     14  C   UNL     1      -2.269  11.845  19.024  0.00  0.00    +0.000 C 
ENDROOT
BRANCH   1  15
ATOM     15  S   UNL     1       0.132  11.152  19.740  0.00  0.00    +0.000 S 
ATOM     16  O   UNL     1      -0.529  10.934  21.008  0.00  0.00    +0.000 OA
ATOM     17  O   UNL     1       0.981  12.314  19.537  0.00  0.00    +0.000 OA
BRANCH  15  21
ATOM     18  C   UNL     1       2.539   7.456  18.691  0.00  0.00    +0.000 A 
ATOM     19  C   UNL     1       1.950   7.580  19.955  0.00  0.00    +0.000 A 
ATOM     20  C   UNL     1       1.202   8.712  20.275  0.00  0.00    +0.000 A 
ATOM     21  C   UNL     1       1.074   9.727  19.327  0.00  0.00    +0.000 A 
ATOM     22  C   UNL     1       1.670   9.630  18.072  0.00  0.00    +0.000 A 
ATOM     23  C   UNL     1       2.407   8.486  17.756  0.00  0.00    +0.000 A 
BRANCH  18  25
ATOM     24  C   UNL     1       3.286   5.420  19.615  0.00  0.00    +0.000 C 
ATOM     25  O   UNL     1       3.251   6.306  18.501  0.00  0.00    +0.000 OA
ENDBRANCH  18  25
ENDBRANCH  15  21
ENDBRANCH   1  15
TORSDOF 3
ENDMDL
MODEL 3
REMARK VINA RESULT:      -6.7      5.243      8.290
REMARK  Name = 
REMARK  5 active torsions:
REMARK  status: ('A' for Active; 'I' for Inactive)
REMARK    1  A    between atoms: C_1  and  O_2
REMARK    2  A    between atoms: O_2  and  C_3
REMARK    3  A    between atoms: C_6  and  S_7
REMARK    4  A    between atoms: S_7  and  N_10
REMARK    5  A    between atoms: C_12  and  C_13
REMARK                            x       y       z     vdW  Elec       q    Type
REMARK                         _______ _______ _______ _____ _____    ______ ____
ROOT
ATOM      1  N   UNL     1      -1.145  11.246  18.588  0.00  0.00    +0.000 NA
ATOM      2  C   UNL     1      -1.552  10.017  17.877  0.00  0.00    +0.000 C 
ATOM      3  C   UNL     1      -2.933  10.397  17.301  0.00  0.00    +0.000 C 
ATOM      4  C   UNL     1      -2.797  11.092  15.942  0.00  0.00    +0.000 C 
ATOM      5  N   UNL     1      -3.470  11.320  18.305  0.00  0.00    +0.000 N 
ATOM      6  C   UNL     1      -4.811  11.439  18.554  0.00  0.00    +0.000 C 
ATOM      7  O   UNL     1      -5.604  10.734  17.922  0.00  0.00    +0.000 OA
ATOM      8  N   UNL     1      -5.275  12.322  19.518  0.00  0.00    +0.000 N 
ATOM      9  C   UNL     1      -4.588  13.357  20.305  0.00  0.00    +0.000 C 
ATOM     10  C   UNL     1      -4.792  13.097  21.798  0.00  0.00    +0.000 C 
ATOM     11  O   UNL     1      -6.188  13.150  22.113  0.00  0.00    +0.000 OA
ATOM     12  C   UNL     1      -6.919  12.164  21.361  0.00  0.00    +0.000 C 
ATOM     13  C   UNL     1      -6.711  12.318  19.843  0.00  0.00    +0.000 C 
ATOM     14  C   UNL     1      -2.381  11.871  19.051  0.00  0.00    +0.000 C 
ENDROOT
BRANCH   1  15
ATOM     15  S   UNL     1       0.021  11.213  19.797  0.00  0.00    +0.000 S 
ATOM     16  O   UNL     1      -0.662  10.992  21.053  0.00  0.00    +0.000 OA
ATOM     17  O   UNL     1       0.871  12.376  19.609  0.00  0.00    +0.000 OA
BRANCH  15  21
ATOM     18  C   UNL     1       2.496   7.561  18.754  0.00  0.00    +0.000 A 
ATOM     19  C   UNL     1       2.314   8.582  17.814  0.00  0.00    +0.000 A 
ATOM     20  C   UNL     1       1.560   9.709  18.137  0.00  0.00    +0.000 A 
ATOM     21  C   UNL     1       0.972   9.790  19.399  0.00  0.00    +0.000 A 
ATOM     22  C   UNL     1       1.127   8.775  20.340  0.00  0.00    +0.000 A 
ATOM     23  C   UNL     1       1.894   7.654  20.011  0.00  0.00    +0.000 A 
BRANCH  18  25
ATOM     24  C   UNL     1       4.231   6.825  17.338  0.00  0.00    +0.000 C 
ATOM     25  O   UNL     1       3.248   6.508  18.318  0.00  0.00    +0.000 OA
ENDBRANCH  18  25
ENDBRANCH  15  21
ENDBRANCH   1  15
TORSDOF 3
ENDMDL
MODEL 4
REMARK VINA RESULT:      -6.6      1.411      1.678
REMARK  Name = 
REMARK  5 active torsions:
REMARK  status: ('A' for Active; 'I' for Inactive)
REMARK    1  A    between atoms: C_1  and  O_2
REMARK    2  A    between atoms: O_2  and  C_3
REMARK    3  A    between atoms: C_6  and  S_7
REMARK    4  A    between atoms: S_7  and  N_10
REMARK    5  A    between atoms: C_12  and  C_13
REMARK                            x       y       z     vdW  Elec       q    Type
REMARK                         _______ _______ _______ _____ _____    ______ ____
ROOT
ATOM      1  N   UNL     1       5.258   4.976  16.932  0.00  0.00    +0.000 NA
ATOM      2  C   UNL     1       5.883   4.240  18.051  0.00  0.00    +0.000 C 
ATOM      3  C   UNL     1       4.678   3.909  18.957  0.00  0.00    +0.000 C 
ATOM      4  C   UNL     1       4.000   2.604  18.528  0.00  0.00    +0.000 C 
ATOM      5  N   UNL     1       3.782   5.051  18.751  0.00  0.00    +0.000 N 
ATOM      6  C   UNL     1       2.933   5.508  19.724  0.00  0.00    +0.000 C 
ATOM      7  O   UNL     1       2.927   4.948  20.826  0.00  0.00    +0.000 OA
ATOM      8  N   UNL     1       2.107   6.596  19.487  0.00  0.00    +0.000 N 
ATOM      9  C   UNL     1       1.813   7.349  18.258  0.00  0.00    +0.000 C 
ATOM     10  C   UNL     1       2.126   8.830  18.469  0.00  0.00    +0.000 C 
ATOM     11  O   UNL     1       1.307   9.355  19.520  0.00  0.00    +0.000 OA
ATOM     12  C   UNL     1       1.542   8.647  20.752  0.00  0.00    +0.000 C 
ATOM     13  C   UNL     1       1.311   7.131  20.604  0.00  0.00    +0.000 C 
ATOM     14  C   UNL     1       4.103   5.665  17.501  0.00  0.00    +0.000 C 
ENDROOT
BRANCH   1  15
ATOM     15  S   UNL     1       6.157   5.989  15.940  0.00  0.00    +0.000 S 
ATOM     16  O   UNL     1       7.430   6.215  16.590  0.00  0.00    +0.000 OA
ATOM     17  O   UNL     1       5.302   7.106  15.575  0.00  0.00    +0.000 OA
BRANCH  15  21
ATOM     18  C   UNL     1       6.777   3.484  12.213  0.00  0.00    +0.000 A 
ATOM     19  C   UNL     1       5.719   3.202  13.085  0.00  0.00    +0.000 A 
ATOM     20  C   UNL     1       5.523   3.977  14.227  0.00  0.00    +0.000 A 
ATOM     21  C   UNL     1       6.410   5.018  14.497  0.00  0.00    +0.000 A 
ATOM     22  C   UNL     1       7.479   5.301  13.651  0.00  0.00    +0.000 A 
ATOM     23  C   UNL     1       7.661   4.526  12.503  0.00  0.00    +0.000 A 
BRANCH  18  25
ATOM     24  C   UNL     1       6.064   1.477  11.202  0.00  0.00    +0.000 C 
ATOM     25  O   UNL     1       6.868   2.651  11.135  0.00  0.00    +0.000 OA
ENDBRANCH  18  25
ENDBRANCH  15  21
ENDBRANCH   1  15
TORSDOF 3
ENDMDL
MODEL 5
REMARK VINA RESULT:      -6.3      2.043      4.113
REMARK  Name = 
REMARK  5 active torsions:
REMARK  status: ('A' for Active; 'I' for Inactive)
REMARK    1  A    between atoms: C_1  and  O_2
REMARK    2  A    between atoms: O_2  and  C_3
REMARK    3  A    between atoms: C_6  and  S_7
REMARK    4  A    between atoms: S_7  and  N_10
REMARK    5  A    between atoms: C_12  and  C_13
REMARK                            x       y       z     vdW  Elec       q    Type
REMARK                         _______ _______ _______ _____ _____    ______ ____
ROOT
ATOM      1  N   UNL     1       5.573   6.643  17.449  0.00  0.00    +0.000 NA
ATOM      2  C   UNL     1       4.694   7.234  16.419  0.00  0.00    +0.000 C 
ATOM      3  C   UNL     1       3.302   7.176  17.084  0.00  0.00    +0.000 C 
ATOM      4  C   UNL     1       3.048   8.412  17.953  0.00  0.00    +0.000 C 
ATOM      5  N   UNL     1       3.377   5.968  17.910  0.00  0.00    +0.000 N 
ATOM      6  C   UNL     1       2.281   5.194  18.186  0.00  0.00    +0.000 C 
ATOM      7  O   UNL     1       1.186   5.515  17.713  0.00  0.00    +0.000 OA
ATOM      8  N   UNL     1       2.400   4.055  18.968  0.00  0.00    +0.000 N 
ATOM      9  C   UNL     1       3.522   3.524  19.756  0.00  0.00    +0.000 C 
ATOM     10  C   UNL     1       3.849   2.102  19.301  0.00  0.00    +0.000 C 
ATOM     11  O   UNL     1       2.716   1.252  19.511  0.00  0.00    +0.000 OA
ATOM     12  C   UNL     1       1.576   1.730  18.773  0.00  0.00    +0.000 C 
ATOM     13  C   UNL     1       1.222   3.186  19.128  0.00  0.00    +0.000 C 
ATOM     14  C   UNL     1       4.752   5.675  18.171  0.00  0.00    +0.000 C 
ENDROOT
BRANCH   1  15
ATOM     15  S   UNL     1       7.077   6.009  17.057  0.00  0.00    +0.000 S 
ATOM     16  O   UNL     1       7.433   5.063  18.093  0.00  0.00    +0.000 OA
ATOM     17  O   UNL     1       7.950   7.127  16.743  0.00  0.00    +0.000 OA
BRANCH  15  21
ATOM     18  C   UNL     1       6.250   3.761  13.208  0.00  0.00    +0.000 A 
ATOM     19  C   UNL     1       5.588   3.406  14.389  0.00  0.00    +0.000 A 
ATOM     20  C   UNL     1       5.836   4.103  15.571  0.00  0.00    +0.000 A 
ATOM     21  C   UNL     1       6.769   5.138  15.562  0.00  0.00    +0.000 A 
ATOM     22  C   UNL     1       7.451   5.492  14.401  0.00  0.00    +0.000 A 
ATOM     23  C   UNL     1       7.188   4.797  13.218  0.00  0.00    +0.000 A 
BRANCH  18  25
ATOM     24  C   UNL     1       4.607   3.182  11.620  0.00  0.00    +0.000 C 
ATOM     25  O   UNL     1       5.928   3.002  12.119  0.00  0.00    +0.000 OA
ENDBRANCH  18  25
ENDBRANCH  15  21
ENDBRANCH   1  15
TORSDOF 3
ENDMDL
MODEL 6
REMARK VINA RESULT:      -6.2      4.696      7.728
REMARK  Name = 
REMARK  5 active torsions:
REMARK  status: ('A' for Active; 'I' for Inactive)
REMARK    1  A    between atoms: C_1  and  O_2
REMARK    2  A    between atoms: O_2  and  C_3
REMARK    3  A    between atoms: C_6  and  S_7
REMARK    4  A    between atoms: S_7  and  N_10
REMARK    5  A    between atoms: C_12  and  C_13
REMARK                            x       y       z     vdW  Elec       q    Type
REMARK                         _______ _______ _______ _____ _____    ______ ____
ROOT
ATOM      1  N   UNL     1      -0.281  10.536  20.164  0.00  0.00    +0.000 NA
ATOM      2  C   UNL     1      -1.031  10.157  18.949  0.00  0.00    +0.000 C 
ATOM      3  C   UNL     1      -1.898  11.406  18.679  0.00  0.00    +0.000 C 
ATOM      4  C   UNL     1      -1.139  12.440  17.841  0.00  0.00    +0.000 C 
ATOM      5  N   UNL     1      -2.165  11.924  20.024  0.00  0.00    +0.000 N 
ATOM      6  C   UNL     1      -3.314  12.599  20.340  0.00  0.00    +0.000 C 
ATOM      7  O   UNL     1      -4.168  12.771  19.465  0.00  0.00    +0.000 OA
ATOM      8  N   UNL     1      -3.527  13.066  21.628  0.00  0.00    +0.000 N 
ATOM      9  C   UNL     1      -2.646  13.125  22.804  0.00  0.00    +0.000 C 
ATOM     10  C   UNL     1      -3.293  12.387  23.976  0.00  0.00    +0.000 C 
ATOM     11  O   UNL     1      -4.535  13.014  24.317  0.00  0.00    +0.000 OA
ATOM     12  C   UNL     1      -5.439  13.000  23.198  0.00  0.00    +0.000 C 
ATOM     13  C   UNL     1      -4.831  13.668  21.951  0.00  0.00    +0.000 C 
ATOM     14  C   UNL     1      -1.156  11.436  20.912  0.00  0.00    +0.000 C 
ENDROOT
BRANCH   1  15
ATOM     15  S   UNL     1       0.413   9.377  21.161  0.00  0.00    +0.000 S 
ATOM     16  O   UNL     1      -0.656   8.547  21.672  0.00  0.00    +0.000 OA
ATOM     17  O   UNL     1       1.311  10.071  22.070  0.00  0.00    +0.000 OA
BRANCH  15  21
ATOM     18  C   UNL     1       2.942   6.915  18.317  0.00  0.00    +0.000 A 
ATOM     19  C   UNL     1       2.563   6.392  19.558  0.00  0.00    +0.000 A 
ATOM     20  C   UNL     1       1.779   7.145  20.430  0.00  0.00    +0.000 A 
ATOM     21  C   UNL     1       1.400   8.434  20.055  0.00  0.00    +0.000 A 
ATOM     22  C   UNL     1       1.783   8.978  18.832  0.00  0.00    +0.000 A 
ATOM     23  C   UNL     1       2.560   8.211  17.960  0.00  0.00    +0.000 A 
BRANCH  18  25
ATOM     24  C   UNL     1       4.727   6.728  16.789  0.00  0.00    +0.000 C 
ATOM     25  O   UNL     1       3.714   6.085  17.556  0.00  0.00    +0.000 OA
ENDBRANCH  18  25
ENDBRANCH  15  21
ENDBRANCH   1  15
TORSDOF 3
ENDMDL
MODEL 7
REMARK VINA RESULT:      -6.1      9.116     12.606
REMARK  Name = 
REMARK  5 active torsions:
REMARK  status: ('A' for Active; 'I' for Inactive)
REMARK    1  A    between atoms: C_1  and  O_2
REMARK    2  A    between atoms: O_2  and  C_3
REMARK    3  A    between atoms: C_6  and  S_7
REMARK    4  A    between atoms: S_7  and  N_10
REMARK    5  A    between atoms: C_12  and  C_13
REMARK                            x       y       z     vdW  Elec       q    Type
REMARK                         _______ _______ _______ _____ _____    ______ ____
ROOT
ATOM      1  N   UNL     1      -1.294  12.736  21.204  0.00  0.00    +0.000 NA
ATOM      2  C   UNL     1      -0.443  11.825  20.411  0.00  0.00    +0.000 C 
ATOM      3  C   UNL     1      -1.068  11.912  19.002  0.00  0.00    +0.000 C 
ATOM      4  C   UNL     1      -0.487  13.085  18.207  0.00  0.00    +0.000 C 
ATOM      5  N   UNL     1      -2.491  12.129  19.282  0.00  0.00    +0.000 N 
ATOM      6  C   UNL     1      -3.482  11.681  18.449  0.00  0.00    +0.000 C 
ATOM      7  O   UNL     1      -3.173  11.059  17.428  0.00  0.00    +0.000 OA
ATOM      8  N   UNL     1      -4.816  11.904  18.757  0.00  0.00    +0.000 N 
ATOM      9  C   UNL     1      -5.454  12.714  19.805  0.00  0.00    +0.000 C 
ATOM     10  C   UNL     1      -6.385  11.837  20.644  0.00  0.00    +0.000 C 
ATOM     11  O   UNL     1      -7.415  11.290  19.814  0.00  0.00    +0.000 OA
ATOM     12  C   UNL     1      -6.850  10.494  18.756  0.00  0.00    +0.000 C 
ATOM     13  C   UNL     1      -5.846  11.291  17.902  0.00  0.00    +0.000 C 
ATOM     14  C   UNL     1      -2.622  12.674  20.597  0.00  0.00    +0.000 C 
ENDROOT
BRANCH   1  15
ATOM     15  S   UNL     1      -1.374  12.626  22.877  0.00  0.00    +0.000 S 
ATOM     16  O   UNL     1      -0.386  13.535  23.419  0.00  0.00    +0.000 OA
ATOM     17  O   UNL     1      -1.348  11.214  23.219  0.00  0.00    +0.000 OA
BRANCH  15  21
ATOM     18  C   UNL     1      -5.520  14.210  23.797  0.00  0.00    +0.000 A 
ATOM     19  C   UNL     1      -4.566  15.038  23.193  0.00  0.00    +0.000 A 
ATOM     20  C   UNL     1      -3.294  14.548  22.902  0.00  0.00    +0.000 A 
ATOM     21  C   UNL     1      -2.981  13.234  23.245  0.00  0.00    +0.000 A 
ATOM     22  C   UNL     1      -3.911  12.402  23.864  0.00  0.00    +0.000 A 
ATOM     23  C   UNL     1      -5.187  12.898  24.141  0.00  0.00    +0.000 A 
BRANCH  18  25
ATOM     24  C   UNL     1      -7.844  13.925  24.072  0.00  0.00    +0.000 C 
ATOM     25  O   UNL     1      -6.725  14.806  24.037  0.00  0.00    +0.000 OA
ENDBRANCH  18  25
ENDBRANCH  15  21
ENDBRANCH   1  15
TORSDOF 3
ENDMDL
MODEL 8
REMARK VINA RESULT:      -6.1      7.161      9.419
REMARK  Name = 
REMARK  5 active torsions:
REMARK  status: ('A' for Active; 'I' for Inactive)
REMARK    1  A    between atoms: C_1  and  O_2
REMARK    2  A    between atoms: O_2  and  C_3
REMARK    3  A    between atoms: C_6  and  S_7
REMARK    4  A    between atoms: S_7  and  N_10
REMARK    5  A    between atoms: C_12  and  C_13
REMARK                            x       y       z     vdW  Elec       q    Type
REMARK                         _______ _______ _______ _____ _____    ______ ____
ROOT
ATOM      1  N   UNL     1      -0.991  10.727  18.270  0.00  0.00    +0.000 NA
ATOM      2  C   UNL     1      -1.625   9.665  17.462  0.00  0.00    +0.000 C 
ATOM      3  C   UNL     1      -2.942  10.326  17.001  0.00  0.00    +0.000 C 
ATOM      4  C   UNL     1      -2.741  11.133  15.715  0.00  0.00    +0.000 C 
ATOM      5  N   UNL     1      -3.280  11.211  18.121  0.00  0.00    +0.000 N 
ATOM      6  C   UNL     1      -4.572  11.520  18.453  0.00  0.00    +0.000 C 
ATOM      7  O   UNL     1      -5.495  11.026  17.795  0.00  0.00    +0.000 OA
ATOM      8  N   UNL     1      -4.845  12.357  19.524  0.00  0.00    +0.000 N 
ATOM      9  C   UNL     1      -3.966  13.175  20.373  0.00  0.00    +0.000 C 
ATOM     10  C   UNL     1      -4.157  12.792  21.840  0.00  0.00    +0.000 C 
ATOM     11  O   UNL     1      -5.512  13.038  22.233  0.00  0.00    +0.000 OA
ATOM     12  C   UNL     1      -6.426  12.272  21.426  0.00  0.00    +0.000 C 
ATOM     13  C   UNL     1      -6.249  12.553  19.922  0.00  0.00    +0.000 C 
ATOM     14  C   UNL     1      -2.088  11.492  18.859  0.00  0.00    +0.000 C 
ENDROOT
BRANCH   1  15
ATOM     15  S   UNL     1       0.195  10.374  19.405  0.00  0.00    +0.000 S 
ATOM     16  O   UNL     1       0.955   9.249  18.902  0.00  0.00    +0.000 OA
ATOM     17  O   UNL     1      -0.455  10.308  20.703  0.00  0.00    +0.000 OA
BRANCH  15  21
ATOM     18  C   UNL     1       2.801  14.082  19.332  0.00  0.00    +0.000 A 
ATOM     19  C   UNL     1       2.785  13.208  18.238  0.00  0.00    +0.000 A 
ATOM     20  C   UNL     1       1.977  12.072  18.257  0.00  0.00    +0.000 A 
ATOM     21  C   UNL     1       1.208  11.809  19.389  0.00  0.00    +0.000 A 
ATOM     22  C   UNL     1       1.226  12.657  20.494  0.00  0.00    +0.000 A 
ATOM     23  C   UNL     1       2.029  13.799  20.462  0.00  0.00    +0.000 A 
BRANCH  18  25
ATOM     24  C   UNL     1       4.223  15.311  17.909  0.00  0.00    +0.000 C 
ATOM     25  O   UNL     1       3.636  15.154  19.197  0.00  0.00    +0.000 OA
ENDBRANCH  18  25
ENDBRANCH  15  21
ENDBRANCH   1  15
TORSDOF 3
ENDMDL
MODEL 9
REMARK VINA RESULT:      -6.0      5.716      9.138
REMARK  Name = 
REMARK  5 active torsions:
REMARK  status: ('A' for Active; 'I' for Inactive)
REMARK    1  A    between atoms: C_1  and  O_2
REMARK    2  A    between atoms: O_2  and  C_3
REMARK    3  A    between atoms: C_6  and  S_7
REMARK    4  A    between atoms: S_7  and  N_10
REMARK    5  A    between atoms: C_12  and  C_13
REMARK                            x       y       z     vdW  Elec       q    Type
REMARK                         _______ _______ _______ _____ _____    ______ ____
ROOT
ATOM      1  N   UNL     1      -1.532  11.971  20.174  0.00  0.00    +0.000 NA
ATOM      2  C   UNL     1      -1.359  13.115  21.093  0.00  0.00    +0.000 C 
ATOM      3  C   UNL     1      -2.701  13.146  21.855  0.00  0.00    +0.000 C 
ATOM      4  C   UNL     1      -2.673  12.214  23.071  0.00  0.00    +0.000 C 
ATOM      5  N   UNL     1      -3.663  12.668  20.857  0.00  0.00    +0.000 N 
ATOM      6  C   UNL     1      -4.970  13.075  20.838  0.00  0.00    +0.000 C 
ATOM      7  O   UNL     1      -5.358  13.887  21.685  0.00  0.00    +0.000 OA
ATOM      8  N   UNL     1      -5.844  12.601  19.871  0.00  0.00    +0.000 N 
ATOM      9  C   UNL     1      -5.696  11.551  18.853  0.00  0.00    +0.000 C 
ATOM     10  C   UNL     1      -5.966  12.131  17.465  0.00  0.00    +0.000 C 
ATOM     11  O   UNL     1      -7.307  12.630  17.400  0.00  0.00    +0.000 OA
ATOM     12  C   UNL     1      -7.519  13.657  18.387  0.00  0.00    +0.000 C 
ATOM     13  C   UNL     1      -7.202  13.167  19.812  0.00  0.00    +0.000 C 
ATOM     14  C   UNL     1      -2.959  11.915  19.866  0.00  0.00    +0.000 C 
ENDROOT
BRANCH   1  15
ATOM     15  S   UNL     1      -0.594  11.810  18.790  0.00  0.00    +0.000 S 
ATOM     16  O   UNL     1       0.293  12.952  18.732  0.00  0.00    +0.000 OA
ATOM     17  O   UNL     1      -1.496  11.516  17.689  0.00  0.00    +0.000 OA
BRANCH  15  21
ATOM     18  C   UNL     1       1.861   8.085  19.591  0.00  0.00    +0.000 A 
ATOM     19  C   UNL     1       1.825   8.644  18.308  0.00  0.00    +0.000 A 
ATOM     20  C   UNL     1       1.076   9.795  18.063  0.00  0.00    +0.000 A 
ATOM     21  C   UNL     1       0.348  10.362  19.108  0.00  0.00    +0.000 A 
ATOM     22  C   UNL     1       0.357   9.808  20.386  0.00  0.00    +0.000 A 
ATOM     23  C   UNL     1       1.119   8.662  20.625  0.00  0.00    +0.000 A 
BRANCH  18  25
ATOM     24  C   UNL     1       2.948   6.317  18.473  0.00  0.00    +0.000 C 
ATOM     25  O   UNL     1       2.622   6.957  19.703  0.00  0.00    +0.000 OA
ENDBRANCH  18  25
ENDBRANCH  15  21
ENDBRANCH   1  15
TORSDOF 3
ENDMDL
