MODEL 1
REMARK VINA RESULT:      -7.8      0.000      0.000
REMARK  Name = 
REMARK  6 active torsions:
REMARK  status: ('A' for Active; 'I' for Inactive)
REMARK    1  A    between atoms: C_1  and  C_2
REMARK    2  A    between atoms: C_4  and  C_5
REMARK    3  A    between atoms: C_5  and  N_6
REMARK    4  A    between atoms: N_13  and  C_14
REMARK    5  A    between atoms: C_14  and  C_15
REMARK    6  A    between atoms: C_19  and  C_20
REMARK                            x       y       z     vdW  Elec       q    Type
REMARK                         _______ _______ _______ _____ _____    ______ ____
ROOT
ATOM      1  N   UNL     1       6.176   4.971  15.728  0.00  0.00    +0.000 NA
ATOM      2  C   UNL     1       5.285   6.130  15.579  0.00  0.00    +0.000 C 
ATOM      3  C   UNL     1       5.088   6.949  16.853  0.00  0.00    +0.000 C 
ATOM      4  C   UNL     1       6.432   7.387  17.438  0.00  0.00    +0.000 C 
ATOM      5  C   UNL     1       7.462   6.268  17.440  0.00  0.00    +0.000 C 
ATOM      6  C   UNL     1       6.876   4.918  17.015  0.00  0.00    +0.000 C 
ATOM      7  C   UNL     1       5.948   4.346  18.128  0.00  0.00    +0.000 C 
ATOM      8  N   UNL     1       4.619   4.909  18.352  0.00  0.00    +0.000 NA
ATOM      9  C   UNL     1       4.220   6.219  17.881  0.00  0.00    +0.000 C 
ENDROOT
BRANCH   1  10
ATOM     10  C   UNL     1       7.041   4.790  14.550  0.00  0.00    +0.000 C 
BRANCH  10  14
ATOM     11  C   UNL     1       3.834   3.072  11.052  0.00  0.00    +0.000 C 
ATOM     12  C   UNL     1       4.983   3.236  11.967  0.00  0.00    +0.000 A 
ATOM     13  C   UNL     1       4.982   3.832  13.243  0.00  0.00    +0.000 A 
ATOM     14  C   UNL     1       6.317   3.970  13.543  0.00  0.00    +0.000 A 
ATOM     15  O   UNL     1       7.061   3.353  12.587  0.00  0.00    +0.000 OA
ATOM     16  N   UNL     1       6.219   2.879  11.591  0.00  0.00    +0.000 NA
ENDBRANCH  10  14
ENDBRANCH   1  10
BRANCH   8  17
ATOM     17  C   UNL     1       3.957   4.462  19.574  0.00  0.00    +0.000 C 
BRANCH  17  18
ATOM     18  C   UNL     1       2.732   3.654  19.308  0.00  0.00    +0.000 A 
ATOM     19  N   UNL     1       1.451   4.084  19.563  0.00  0.00    +0.000 N 
ATOM     20  C   UNL     1       0.601   3.062  19.258  0.00  0.00    +0.000 A 
ATOM     21  N   UNL     1       1.244   2.022  18.791  0.00  0.00    +0.000 NA
ATOM     22  C   UNL     1       2.572   2.372  18.815  0.00  0.00    +0.000 A 
ATOM     23  C   UNL     1       3.617   1.416  18.380  0.00  0.00    +0.000 C 
ATOM     24  H   UNL     1       1.180   4.978  19.947  0.00  0.00    +0.000 HD
ENDBRANCH  17  18
ENDBRANCH   8  17
TORSDOF 4
ENDMDL
MODEL 2
REMARK VINA RESULT:      -7.7      1.649      2.051
REMARK  Name = 
REMARK  6 active torsions:
REMARK  status: ('A' for Active; 'I' for Inactive)
REMARK    1  A    between atoms: C_1  and  C_2
REMARK    2  A    between atoms: C_4  and  C_5
REMARK    3  A    between atoms: C_5  and  N_6
REMARK    4  A    between atoms: N_13  and  C_14
REMARK    5  A    between atoms: C_14  and  C_15
REMARK    6  A    between atoms: C_19  and  C_20
REMARK                            x       y       z     vdW  Elec       q    Type
REMARK                         _______ _______ _______ _____ _____    ______ ____
ROOT
ATOM      1  N   UNL     1       4.947   5.474  16.208  0.00  0.00    +0.000 NA
ATOM      2  C   UNL     1       4.404   6.547  17.053  0.00  0.00    +0.000 C 
ATOM      3  C   UNL     1       4.149   6.144  18.505  0.00  0.00    +0.000 C 
ATOM      4  C   UNL     1       5.408   5.554  19.142  0.00  0.00    +0.000 C 
ATOM      5  C   UNL     1       6.122   4.572  18.226  0.00  0.00    +0.000 C 
ATOM      6  C   UNL     1       5.335   4.269  16.948  0.00  0.00    +0.000 C 
ATOM      7  C   UNL     1       4.089   3.388  17.263  0.00  0.00    +0.000 C 
ATOM      8  N   UNL     1       2.914   3.965  17.912  0.00  0.00    +0.000 NA
ATOM      9  C   UNL     1       2.940   5.214  18.642  0.00  0.00    +0.000 C 
ENDROOT
BRANCH   1  10
ATOM     10  C   UNL     1       5.968   5.977  15.273  0.00  0.00    +0.000 C 
BRANCH  10  14
ATOM     11  C   UNL     1       5.667   2.551  11.579  0.00  0.00    +0.000 C 
ATOM     12  C   UNL     1       6.160   3.493  12.607  0.00  0.00    +0.000 A 
ATOM     13  C   UNL     1       5.532   3.842  13.818  0.00  0.00    +0.000 A 
ATOM     14  C   UNL     1       6.253   4.926  14.261  0.00  0.00    +0.000 A 
ATOM     15  O   UNL     1       7.334   5.109  13.456  0.00  0.00    +0.000 OA
ATOM     16  N   UNL     1       7.283   4.197  12.412  0.00  0.00    +0.000 NA
ENDBRANCH  10  14
ENDBRANCH   1  10
BRANCH   8  17
ATOM     17  C   UNL     1       1.928   2.994  18.379  0.00  0.00    +0.000 C 
BRANCH  17  18
ATOM     18  C   UNL     1       1.943   2.818  19.860  0.00  0.00    +0.000 A 
ATOM     19  N   UNL     1       0.852   3.012  20.673  0.00  0.00    +0.000 N 
ATOM     20  C   UNL     1       1.256   2.826  21.962  0.00  0.00    +0.000 A 
ATOM     21  N   UNL     1       2.520   2.490  22.029  0.00  0.00    +0.000 NA
ATOM     22  C   UNL     1       2.964   2.480  20.728  0.00  0.00    +0.000 A 
ATOM     23  C   UNL     1       4.378   2.168  20.412  0.00  0.00    +0.000 C 
ATOM     24  H   UNL     1      -0.076   3.286  20.384  0.00  0.00    +0.000 HD
ENDBRANCH  17  18
ENDBRANCH   8  17
TORSDOF 4
ENDMDL
MODEL 3
REMARK VINA RESULT:      -7.7      0.748      1.269
REMARK  Name = 
REMARK  6 active torsions:
REMARK  status: ('A' for Active; 'I' for Inactive)
REMARK    1  A    between atoms: C_1  and  C_2
REMARK    2  A    between atoms: C_4  and  C_5
REMARK    3  A    between atoms: C_5  and  N_6
REMARK    4  A    between atoms: N_13  and  C_14
REMARK    5  A    between atoms: C_14  and  C_15
REMARK    6  A    between atoms: C_19  and  C_20
REMARK                            x       y       z     vdW  Elec       q    Type
REMARK                         _______ _______ _______ _____ _____    ______ ____
ROOT
ATOM      1  N   UNL     1       6.239   4.932  15.646  0.00  0.00    +0.000 NA
ATOM      2  C   UNL     1       5.271   6.036  15.575  0.00  0.00    +0.000 C 
ATOM      3  C   UNL     1       5.097   6.813  16.879  0.00  0.00    +0.000 C 
ATOM      4  C   UNL     1       6.442   7.322  17.400  0.00  0.00    +0.000 C 
ATOM      5  C   UNL     1       7.537   6.269  17.317  0.00  0.00    +0.000 C 
ATOM      6  C   UNL     1       7.012   4.895  16.891  0.00  0.00    +0.000 C 
ATOM      7  C   UNL     1       6.185   4.241  18.037  0.00  0.00    +0.000 C 
ATOM      8  N   UNL     1       4.839   4.716  18.349  0.00  0.00    +0.000 NA
ATOM      9  C   UNL     1       4.334   6.007  17.934  0.00  0.00    +0.000 C 
ENDROOT
BRANCH   1  10
ATOM     10  C   UNL     1       7.045   4.832  14.418  0.00  0.00    +0.000 C 
BRANCH  10  14
ATOM     11  C   UNL     1       3.803   3.006  11.008  0.00  0.00    +0.000 C 
ATOM     12  C   UNL     1       4.970   3.207  11.894  0.00  0.00    +0.000 A 
ATOM     13  C   UNL     1       4.982   3.811  13.166  0.00  0.00    +0.000 A 
ATOM     14  C   UNL     1       6.320   3.987  13.433  0.00  0.00    +0.000 A 
ATOM     15  O   UNL     1       7.057   3.382  12.463  0.00  0.00    +0.000 OA
ATOM     16  N   UNL     1       6.205   2.880  11.491  0.00  0.00    +0.000 NA
ENDBRANCH  10  14
ENDBRANCH   1  10
BRANCH   8  17
ATOM     17  C   UNL     1       4.275   4.200  19.593  0.00  0.00    +0.000 C 
BRANCH  17  18
ATOM     18  C   UNL     1       2.973   3.501  19.394  0.00  0.00    +0.000 A 
ATOM     19  N   UNL     1       2.822   2.337  18.678  0.00  0.00    +0.000 N 
ATOM     20  C   UNL     1       1.493   2.032  18.656  0.00  0.00    +0.000 A 
ATOM     21  N   UNL     1       0.787   2.898  19.338  0.00  0.00    +0.000 NA
ATOM     22  C   UNL     1       1.692   3.820  19.806  0.00  0.00    +0.000 A 
ATOM     23  C   UNL     1       1.244   4.983  20.607  0.00  0.00    +0.000 C 
ATOM     24  H   UNL     1       3.551   1.816  18.212  0.00  0.00    +0.000 HD
ENDBRANCH  17  18
ENDBRANCH   8  17
TORSDOF 4
ENDMDL
MODEL 4
REMARK VINA RESULT:      -7.6      1.437      2.036
REMARK  Name = 
REMARK  6 active torsions:
REMARK  status: ('A' for Active; 'I' for Inactive)
REMARK    1  A    between atoms: C_1  and  C_2
REMARK    2  A    between atoms: C_4  and  C_5
REMARK    3  A    between atoms: C_5  and  N_6
REMARK    4  A    between atoms: N_13  and  C_14
REMARK    5  A    between atoms: C_14  and  C_15
REMARK    6  A    between atoms: C_19  and  C_20
REMARK                            x       y       z     vdW  Elec       q    Type
REMARK                         _______ _______ _______ _____ _____    ______ ____
ROOT
ATOM      1  N   UNL     1       5.453   4.999  15.886  0.00  0.00    +0.000 NA
ATOM      2  C   UNL     1       5.190   6.393  16.271  0.00  0.00    +0.000 C 
ATOM      3  C   UNL     1       4.683   6.573  17.701  0.00  0.00    +0.000 C 
ATOM      4  C   UNL     1       5.628   5.916  18.707  0.00  0.00    +0.000 C 
ATOM      5  C   UNL     1       6.088   4.535  18.262  0.00  0.00    +0.000 C 
ATOM      6  C   UNL     1       5.374   4.047  16.999  0.00  0.00    +0.000 C 
ATOM      7  C   UNL     1       3.892   3.681  17.310  0.00  0.00    +0.000 C 
ATOM      8  N   UNL     1       2.897   4.727  17.531  0.00  0.00    +0.000 NA
ATOM      9  C   UNL     1       3.238   6.094  17.865  0.00  0.00    +0.000 C 
ENDROOT
BRANCH   1  10
ATOM     10  C   UNL     1       6.665   4.878  15.059  0.00  0.00    +0.000 C 
BRANCH  10  14
ATOM     11  C   UNL     1       4.365   2.948  11.002  0.00  0.00    +0.000 C 
ATOM     12  C   UNL     1       5.372   3.352  12.006  0.00  0.00    +0.000 A 
ATOM     13  C   UNL     1       5.184   3.500  13.394  0.00  0.00    +0.000 A 
ATOM     14  C   UNL     1       6.328   4.138  13.815  0.00  0.00    +0.000 A 
ATOM     15  O   UNL     1       7.207   4.218  12.781  0.00  0.00    +0.000 OA
ATOM     16  N   UNL     1       6.608   3.713  11.635  0.00  0.00    +0.000 NA
ENDBRANCH  10  14
ENDBRANCH   1  10
BRANCH   8  17
ATOM     17  C   UNL     1       1.617   4.261  18.059  0.00  0.00    +0.000 C 
BRANCH  17  18
ATOM     18  C   UNL     1       1.714   3.769  19.464  0.00  0.00    +0.000 A 
ATOM     19  N   UNL     1       1.784   2.442  19.815  0.00  0.00    +0.000 N 
ATOM     20  C   UNL     1       1.795   2.372  21.177  0.00  0.00    +0.000 A 
ATOM     21  N   UNL     1       1.773   3.563  21.722  0.00  0.00    +0.000 NA
ATOM     22  C   UNL     1       1.723   4.445  20.669  0.00  0.00    +0.000 A 
ATOM     23  C   UNL     1       1.656   5.906  20.907  0.00  0.00    +0.000 C 
ATOM     24  H   UNL     1       1.785   1.650  19.188  0.00  0.00    +0.000 HD
ENDBRANCH  17  18
ENDBRANCH   8  17
TORSDOF 4
ENDMDL
MODEL 5
REMARK VINA RESULT:      -7.5      1.297      1.612
REMARK  Name = 
REMARK  6 active torsions:
REMARK  status: ('A' for Active; 'I' for Inactive)
REMARK    1  A    between atoms: C_1  and  C_2
REMARK    2  A    between atoms: C_4  and  C_5
REMARK    3  A    between atoms: C_5  and  N_6
REMARK    4  A    between atoms: N_13  and  C_14
REMARK    5  A    between atoms: C_14  and  C_15
REMARK    6  A    between atoms: C_19  and  C_20
REMARK                            x       y       z     vdW  Elec       q    Type
REMARK                         _______ _______ _______ _____ _____    ______ ____
ROOT
ATOM      1  N   UNL     1       5.634   5.034  15.815  0.00  0.00    +0.000 NA
ATOM      2  C   UNL     1       5.727   6.448  16.205  0.00  0.00    +0.000 C 
ATOM      3  C   UNL     1       5.341   6.733  17.656  0.00  0.00    +0.000 C 
ATOM      4  C   UNL     1       6.149   5.864  18.621  0.00  0.00    +0.000 C 
ATOM      5  C   UNL     1       6.248   4.417  18.162  0.00  0.00    +0.000 C 
ATOM      6  C   UNL     1       5.382   4.121  16.934  0.00  0.00    +0.000 C 
ATOM      7  C   UNL     1       3.872   4.114  17.314  0.00  0.00    +0.000 C 
ATOM      8  N   UNL     1       3.163   5.364  17.576  0.00  0.00    +0.000 NA
ATOM      9  C   UNL     1       3.833   6.608  17.888  0.00  0.00    +0.000 C 
ENDROOT
BRANCH   1  10
ATOM     10  C   UNL     1       6.744   4.636  14.934  0.00  0.00    +0.000 C 
BRANCH  10  14
ATOM     11  C   UNL     1       3.980   3.171  10.973  0.00  0.00    +0.000 C 
ATOM     12  C   UNL     1       5.049   3.315  11.984  0.00  0.00    +0.000 A 
ATOM     13  C   UNL     1       4.903   3.672  13.339  0.00  0.00    +0.000 A 
ATOM     14  C   UNL     1       6.190   3.922  13.754  0.00  0.00    +0.000 A 
ATOM     15  O   UNL     1       7.058   3.579  12.764  0.00  0.00    +0.000 OA
ATOM     16  N   UNL     1       6.339   3.187  11.645  0.00  0.00    +0.000 NA
ENDBRANCH  10  14
ENDBRANCH   1  10
BRANCH   8  17
ATOM     17  C   UNL     1       1.835   5.210  18.164  0.00  0.00    +0.000 C 
BRANCH  17  18
ATOM     18  C   UNL     1       1.847   4.409  19.422  0.00  0.00    +0.000 A 
ATOM     19  N   UNL     1       2.395   4.838  20.607  0.00  0.00    +0.000 N 
ATOM     20  C   UNL     1       2.281   3.822  21.510  0.00  0.00    +0.000 A 
ATOM     21  N   UNL     1       1.665   2.787  20.997  0.00  0.00    +0.000 NA
ATOM     22  C   UNL     1       1.387   3.134  19.697  0.00  0.00    +0.000 A 
ATOM     23  C   UNL     1       0.711   2.182  18.785  0.00  0.00    +0.000 C 
ATOM     24  H   UNL     1       2.843   5.727  20.779  0.00  0.00    +0.000 HD
ENDBRANCH  17  18
ENDBRANCH   8  17
TORSDOF 4
ENDMDL
MODEL 6
REMARK VINA RESULT:      -7.5      1.612      2.202
REMARK  Name = 
REMARK  6 active torsions:
REMARK  status: ('A' for Active; 'I' for Inactive)
REMARK    1  A    between atoms: C_1  and  C_2
REMARK    2  A    between atoms: C_4  and  C_5
REMARK    3  A    between atoms: C_5  and  N_6
REMARK    4  A    between atoms: N_13  and  C_14
REMARK    5  A    between atoms: C_14  and  C_15
REMARK    6  A    between atoms: C_19  and  C_20
REMARK                            x       y       z     vdW  Elec       q    Type
REMARK                         _______ _______ _______ _____ _____    ______ ____
ROOT
ATOM      1  N   UNL     1       5.560   5.002  15.504  0.00  0.00    +0.000 NA
ATOM      2  C   UNL     1       5.286   6.383  15.925  0.00  0.00    +0.000 C 
ATOM      3  C   UNL     1       4.904   6.536  17.397  0.00  0.00    +0.000 C 
ATOM      4  C   UNL     1       5.959   5.905  18.307  0.00  0.00    +0.000 C 
ATOM      5  C   UNL     1       6.423   4.545  17.809  0.00  0.00    +0.000 C 
ATOM      6  C   UNL     1       5.615   4.041  16.610  0.00  0.00    +0.000 C 
ATOM      7  C   UNL     1       4.181   3.621  17.050  0.00  0.00    +0.000 C 
ATOM      8  N   UNL     1       3.174   4.630  17.370  0.00  0.00    +0.000 NA
ATOM      9  C   UNL     1       3.497   6.005  17.686  0.00  0.00    +0.000 C 
ENDROOT
BRANCH   1  10
ATOM     10  C   UNL     1       6.696   4.930  14.570  0.00  0.00    +0.000 C 
BRANCH  10  14
ATOM     11  C   UNL     1       6.140   1.434  10.972  0.00  0.00    +0.000 C 
ATOM     12  C   UNL     1       5.969   2.618  11.841  0.00  0.00    +0.000 A 
ATOM     13  C   UNL     1       6.978   3.346  12.503  0.00  0.00    +0.000 A 
ATOM     14  C   UNL     1       6.283   4.157  13.370  0.00  0.00    +0.000 A 
ATOM     15  O   UNL     1       4.950   4.040  13.127  0.00  0.00    +0.000 OA
ATOM     16  N   UNL     1       4.749   3.072  12.154  0.00  0.00    +0.000 NA
ENDBRANCH  10  14
ENDBRANCH   1  10
BRANCH   8  17
ATOM     17  C   UNL     1       1.964   4.116  18.007  0.00  0.00    +0.000 C 
BRANCH  17  18
ATOM     18  C   UNL     1       2.161   3.793  19.450  0.00  0.00    +0.000 A 
ATOM     19  N   UNL     1       2.518   2.552  19.923  0.00  0.00    +0.000 N 
ATOM     20  C   UNL     1       2.538   2.616  21.285  0.00  0.00    +0.000 A 
ATOM     21  N   UNL     1       2.254   3.819  21.716  0.00  0.00    +0.000 NA
ATOM     22  C   UNL     1       2.016   4.566  20.586  0.00  0.00    +0.000 A 
ATOM     23  C   UNL     1       1.630   5.993  20.688  0.00  0.00    +0.000 C 
ATOM     24  H   UNL     1       2.695   1.724  19.372  0.00  0.00    +0.000 HD
ENDBRANCH  17  18
ENDBRANCH   8  17
TORSDOF 4
ENDMDL
MODEL 7
REMARK VINA RESULT:      -7.2      1.150      1.608
REMARK  Name = 
REMARK  6 active torsions:
REMARK  status: ('A' for Active; 'I' for Inactive)
REMARK    1  A    between atoms: C_1  and  C_2
REMARK    2  A    between atoms: C_4  and  C_5
REMARK    3  A    between atoms: C_5  and  N_6
REMARK    4  A    between atoms: N_13  and  C_14
REMARK    5  A    between atoms: C_14  and  C_15
REMARK    6  A    between atoms: C_19  and  C_20
REMARK                            x       y       z     vdW  Elec       q    Type
REMARK                         _______ _______ _______ _____ _____    ______ ____
ROOT
ATOM      1  N   UNL     1       6.330   5.046  15.476  0.00  0.00    +0.000 NA
ATOM      2  C   UNL     1       5.228   6.018  15.461  0.00  0.00    +0.000 C 
ATOM      3  C   UNL     1       4.956   6.692  16.805  0.00  0.00    +0.000 C 
ATOM      4  C   UNL     1       6.225   7.340  17.362  0.00  0.00    +0.000 C 
ATOM      5  C   UNL     1       7.447   6.444  17.227  0.00  0.00    +0.000 C 
ATOM      6  C   UNL     1       7.103   5.039  16.722  0.00  0.00    +0.000 C 
ATOM      7  C   UNL     1       6.368   4.222  17.826  0.00  0.00    +0.000 C 
ATOM      8  N   UNL     1       4.973   4.500  18.155  0.00  0.00    +0.000 NA
ATOM      9  C   UNL     1       4.305   5.737  17.809  0.00  0.00    +0.000 C 
ENDROOT
BRANCH   1  10
ATOM     10  C   UNL     1       7.142   5.118  14.250  0.00  0.00    +0.000 C 
BRANCH  10  14
ATOM     11  C   UNL     1       6.053   1.398  11.017  0.00  0.00    +0.000 C 
ATOM     12  C   UNL     1       5.991   2.612  11.860  0.00  0.00    +0.000 A 
ATOM     13  C   UNL     1       7.061   3.450  12.232  0.00  0.00    +0.000 A 
ATOM     14  C   UNL     1       6.524   4.251  13.212  0.00  0.00    +0.000 A 
ATOM     15  O   UNL     1       5.187   4.020  13.303  0.00  0.00    +0.000 OA
ATOM     16  N   UNL     1       4.845   2.987  12.442  0.00  0.00    +0.000 NA
ENDBRANCH  10  14
ENDBRANCH   1  10
BRANCH   8  17
ATOM     17  C   UNL     1       4.481   3.848  19.365  0.00  0.00    +0.000 C 
BRANCH  17  18
ATOM     18  C   UNL     1       3.066   3.392  19.245  0.00  0.00    +0.000 A 
ATOM     19  N   UNL     1       2.662   2.319  18.486  0.00  0.00    +0.000 N 
ATOM     20  C   UNL     1       1.303   2.244  18.563  0.00  0.00    +0.000 A 
ATOM     21  N   UNL     1       0.811   3.169  19.348  0.00  0.00    +0.000 NA
ATOM     22  C   UNL     1       1.896   3.894  19.782  0.00  0.00    +0.000 A 
ATOM     23  C   UNL     1       1.719   5.061  20.678  0.00  0.00    +0.000 C 
ATOM     24  H   UNL     1       3.252   1.715  17.932  0.00  0.00    +0.000 HD
ENDBRANCH  17  18
ENDBRANCH   8  17
TORSDOF 4
ENDMDL
MODEL 8
REMARK VINA RESULT:      -7.2      1.684      2.181
REMARK  Name = 
REMARK  6 active torsions:
REMARK  status: ('A' for Active; 'I' for Inactive)
REMARK    1  A    between atoms: C_1  and  C_2
REMARK    2  A    between atoms: C_4  and  C_5
REMARK    3  A    between atoms: C_5  and  N_6
REMARK    4  A    between atoms: N_13  and  C_14
REMARK    5  A    between atoms: C_14  and  C_15
REMARK    6  A    between atoms: C_19  and  C_20
REMARK                            x       y       z     vdW  Elec       q    Type
REMARK                         _______ _______ _______ _____ _____    ______ ____
ROOT
ATOM      1  N   UNL     1       5.770   4.917  14.964  0.00  0.00    +0.000 NA
ATOM      2  C   UNL     1       5.404   6.261  15.431  0.00  0.00    +0.000 C 
ATOM      3  C   UNL     1       5.230   6.384  16.944  0.00  0.00    +0.000 C 
ATOM      4  C   UNL     1       6.474   5.888  17.683  0.00  0.00    +0.000 C 
ATOM      5  C   UNL     1       7.013   4.585  17.112  0.00  0.00    +0.000 C 
ATOM      6  C   UNL     1       6.099   3.980  16.043  0.00  0.00    +0.000 C 
ATOM      7  C   UNL     1       4.804   3.402  16.688  0.00  0.00    +0.000 C 
ATOM      8  N   UNL     1       3.746   4.291  17.161  0.00  0.00    +0.000 NA
ATOM      9  C   UNL     1       3.952   5.698  17.435  0.00  0.00    +0.000 C 
ENDROOT
BRANCH   1  10
ATOM     10  C   UNL     1       6.755   4.966  13.871  0.00  0.00    +0.000 C 
BRANCH  10  14
ATOM     11  C   UNL     1       6.243   0.939  10.872  0.00  0.00    +0.000 C 
ATOM     12  C   UNL     1       6.053   2.240  11.548  0.00  0.00    +0.000 A 
ATOM     13  C   UNL     1       7.052   3.084  12.072  0.00  0.00    +0.000 A 
ATOM     14  C   UNL     1       6.348   4.006  12.812  0.00  0.00    +0.000 A 
ATOM     15  O   UNL     1       5.015   3.823  12.611  0.00  0.00    +0.000 OA
ATOM     16  N   UNL     1       4.826   2.711  11.804  0.00  0.00    +0.000 NA
ENDBRANCH  10  14
ENDBRANCH   1  10
BRANCH   8  17
ATOM     17  C   UNL     1       2.712   3.648  17.967  0.00  0.00    +0.000 C 
BRANCH  17  18
ATOM     18  C   UNL     1       3.238   3.087  19.245  0.00  0.00    +0.000 A 
ATOM     19  N   UNL     1       4.490   2.536  19.391  0.00  0.00    +0.000 N 
ATOM     20  C   UNL     1       4.593   2.072  20.670  0.00  0.00    +0.000 A 
ATOM     21  N   UNL     1       3.510   2.320  21.363  0.00  0.00    +0.000 NA
ATOM     22  C   UNL     1       2.655   2.952  20.492  0.00  0.00    +0.000 A 
ATOM     23  C   UNL     1       1.299   3.362  20.924  0.00  0.00    +0.000 C 
ATOM     24  H   UNL     1       5.197   2.447  18.676  0.00  0.00    +0.000 HD
ENDBRANCH  17  18
ENDBRANCH   8  17
TORSDOF 4
ENDMDL
MODEL 9
REMARK VINA RESULT:      -7.1      3.313      7.055
REMARK  Name = 
REMARK  6 active torsions:
REMARK  status: ('A' for Active; 'I' for Inactive)
REMARK    1  A    between atoms: C_1  and  C_2
REMARK    2  A    between atoms: C_4  and  C_5
REMARK    3  A    between atoms: C_5  and  N_6
REMARK    4  A    between atoms: N_13  and  C_14
REMARK    5  A    between atoms: C_14  and  C_15
REMARK    6  A    between atoms: C_19  and  C_20
REMARK                            x       y       z     vdW  Elec       q    Type
REMARK                         _______ _______ _______ _____ _____    ______ ____
ROOT
ATOM      1  N   UNL     1       2.413   4.974  19.611  0.00  0.00    +0.000 NA
ATOM      2  C   UNL     1       1.371   4.474  18.703  0.00  0.00    +0.000 C 
ATOM      3  C   UNL     1       1.555   3.023  18.261  0.00  0.00    +0.000 C 
ATOM      4  C   UNL     1       1.695   2.094  19.468  0.00  0.00    +0.000 C 
ATOM      5  C   UNL     1       2.622   2.657  20.535  0.00  0.00    +0.000 C 
ATOM      6  C   UNL     1       3.333   3.939  20.091  0.00  0.00    +0.000 C 
ATOM      7  C   UNL     1       4.419   3.623  19.020  0.00  0.00    +0.000 C 
ATOM      8  N   UNL     1       4.040   3.297  17.647  0.00  0.00    +0.000 NA
ATOM      9  C   UNL     1       2.711   2.864  17.270  0.00  0.00    +0.000 C 
ENDROOT
BRANCH   1  10
ATOM     10  C   UNL     1       1.853   5.836  20.665  0.00  0.00    +0.000 C 
BRANCH  10  14
ATOM     11  C   UNL     1       1.517  10.039  17.890  0.00  0.00    +0.000 C 
ATOM     12  C   UNL     1       1.622   9.082  19.012  0.00  0.00    +0.000 A 
ATOM     13  C   UNL     1       2.257   7.824  19.007  0.00  0.00    +0.000 A 
ATOM     14  C   UNL     1       1.842   7.242  20.182  0.00  0.00    +0.000 A 
ATOM     15  O   UNL     1       1.142   8.150  20.914  0.00  0.00    +0.000 OA
ATOM     16  N   UNL     1       1.008   9.319  20.179  0.00  0.00    +0.000 NA
ENDBRANCH  10  14
ENDBRANCH   1  10
BRANCH   8  17
ATOM     17  C   UNL     1       5.121   2.777  16.814  0.00  0.00    +0.000 C 
BRANCH  17  18
ATOM     18  C   UNL     1       5.856   3.849  16.083  0.00  0.00    +0.000 A 
ATOM     19  N   UNL     1       5.576   4.238  14.794  0.00  0.00    +0.000 N 
ATOM     20  C   UNL     1       6.489   5.188  14.439  0.00  0.00    +0.000 A 
ATOM     21  N   UNL     1       7.310   5.460  15.422  0.00  0.00    +0.000 NA
ATOM     22  C   UNL     1       6.930   4.636  16.454  0.00  0.00    +0.000 A 
ATOM     23  C   UNL     1       7.665   4.645  17.741  0.00  0.00    +0.000 C 
ATOM     24  H   UNL     1       4.855   3.865  14.194  0.00  0.00    +0.000 HD
ENDBRANCH  17  18
ENDBRANCH   8  17
TORSDOF 4
ENDMDL
