MODEL 1
REMARK VINA RESULT:      -7.3      0.000      0.000
REMARK  Name = 
REMARK  7 active torsions:
REMARK  status: ('A' for Active; 'I' for Inactive)
REMARK    1  A    between atoms: C_1  and  O_2
REMARK    2  A    between atoms: O_2  and  C_3
REMARK    3  A    between atoms: C_3  and  C_4
REMARK    4  A    between atoms: C_4  and  O_5
REMARK    5  A    between atoms: O_5  and  C_6
REMARK    6  A    between atoms: N_10  and  S_11
REMARK    7  A    between atoms: S_11  and  C_14
REMARK                            x       y       z     vdW  Elec       q    Type
REMARK                         _______ _______ _______ _____ _____    ______ ____
ROOT
ATOM      1  C   UNL     1       7.549   6.511  18.338  0.00  0.00    +0.000 A 
ATOM      2  C   UNL     1       7.085   5.679  19.327  0.00  0.00    +0.000 A 
ATOM      3  N   UNL     1       6.276   4.619  19.102  0.00  0.00    +0.000 NA
ATOM      4  C   UNL     1       5.931   4.416  17.835  0.00  0.00    +0.000 A 
ATOM      5  N   UNL     1       5.002   3.400  17.639  0.00  0.00    +0.000 N 
ATOM      6  N   UNL     1       6.343   5.113  16.773  0.00  0.00    +0.000 NA
ATOM      7  C   UNL     1       7.144   6.170  17.061  0.00  0.00    +0.000 A 
ATOM      8  H   UNL     1       5.255   2.686  16.970  0.00  0.00    +0.000 HD
ENDROOT
BRANCH   5   9
ATOM      9  S   UNL     1       3.415   3.917  17.575  0.00  0.00    +0.000 S 
ATOM     10  O   UNL     1       3.457   5.361  17.432  0.00  0.00    +0.000 OA
ATOM     11  O   UNL     1       2.673   3.101  16.639  0.00  0.00    +0.000 OA
BRANCH   9  12
ATOM     12  C   UNL     1       2.778   3.593  19.206  0.00  0.00    +0.000 A 
ATOM     13  C   UNL     1       3.491   2.757  20.072  0.00  0.00    +0.000 A 
ATOM     14  C   UNL     1       2.926   2.403  21.298  0.00  0.00    +0.000 A 
ATOM     15  C   UNL     1       1.669   2.897  21.658  0.00  0.00    +0.000 A 
ATOM     16  C   UNL     1       0.984   3.767  20.808  0.00  0.00    +0.000 A 
ATOM     17  C   UNL     1       1.543   4.127  19.583  0.00  0.00    +0.000 A 
ENDBRANCH   9  12
ENDBRANCH   5   9
BRANCH   1  18
ATOM     18  O   UNL     1       8.341   7.604  18.489  0.00  0.00    +0.000 OA
BRANCH  18  19
ATOM     19  C   UNL     1       8.075   8.699  17.603  0.00  0.00    +0.000 C 
BRANCH  19  20
ATOM     20  C   UNL     1       8.546   9.997  18.252  0.00  0.00    +0.000 C 
BRANCH  20  22
ATOM     21  C   UNL     1       9.660  10.884  20.128  0.00  0.00    +0.000 C 
ATOM     22  O   UNL     1       9.224   9.700  19.472  0.00  0.00    +0.000 OA
ENDBRANCH  20  22
ENDBRANCH  19  20
ENDBRANCH  18  19
ENDBRANCH   1  18
TORSDOF 6
ENDMDL
MODEL 2
REMARK VINA RESULT:      -6.8      3.447      7.362
REMARK  Name = 
REMARK  7 active torsions:
REMARK  status: ('A' for Active; 'I' for Inactive)
REMARK    1  A    between atoms: C_1  and  O_2
REMARK    2  A    between atoms: O_2  and  C_3
REMARK    3  A    between atoms: C_3  and  C_4
REMARK    4  A    between atoms: C_4  and  O_5
REMARK    5  A    between atoms: O_5  and  C_6
REMARK    6  A    between atoms: N_10  and  S_11
REMARK    7  A    between atoms: S_11  and  C_14
REMARK                            x       y       z     vdW  Elec       q    Type
REMARK                         _______ _______ _______ _____ _____    ______ ____
ROOT
ATOM      1  C   UNL     1       3.942   3.359  19.632  0.00  0.00    +0.000 A 
ATOM      2  C   UNL     1       4.410   4.637  19.815  0.00  0.00    +0.000 A 
ATOM      3  N   UNL     1       4.818   5.440  18.807  0.00  0.00    +0.000 NA
ATOM      4  C   UNL     1       4.751   4.915  17.588  0.00  0.00    +0.000 A 
ATOM      5  N   UNL     1       5.290   5.709  16.581  0.00  0.00    +0.000 N 
ATOM      6  N   UNL     1       4.276   3.711  17.261  0.00  0.00    +0.000 NA
ATOM      7  C   UNL     1       3.891   2.946  18.313  0.00  0.00    +0.000 A 
ATOM      8  H   UNL     1       4.690   5.897  15.791  0.00  0.00    +0.000 HD
ENDROOT
BRANCH   5   9
ATOM      9  S   UNL     1       6.883   5.368  16.210  0.00  0.00    +0.000 S 
ATOM     10  O   UNL     1       7.599   6.629  16.265  0.00  0.00    +0.000 OA
ATOM     11  O   UNL     1       7.330   4.228  16.979  0.00  0.00    +0.000 OA
BRANCH   9  12
ATOM     12  C   UNL     1       6.845   4.888  14.495  0.00  0.00    +0.000 A 
ATOM     13  C   UNL     1       5.954   3.895  14.077  0.00  0.00    +0.000 A 
ATOM     14  C   UNL     1       6.017   3.432  12.762  0.00  0.00    +0.000 A 
ATOM     15  C   UNL     1       6.951   3.973  11.873  0.00  0.00    +0.000 A 
ATOM     16  C   UNL     1       7.805   4.996  12.286  0.00  0.00    +0.000 A 
ATOM     17  C   UNL     1       7.747   5.466  13.597  0.00  0.00    +0.000 A 
ENDBRANCH   9  12
ENDBRANCH   5   9
BRANCH   1  18
ATOM     18  O   UNL     1       3.539   2.487  20.593  0.00  0.00    +0.000 OA
BRANCH  18  19
ATOM     19  C   UNL     1       2.601   2.997  21.549  0.00  0.00    +0.000 C 
BRANCH  19  20
ATOM     20  C   UNL     1       1.291   3.329  20.841  0.00  0.00    +0.000 C 
BRANCH  20  22
ATOM     21  C   UNL     1       0.490   2.578  18.757  0.00  0.00    +0.000 C 
ATOM     22  O   UNL     1       0.865   2.202  20.076  0.00  0.00    +0.000 OA
ENDBRANCH  20  22
ENDBRANCH  19  20
ENDBRANCH  18  19
ENDBRANCH   1  18
TORSDOF 6
ENDMDL
MODEL 3
REMARK VINA RESULT:      -6.7      2.939      4.698
REMARK  Name = 
REMARK  7 active torsions:
REMARK  status: ('A' for Active; 'I' for Inactive)
REMARK    1  A    between atoms: C_1  and  O_2
REMARK    2  A    between atoms: O_2  and  C_3
REMARK    3  A    between atoms: C_3  and  C_4
REMARK    4  A    between atoms: C_4  and  O_5
REMARK    5  A    between atoms: O_5  and  C_6
REMARK    6  A    between atoms: N_10  and  S_11
REMARK    7  A    between atoms: S_11  and  C_14
REMARK                            x       y       z     vdW  Elec       q    Type
REMARK                         _______ _______ _______ _____ _____    ______ ____
ROOT
ATOM      1  C   UNL     1       6.871   5.005  16.404  0.00  0.00    +0.000 A 
ATOM      2  C   UNL     1       6.743   6.295  16.857  0.00  0.00    +0.000 A 
ATOM      3  N   UNL     1       5.992   6.647  17.924  0.00  0.00    +0.000 NA
ATOM      4  C   UNL     1       5.353   5.654  18.533  0.00  0.00    +0.000 A 
ATOM      5  N   UNL     1       4.490   6.052  19.548  0.00  0.00    +0.000 N 
ATOM      6  N   UNL     1       5.423   4.355  18.231  0.00  0.00    +0.000 NA
ATOM      7  C   UNL     1       6.182   4.062  17.146  0.00  0.00    +0.000 A 
ATOM      8  H   UNL     1       4.621   5.606  20.446  0.00  0.00    +0.000 HD
ENDROOT
BRANCH   5   9
ATOM      9  S   UNL     1       2.902   6.251  19.068  0.00  0.00    +0.000 S 
ATOM     10  O   UNL     1       2.300   7.178  20.008  0.00  0.00    +0.000 OA
ATOM     11  O   UNL     1       2.851   6.500  17.644  0.00  0.00    +0.000 OA
BRANCH   9  12
ATOM     12  C   UNL     1       2.147   4.667  19.372  0.00  0.00    +0.000 A 
ATOM     13  C   UNL     1       1.719   3.888  18.292  0.00  0.00    +0.000 A 
ATOM     14  C   UNL     1       1.013   2.710  18.538  0.00  0.00    +0.000 A 
ATOM     15  C   UNL     1       0.755   2.309  19.852  0.00  0.00    +0.000 A 
ATOM     16  C   UNL     1       1.225   3.069  20.925  0.00  0.00    +0.000 A 
ATOM     17  C   UNL     1       1.933   4.246  20.687  0.00  0.00    +0.000 A 
ENDBRANCH   9  12
ENDBRANCH   5   9
BRANCH   1  18
ATOM     18  O   UNL     1       7.584   4.578  15.329  0.00  0.00    +0.000 OA
BRANCH  18  19
ATOM     19  C   UNL     1       7.041   4.908  14.044  0.00  0.00    +0.000 C 
BRANCH  19  20
ATOM     20  C   UNL     1       5.896   3.953  13.722  0.00  0.00    +0.000 C 
BRANCH  20  22
ATOM     21  C   UNL     1       4.858   3.144  11.768  0.00  0.00    +0.000 C 
ATOM     22  O   UNL     1       6.095   3.392  12.425  0.00  0.00    +0.000 OA
ENDBRANCH  20  22
ENDBRANCH  19  20
ENDBRANCH  18  19
ENDBRANCH   1  18
TORSDOF 6
ENDMDL
MODEL 4
REMARK VINA RESULT:      -6.7      3.638      7.339
REMARK  Name = 
REMARK  7 active torsions:
REMARK  status: ('A' for Active; 'I' for Inactive)
REMARK    1  A    between atoms: C_1  and  O_2
REMARK    2  A    between atoms: O_2  and  C_3
REMARK    3  A    between atoms: C_3  and  C_4
REMARK    4  A    between atoms: C_4  and  O_5
REMARK    5  A    between atoms: O_5  and  C_6
REMARK    6  A    between atoms: N_10  and  S_11
REMARK    7  A    between atoms: S_11  and  C_14
REMARK                            x       y       z     vdW  Elec       q    Type
REMARK                         _______ _______ _______ _____ _____    ______ ____
ROOT
ATOM      1  C   UNL     1       3.154   5.108  19.405  0.00  0.00    +0.000 A 
ATOM      2  C   UNL     1       2.841   5.068  18.068  0.00  0.00    +0.000 A 
ATOM      3  N   UNL     1       3.647   4.537  17.121  0.00  0.00    +0.000 NA
ATOM      4  C   UNL     1       4.801   4.045  17.557  0.00  0.00    +0.000 A 
ATOM      5  N   UNL     1       5.667   3.618  16.556  0.00  0.00    +0.000 N 
ATOM      6  N   UNL     1       5.213   3.975  18.825  0.00  0.00    +0.000 NA
ATOM      7  C   UNL     1       4.368   4.531  19.729  0.00  0.00    +0.000 A 
ATOM      8  H   UNL     1       6.016   2.674  16.640  0.00  0.00    +0.000 HD
ENDROOT
BRANCH   5   9
ATOM      9  S   UNL     1       6.789   4.761  16.078  0.00  0.00    +0.000 S 
ATOM     10  O   UNL     1       6.162   6.056  16.261  0.00  0.00    +0.000 OA
ATOM     11  O   UNL     1       8.071   4.466  16.678  0.00  0.00    +0.000 OA
BRANCH   9  12
ATOM     12  C   UNL     1       6.942   4.522  14.320  0.00  0.00    +0.000 A 
ATOM     13  C   UNL     1       7.788   5.355  13.581  0.00  0.00    +0.000 A 
ATOM     14  C   UNL     1       7.807   5.249  12.190  0.00  0.00    +0.000 A 
ATOM     15  C   UNL     1       6.999   4.304  11.549  0.00  0.00    +0.000 A 
ATOM     16  C   UNL     1       6.191   3.446  12.297  0.00  0.00    +0.000 A 
ATOM     17  C   UNL     1       6.169   3.544  13.687  0.00  0.00    +0.000 A 
ENDBRANCH   9  12
ENDBRANCH   5   9
BRANCH   1  18
ATOM     18  O   UNL     1       2.410   5.643  20.407  0.00  0.00    +0.000 OA
BRANCH  18  19
ATOM     19  C   UNL     1       1.098   5.090  20.579  0.00  0.00    +0.000 C 
BRANCH  19  20
ATOM     20  C   UNL     1       1.216   3.593  20.849  0.00  0.00    +0.000 C 
BRANCH  20  22
ATOM     21  C   UNL     1       1.520   1.942  19.196  0.00  0.00    +0.000 C 
ATOM     22  O   UNL     1       0.611   2.868  19.778  0.00  0.00    +0.000 OA
ENDBRANCH  20  22
ENDBRANCH  19  20
ENDBRANCH  18  19
ENDBRANCH   1  18
TORSDOF 6
ENDMDL
MODEL 5
REMARK VINA RESULT:      -6.7      3.162      4.990
REMARK  Name = 
REMARK  7 active torsions:
REMARK  status: ('A' for Active; 'I' for Inactive)
REMARK    1  A    between atoms: C_1  and  O_2
REMARK    2  A    between atoms: O_2  and  C_3
REMARK    3  A    between atoms: C_3  and  C_4
REMARK    4  A    between atoms: C_4  and  O_5
REMARK    5  A    between atoms: O_5  and  C_6
REMARK    6  A    between atoms: N_10  and  S_11
REMARK    7  A    between atoms: S_11  and  C_14
REMARK                            x       y       z     vdW  Elec       q    Type
REMARK                         _______ _______ _______ _____ _____    ______ ____
ROOT
ATOM      1  C   UNL     1       6.316   5.102  16.015  0.00  0.00    +0.000 A 
ATOM      2  C   UNL     1       6.292   6.370  16.541  0.00  0.00    +0.000 A 
ATOM      3  N   UNL     1       5.670   6.693  17.698  0.00  0.00    +0.000 NA
ATOM      4  C   UNL     1       5.054   5.694  18.321  0.00  0.00    +0.000 A 
ATOM      5  N   UNL     1       4.318   6.070  19.439  0.00  0.00    +0.000 N 
ATOM      6  N   UNL     1       5.036   4.411  17.950  0.00  0.00    +0.000 NA
ATOM      7  C   UNL     1       5.667   4.148  16.778  0.00  0.00    +0.000 A 
ATOM      8  H   UNL     1       4.521   5.573  20.295  0.00  0.00    +0.000 HD
ENDROOT
BRANCH   5   9
ATOM      9  S   UNL     1       2.699   6.354  19.138  0.00  0.00    +0.000 S 
ATOM     10  O   UNL     1       2.237   7.250  20.181  0.00  0.00    +0.000 OA
ATOM     11  O   UNL     1       2.513   6.682  17.742  0.00  0.00    +0.000 OA
BRANCH   9  12
ATOM     12  C   UNL     1       1.911   4.785  19.439  0.00  0.00    +0.000 A 
ATOM     13  C   UNL     1       1.730   4.345  20.754  0.00  0.00    +0.000 A 
ATOM     14  C   UNL     1       1.231   3.062  20.982  0.00  0.00    +0.000 A 
ATOM     15  C   UNL     1       0.901   2.238  19.902  0.00  0.00    +0.000 A 
ATOM     16  C   UNL     1       1.042   2.701  18.593  0.00  0.00    +0.000 A 
ATOM     17  C   UNL     1       1.537   3.982  18.358  0.00  0.00    +0.000 A 
ENDBRANCH   9  12
ENDBRANCH   5   9
BRANCH   1  18
ATOM     18  O   UNL     1       6.897   4.706  14.853  0.00  0.00    +0.000 OA
BRANCH  18  19
ATOM     19  C   UNL     1       6.249   3.628  14.163  0.00  0.00    +0.000 C 
BRANCH  19  20
ATOM     20  C   UNL     1       6.354   3.859  12.659  0.00  0.00    +0.000 C 
BRANCH  20  22
ATOM     21  C   UNL     1       4.433   3.194  11.468  0.00  0.00    +0.000 C 
ATOM     22  O   UNL     1       5.703   2.794  11.968  0.00  0.00    +0.000 OA
ENDBRANCH  20  22
ENDBRANCH  19  20
ENDBRANCH  18  19
ENDBRANCH   1  18
TORSDOF 6
ENDMDL
MODEL 6
REMARK VINA RESULT:      -6.5      3.666      7.208
REMARK  Name = 
REMARK  7 active torsions:
REMARK  status: ('A' for Active; 'I' for Inactive)
REMARK    1  A    between atoms: C_1  and  O_2
REMARK    2  A    between atoms: O_2  and  C_3
REMARK    3  A    between atoms: C_3  and  C_4
REMARK    4  A    between atoms: C_4  and  O_5
REMARK    5  A    between atoms: O_5  and  C_6
REMARK    6  A    between atoms: N_10  and  S_11
REMARK    7  A    between atoms: S_11  and  C_14
REMARK                            x       y       z     vdW  Elec       q    Type
REMARK                         _______ _______ _______ _____ _____    ______ ____
ROOT
ATOM      1  C   UNL     1       3.211   5.077  19.469  0.00  0.00    +0.000 A 
ATOM      2  C   UNL     1       2.844   5.000  18.148  0.00  0.00    +0.000 A 
ATOM      3  N   UNL     1       3.626   4.473  17.179  0.00  0.00    +0.000 NA
ATOM      4  C   UNL     1       4.812   4.024  17.575  0.00  0.00    +0.000 A 
ATOM      5  N   UNL     1       5.648   3.601  16.548  0.00  0.00    +0.000 N 
ATOM      6  N   UNL     1       5.277   3.993  18.827  0.00  0.00    +0.000 NA
ATOM      7  C   UNL     1       4.454   4.544  19.754  0.00  0.00    +0.000 A 
ATOM      8  H   UNL     1       6.029   2.670  16.636  0.00  0.00    +0.000 HD
ENDROOT
BRANCH   5   9
ATOM      9  S   UNL     1       6.715   4.766  16.001  0.00  0.00    +0.000 S 
ATOM     10  O   UNL     1       6.084   6.050  16.245  0.00  0.00    +0.000 OA
ATOM     11  O   UNL     1       8.042   4.485  16.501  0.00  0.00    +0.000 OA
BRANCH   9  12
ATOM     12  C   UNL     1       6.740   4.547  14.234  0.00  0.00    +0.000 A 
ATOM     13  C   UNL     1       5.870   3.627  13.640  0.00  0.00    +0.000 A 
ATOM     14  C   UNL     1       5.982   3.365  12.274  0.00  0.00    +0.000 A 
ATOM     15  C   UNL     1       6.944   4.033  11.509  0.00  0.00    +0.000 A 
ATOM     16  C   UNL     1       7.777   4.983  12.101  0.00  0.00    +0.000 A 
ATOM     17  C   UNL     1       7.670   5.252  13.464  0.00  0.00    +0.000 A 
ENDBRANCH   9  12
ENDBRANCH   5   9
BRANCH   1  18
ATOM     18  O   UNL     1       2.493   5.612  20.491  0.00  0.00    +0.000 OA
BRANCH  18  19
ATOM     19  C   UNL     1       1.133   5.172  20.599  0.00  0.00    +0.000 C 
BRANCH  19  20
ATOM     20  C   UNL     1       1.101   3.648  20.666  0.00  0.00    +0.000 C 
BRANCH  20  22
ATOM     21  C   UNL     1       2.658   2.229  21.719  0.00  0.00    +0.000 C 
ATOM     22  O   UNL     1       1.651   3.215  21.909  0.00  0.00    +0.000 OA
ENDBRANCH  20  22
ENDBRANCH  19  20
ENDBRANCH  18  19
ENDBRANCH   1  18
TORSDOF 6
ENDMDL
MODEL 7
REMARK VINA RESULT:      -6.5      3.346      7.243
REMARK  Name = 
REMARK  7 active torsions:
REMARK  status: ('A' for Active; 'I' for Inactive)
REMARK    1  A    between atoms: C_1  and  O_2
REMARK    2  A    between atoms: O_2  and  C_3
REMARK    3  A    between atoms: C_3  and  C_4
REMARK    4  A    between atoms: C_4  and  O_5
REMARK    5  A    between atoms: O_5  and  C_6
REMARK    6  A    between atoms: N_10  and  S_11
REMARK    7  A    between atoms: S_11  and  C_14
REMARK                            x       y       z     vdW  Elec       q    Type
REMARK                         _______ _______ _______ _____ _____    ______ ____
ROOT
ATOM      1  C   UNL     1       3.041   4.483  19.169  0.00  0.00    +0.000 A 
ATOM      2  C   UNL     1       3.151   3.711  18.039  0.00  0.00    +0.000 A 
ATOM      3  N   UNL     1       4.281   3.608  17.304  0.00  0.00    +0.000 NA
ATOM      4  C   UNL     1       5.317   4.319  17.736  0.00  0.00    +0.000 A 
ATOM      5  N   UNL     1       6.428   4.298  16.900  0.00  0.00    +0.000 N 
ATOM      6  N   UNL     1       5.366   5.071  18.839  0.00  0.00    +0.000 NA
ATOM      7  C   UNL     1       4.201   5.145  19.530  0.00  0.00    +0.000 A 
ATOM      8  H   UNL     1       7.304   4.034  17.329  0.00  0.00    +0.000 HD
ENDROOT
BRANCH   5   9
ATOM      9  S   UNL     1       6.508   5.573  15.823  0.00  0.00    +0.000 S 
ATOM     10  O   UNL     1       5.198   6.197  15.825  0.00  0.00    +0.000 OA
ATOM     11  O   UNL     1       7.700   6.351  16.075  0.00  0.00    +0.000 OA
BRANCH   9  12
ATOM     12  C   UNL     1       6.690   4.796  14.231  0.00  0.00    +0.000 A 
ATOM     13  C   UNL     1       7.660   5.266  13.341  0.00  0.00    +0.000 A 
ATOM     14  C   UNL     1       7.713   4.741  12.049  0.00  0.00    +0.000 A 
ATOM     15  C   UNL     1       6.814   3.742  11.662  0.00  0.00    +0.000 A 
ATOM     16  C   UNL     1       5.879   3.247  12.571  0.00  0.00    +0.000 A 
ATOM     17  C   UNL     1       5.821   3.764  13.863  0.00  0.00    +0.000 A 
ENDBRANCH   9  12
ENDBRANCH   5   9
BRANCH   1  18
ATOM     18  O   UNL     1       1.938   4.655  19.943  0.00  0.00    +0.000 OA
BRANCH  18  19
ATOM     19  C   UNL     1       0.995   3.575  19.939  0.00  0.00    +0.000 C 
BRANCH  19  20
ATOM     20  C   UNL     1       1.020   2.881  21.298  0.00  0.00    +0.000 C 
BRANCH  20  22
ATOM     21  C   UNL     1       3.206   2.048  21.573  0.00  0.00    +0.000 C 
ATOM     22  O   UNL     1       2.292   3.084  21.912  0.00  0.00    +0.000 OA
ENDBRANCH  20  22
ENDBRANCH  19  20
ENDBRANCH  18  19
ENDBRANCH   1  18
TORSDOF 6
ENDMDL
MODEL 8
REMARK VINA RESULT:      -6.5      4.258      6.580
REMARK  Name = 
REMARK  7 active torsions:
REMARK  status: ('A' for Active; 'I' for Inactive)
REMARK    1  A    between atoms: C_1  and  O_2
REMARK    2  A    between atoms: O_2  and  C_3
REMARK    3  A    between atoms: C_3  and  C_4
REMARK    4  A    between atoms: C_4  and  O_5
REMARK    5  A    between atoms: O_5  and  C_6
REMARK    6  A    between atoms: N_10  and  S_11
REMARK    7  A    between atoms: S_11  and  C_14
REMARK                            x       y       z     vdW  Elec       q    Type
REMARK                         _______ _______ _______ _____ _____    ______ ____
ROOT
ATOM      1  C   UNL     1       1.617   8.022  20.286  0.00  0.00    +0.000 A 
ATOM      2  C   UNL     1       2.079   7.953  18.995  0.00  0.00    +0.000 A 
ATOM      3  N   UNL     1       2.520   6.815  18.413  0.00  0.00    +0.000 NA
ATOM      4  C   UNL     1       2.493   5.728  19.178  0.00  0.00    +0.000 A 
ATOM      5  N   UNL     1       3.065   4.598  18.604  0.00  0.00    +0.000 N 
ATOM      6  N   UNL     1       2.029   5.641  20.427  0.00  0.00    +0.000 NA
ATOM      7  C   UNL     1       1.609   6.816  20.961  0.00  0.00    +0.000 A 
ATOM      8  H   UNL     1       2.490   3.767  18.586  0.00  0.00    +0.000 HD
ENDROOT
BRANCH   5   9
ATOM      9  S   UNL     1       4.669   4.356  19.004  0.00  0.00    +0.000 S 
ATOM     10  O   UNL     1       5.102   5.547  19.710  0.00  0.00    +0.000 OA
ATOM     11  O   UNL     1       4.833   3.045  19.591  0.00  0.00    +0.000 OA
BRANCH   9  12
ATOM     12  C   UNL     1       5.520   4.363  17.439  0.00  0.00    +0.000 A 
ATOM     13  C   UNL     1       6.894   4.620  17.402  0.00  0.00    +0.000 A 
ATOM     14  C   UNL     1       7.531   4.753  16.167  0.00  0.00    +0.000 A 
ATOM     15  C   UNL     1       6.800   4.611  14.984  0.00  0.00    +0.000 A 
ATOM     16  C   UNL     1       5.438   4.309  15.030  0.00  0.00    +0.000 A 
ATOM     17  C   UNL     1       4.796   4.173  16.259  0.00  0.00    +0.000 A 
ENDBRANCH   9  12
ENDBRANCH   5   9
BRANCH   1  18
ATOM     18  O   UNL     1       1.182   9.128  20.944  0.00  0.00    +0.000 OA
BRANCH  18  19
ATOM     19  C   UNL     1       1.325   9.106  22.371  0.00  0.00    +0.000 C 
BRANCH  19  20
ATOM     20  C   UNL     1       0.017   9.554  23.014  0.00  0.00    +0.000 C 
BRANCH  20  22
ATOM     21  C   UNL     1      -1.479  11.371  23.121  0.00  0.00    +0.000 C 
ATOM     22  O   UNL     1      -0.151  10.958  22.822  0.00  0.00    +0.000 OA
ENDBRANCH  20  22
ENDBRANCH  19  20
ENDBRANCH  18  19
ENDBRANCH   1  18
TORSDOF 6
ENDMDL
MODEL 9
REMARK VINA RESULT:      -6.5      3.646      5.456
REMARK  Name = 
REMARK  7 active torsions:
REMARK  status: ('A' for Active; 'I' for Inactive)
REMARK    1  A    between atoms: C_1  and  O_2
REMARK    2  A    between atoms: O_2  and  C_3
REMARK    3  A    between atoms: C_3  and  C_4
REMARK    4  A    between atoms: C_4  and  O_5
REMARK    5  A    between atoms: O_5  and  C_6
REMARK    6  A    between atoms: N_10  and  S_11
REMARK    7  A    between atoms: S_11  and  C_14
REMARK                            x       y       z     vdW  Elec       q    Type
REMARK                         _______ _______ _______ _____ _____    ______ ____
ROOT
ATOM      1  C   UNL     1       6.908   5.043  16.509  0.00  0.00    +0.000 A 
ATOM      2  C   UNL     1       6.524   6.303  16.897  0.00  0.00    +0.000 A 
ATOM      3  N   UNL     1       5.758   6.555  17.983  0.00  0.00    +0.000 NA
ATOM      4  C   UNL     1       5.373   5.489  18.677  0.00  0.00    +0.000 A 
ATOM      5  N   UNL     1       4.486   5.758  19.714  0.00  0.00    +0.000 N 
ATOM      6  N   UNL     1       5.710   4.218  18.443  0.00  0.00    +0.000 NA
ATOM      7  C   UNL     1       6.470   4.025  17.336  0.00  0.00    +0.000 A 
ATOM      8  H   UNL     1       4.747   5.409  20.626  0.00  0.00    +0.000 HD
ENDROOT
BRANCH   5   9
ATOM      9  S   UNL     1       2.875   5.583  19.309  0.00  0.00    +0.000 S 
ATOM     10  O   UNL     1       2.844   5.076  17.949  0.00  0.00    +0.000 OA
ATOM     11  O   UNL     1       2.176   4.897  20.372  0.00  0.00    +0.000 OA
BRANCH   9  12
ATOM     12  C   UNL     1       2.254   7.251  19.235  0.00  0.00    +0.000 A 
ATOM     13  C   UNL     1       1.676   7.823  20.373  0.00  0.00    +0.000 A 
ATOM     14  C   UNL     1       1.076   9.079  20.276  0.00  0.00    +0.000 A 
ATOM     15  C   UNL     1       1.073   9.761  19.055  0.00  0.00    +0.000 A 
ATOM     16  C   UNL     1       1.693   9.203  17.936  0.00  0.00    +0.000 A 
ATOM     17  C   UNL     1       2.296   7.950  18.026  0.00  0.00    +0.000 A 
ENDBRANCH   9  12
ENDBRANCH   5   9
BRANCH   1  18
ATOM     18  O   UNL     1       7.653   4.711  15.422  0.00  0.00    +0.000 OA
BRANCH  18  19
ATOM     19  C   UNL     1       7.078   5.023  14.147  0.00  0.00    +0.000 C 
BRANCH  19  20
ATOM     20  C   UNL     1       6.226   3.848  13.678  0.00  0.00    +0.000 C 
BRANCH  20  22
ATOM     21  C   UNL     1       5.659   2.548  11.797  0.00  0.00    +0.000 C 
ATOM     22  O   UNL     1       6.403   3.663  12.274  0.00  0.00    +0.000 OA
ENDBRANCH  20  22
ENDBRANCH  19  20
ENDBRANCH  18  19
ENDBRANCH   1  18
TORSDOF 6
ENDMDL
