MODEL 1
REMARK VINA RESULT:      -7.7      0.000      0.000
REMARK  Name = 
REMARK  14 active torsions:
REMARK  status: ('A' for Active; 'I' for Inactive)
REMARK    1  A    between atoms: C_5  and  C_6
REMARK    2  A    between atoms: C_6  and  C_7
REMARK    3  A    between atoms: C_6  and  C_8
REMARK    4  A    between atoms: C_8  and  O_9
REMARK    5  A    between atoms: C_8  and  C_13
REMARK    6  A    between atoms: O_9  and  C_10
REMARK    7  A    between atoms: C_10  and  C_11
REMARK    8  A    between atoms: C_13  and  C_15
REMARK    9  A    between atoms: C_16  and  C_17
REMARK   10  A    between atoms: C_16  and  C_18
REMARK   11  A    between atoms: C_20  and  O_21
REMARK   12  A    between atoms: O_21  and  C_22
REMARK   13  A    between atoms: C_22  and  C_23
REMARK   14  A    between atoms: C_25  and  C_26
REMARK                            x       y       z     vdW  Elec       q    Type
REMARK                         _______ _______ _______ _____ _____    ______ ____
ROOT
ATOM      1  C   UNL     1       2.033   9.824  17.850  0.00  0.00    +0.000 C 
ATOM      2  C   UNL     1       2.172   8.626  18.445  0.00  0.00    +0.000 C 
ATOM      3  C   UNL     1       2.920   7.569  17.818  0.00  0.00    +0.000 C 
ATOM      4  C   UNL     1       3.144   6.357  18.355  0.00  0.00    +0.000 C 
ATOM      5  C   UNL     1       3.980   5.335  17.593  0.00  0.00    +0.000 C 
ATOM      6  C   UNL     1       3.209   4.001  17.490  0.00  0.00    +0.000 C 
ATOM      7  C   UNL     1       2.585   3.452  18.782  0.00  0.00    +0.000 C 
ATOM      8  C   UNL     1       1.801   4.540  19.557  0.00  0.00    +0.000 C 
ATOM      9  C   UNL     1       1.420   4.007  20.954  0.00  0.00    +0.000 C 
ATOM     10  C   UNL     1       2.534   5.919  19.672  0.00  0.00    +0.000 C 
ATOM     11  C   UNL     1       1.562   6.948  20.307  0.00  0.00    +0.000 C 
ATOM     12  C   UNL     1       1.580   8.388  19.800  0.00  0.00    +0.000 C 
ENDROOT
BRANCH   5  13
ATOM     13  C   UNL     1       5.505   5.203  17.968  0.00  0.00    +0.000 C 
ATOM     14  C   UNL     1       5.846   5.493  19.421  0.00  0.00    +0.000 C 
BRANCH  13  15
ATOM     15  C   UNL     1       6.473   5.945  17.008  0.00  0.00    +0.000 C 
BRANCH  15  16
ATOM     16  C   UNL     1       7.351   4.930  16.274  0.00  0.00    +0.000 C 
ATOM     17  O   UNL     1       8.101   4.165  16.880  0.00  0.00    +0.000 OA
BRANCH  16  18
ATOM     18  C   UNL     1       7.357   4.950  14.783  0.00  0.00    +0.000 C 
ATOM     19  C   UNL     1       6.472   4.286  14.013  0.00  0.00    +0.000 C 
ATOM     20  C   UNL     1       5.262   3.536  14.500  0.00  0.00    +0.000 C 
ATOM     21  C   UNL     1       6.648   4.238  12.518  0.00  0.00    +0.000 C 
ENDBRANCH  16  18
ENDBRANCH  15  16
BRANCH  15  22
ATOM     22  O   UNL     1       7.487   6.667  17.764  0.00  0.00    +0.000 OA
BRANCH  22  23
ATOM     23  C   UNL     1       7.559   8.016  17.648  0.00  0.00    +0.000 C 
ATOM     24  C   UNL     1       8.602   8.563  18.578  0.00  0.00    +0.000 C 
ATOM     25  O   UNL     1       6.850   8.705  16.929  0.00  0.00    +0.000 OA
ENDBRANCH  22  23
ENDBRANCH  15  22
ENDBRANCH  13  15
ENDBRANCH   5  13
BRANCH   7  26
ATOM     26  O   UNL     1       3.520   2.851  19.697  0.00  0.00    +0.000 OA
BRANCH  26  27
ATOM     27  C   UNL     1       4.025   1.616  19.431  0.00  0.00    +0.000 C 
ATOM     28  C   UNL     1       5.023   1.243  20.496  0.00  0.00    +0.000 C 
ATOM     29  O   UNL     1       3.760   0.926  18.459  0.00  0.00    +0.000 OA
ENDBRANCH  26  27
ENDBRANCH   7  26
TORSDOF 8
ENDMDL
MODEL 2
REMARK VINA RESULT:      -7.4      1.009      1.116
REMARK  Name = 
REMARK  14 active torsions:
REMARK  status: ('A' for Active; 'I' for Inactive)
REMARK    1  A    between atoms: C_5  and  C_6
REMARK    2  A    between atoms: C_6  and  C_7
REMARK    3  A    between atoms: C_6  and  C_8
REMARK    4  A    between atoms: C_8  and  O_9
REMARK    5  A    between atoms: C_8  and  C_13
REMARK    6  A    between atoms: O_9  and  C_10
REMARK    7  A    between atoms: C_10  and  C_11
REMARK    8  A    between atoms: C_13  and  C_15
REMARK    9  A    between atoms: C_16  and  C_17
REMARK   10  A    between atoms: C_16  and  C_18
REMARK   11  A    between atoms: C_20  and  O_21
REMARK   12  A    between atoms: O_21  and  C_22
REMARK   13  A    between atoms: C_22  and  C_23
REMARK   14  A    between atoms: C_25  and  C_26
REMARK                            x       y       z     vdW  Elec       q    Type
REMARK                         _______ _______ _______ _____ _____    ______ ____
ROOT
ATOM      1  C   UNL     1       1.987   9.684  18.022  0.00  0.00    +0.000 C 
ATOM      2  C   UNL     1       2.058   8.469  18.592  0.00  0.00    +0.000 C 
ATOM      3  C   UNL     1       2.673   7.364  17.908  0.00  0.00    +0.000 C 
ATOM      4  C   UNL     1       2.826   6.128  18.414  0.00  0.00    +0.000 C 
ATOM      5  C   UNL     1       3.522   5.052  17.589  0.00  0.00    +0.000 C 
ATOM      6  C   UNL     1       2.635   3.791  17.518  0.00  0.00    +0.000 C 
ATOM      7  C   UNL     1       2.046   3.274  18.839  0.00  0.00    +0.000 C 
ATOM      8  C   UNL     1       1.407   4.410  19.676  0.00  0.00    +0.000 C 
ATOM      9  C   UNL     1       1.068   3.886  21.086  0.00  0.00    +0.000 C 
ATOM     10  C   UNL     1       2.262   5.720  19.761  0.00  0.00    +0.000 C 
ATOM     11  C   UNL     1       1.422   6.816  20.469  0.00  0.00    +0.000 C 
ATOM     12  C   UNL     1       1.532   8.258  19.979  0.00  0.00    +0.000 C 
ENDROOT
BRANCH   5  13
ATOM     13  C   UNL     1       5.051   4.784  17.866  0.00  0.00    +0.000 C 
ATOM     14  C   UNL     1       5.505   5.027  19.297  0.00  0.00    +0.000 C 
BRANCH  13  15
ATOM     15  C   UNL     1       6.018   5.452  16.853  0.00  0.00    +0.000 C 
BRANCH  15  16
ATOM     16  C   UNL     1       6.281   4.499  15.685  0.00  0.00    +0.000 C 
ATOM     17  O   UNL     1       5.993   3.304  15.748  0.00  0.00    +0.000 OA
BRANCH  16  18
ATOM     18  C   UNL     1       6.992   5.029  14.487  0.00  0.00    +0.000 C 
ATOM     19  C   UNL     1       6.822   4.559  13.235  0.00  0.00    +0.000 C 
ATOM     20  C   UNL     1       5.807   3.535  12.804  0.00  0.00    +0.000 C 
ATOM     21  C   UNL     1       7.696   5.049  12.111  0.00  0.00    +0.000 C 
ENDBRANCH  16  18
ENDBRANCH  15  16
BRANCH  15  22
ATOM     22  O   UNL     1       7.358   5.550  17.414  0.00  0.00    +0.000 OA
BRANCH  22  23
ATOM     23  C   UNL     1       7.740   6.708  18.006  0.00  0.00    +0.000 C 
ATOM     24  C   UNL     1       7.314   7.884  17.176  0.00  0.00    +0.000 C 
ATOM     25  O   UNL     1       8.381   6.796  19.044  0.00  0.00    +0.000 OA
ENDBRANCH  22  23
ENDBRANCH  15  22
ENDBRANCH  13  15
ENDBRANCH   5  13
BRANCH   7  26
ATOM     26  O   UNL     1       2.981   2.579  19.687  0.00  0.00    +0.000 OA
BRANCH  26  27
ATOM     27  C   UNL     1       3.818   1.652  19.149  0.00  0.00    +0.000 C 
ATOM     28  C   UNL     1       4.938   1.368  20.117  0.00  0.00    +0.000 C 
ATOM     29  O   UNL     1       3.720   1.153  18.039  0.00  0.00    +0.000 OA
ENDBRANCH  26  27
ENDBRANCH   7  26
TORSDOF 8
ENDMDL
MODEL 3
REMARK VINA RESULT:      -7.3      1.481      3.215
REMARK  Name = 
REMARK  14 active torsions:
REMARK  status: ('A' for Active; 'I' for Inactive)
REMARK    1  A    between atoms: C_5  and  C_6
REMARK    2  A    between atoms: C_6  and  C_7
REMARK    3  A    between atoms: C_6  and  C_8
REMARK    4  A    between atoms: C_8  and  O_9
REMARK    5  A    between atoms: C_8  and  C_13
REMARK    6  A    between atoms: O_9  and  C_10
REMARK    7  A    between atoms: C_10  and  C_11
REMARK    8  A    between atoms: C_13  and  C_15
REMARK    9  A    between atoms: C_16  and  C_17
REMARK   10  A    between atoms: C_16  and  C_18
REMARK   11  A    between atoms: C_20  and  O_21
REMARK   12  A    between atoms: O_21  and  C_22
REMARK   13  A    between atoms: C_22  and  C_23
REMARK   14  A    between atoms: C_25  and  C_26
REMARK                            x       y       z     vdW  Elec       q    Type
REMARK                         _______ _______ _______ _____ _____    ______ ____
ROOT
ATOM      1  C   UNL     1       0.837  10.095  18.539  0.00  0.00    +0.000 C 
ATOM      2  C   UNL     1       1.369   8.950  19.000  0.00  0.00    +0.000 C 
ATOM      3  C   UNL     1       2.060   8.047  18.119  0.00  0.00    +0.000 C 
ATOM      4  C   UNL     1       2.658   6.903  18.497  0.00  0.00    +0.000 C 
ATOM      5  C   UNL     1       3.381   6.050  17.462  0.00  0.00    +0.000 C 
ATOM      6  C   UNL     1       2.872   4.594  17.535  0.00  0.00    +0.000 C 
ATOM      7  C   UNL     1       2.796   3.949  18.927  0.00  0.00    +0.000 C 
ATOM      8  C   UNL     1       2.113   4.876  19.962  0.00  0.00    +0.000 C 
ATOM      9  C   UNL     1       2.293   4.293  21.378  0.00  0.00    +0.000 C 
ATOM     10  C   UNL     1       2.583   6.370  19.913  0.00  0.00    +0.000 C 
ATOM     11  C   UNL     1       1.690   7.203  20.871  0.00  0.00    +0.000 C 
ATOM     12  C   UNL     1       1.287   8.617  20.457  0.00  0.00    +0.000 C 
ENDROOT
BRANCH   5  13
ATOM     13  C   UNL     1       4.944   6.209  17.337  0.00  0.00    +0.000 C 
ATOM     14  C   UNL     1       5.434   7.621  17.056  0.00  0.00    +0.000 C 
BRANCH  13  15
ATOM     15  C   UNL     1       5.625   5.185  16.390  0.00  0.00    +0.000 C 
BRANCH  15  16
ATOM     16  C   UNL     1       7.003   4.812  16.939  0.00  0.00    +0.000 C 
ATOM     17  O   UNL     1       7.923   4.469  16.197  0.00  0.00    +0.000 OA
BRANCH  16  18
ATOM     18  C   UNL     1       7.189   4.774  18.418  0.00  0.00    +0.000 C 
ATOM     19  C   UNL     1       7.817   5.733  19.126  0.00  0.00    +0.000 C 
ATOM     20  C   UNL     1       8.311   7.050  18.592  0.00  0.00    +0.000 C 
ATOM     21  C   UNL     1       8.095   5.538  20.594  0.00  0.00    +0.000 C 
ENDBRANCH  16  18
ENDBRANCH  15  16
BRANCH  15  22
ATOM     22  O   UNL     1       6.008   5.822  15.138  0.00  0.00    +0.000 OA
BRANCH  22  23
ATOM     23  C   UNL     1       6.369   5.045  14.087  0.00  0.00    +0.000 C 
ATOM     24  C   UNL     1       5.353   3.961  13.868  0.00  0.00    +0.000 C 
ATOM     25  O   UNL     1       7.395   5.168  13.433  0.00  0.00    +0.000 OA
ENDBRANCH  22  23
ENDBRANCH  15  22
ENDBRANCH  13  15
ENDBRANCH   5  13
BRANCH   7  26
ATOM     26  O   UNL     1       4.064   3.541  19.474  0.00  0.00    +0.000 OA
BRANCH  26  27
ATOM     27  C   UNL     1       4.335   2.218  19.636  0.00  0.00    +0.000 C 
ATOM     28  C   UNL     1       3.603   1.426  18.584  0.00  0.00    +0.000 C 
ATOM     29  O   UNL     1       5.021   1.728  20.519  0.00  0.00    +0.000 OA
ENDBRANCH  26  27
ENDBRANCH   7  26
TORSDOF 8
ENDMDL
MODEL 4
REMARK VINA RESULT:      -7.3      0.894      1.200
REMARK  Name = 
REMARK  14 active torsions:
REMARK  status: ('A' for Active; 'I' for Inactive)
REMARK    1  A    between atoms: C_5  and  C_6
REMARK    2  A    between atoms: C_6  and  C_7
REMARK    3  A    between atoms: C_6  and  C_8
REMARK    4  A    between atoms: C_8  and  O_9
REMARK    5  A    between atoms: C_8  and  C_13
REMARK    6  A    between atoms: O_9  and  C_10
REMARK    7  A    between atoms: C_10  and  C_11
REMARK    8  A    between atoms: C_13  and  C_15
REMARK    9  A    between atoms: C_16  and  C_17
REMARK   10  A    between atoms: C_16  and  C_18
REMARK   11  A    between atoms: C_20  and  O_21
REMARK   12  A    between atoms: O_21  and  C_22
REMARK   13  A    between atoms: C_22  and  C_23
REMARK   14  A    between atoms: C_25  and  C_26
REMARK                            x       y       z     vdW  Elec       q    Type
REMARK                         _______ _______ _______ _____ _____    ______ ____
ROOT
ATOM      1  C   UNL     1       1.790   9.563  18.089  0.00  0.00    +0.000 C 
ATOM      2  C   UNL     1       1.970   8.383  18.710  0.00  0.00    +0.000 C 
ATOM      3  C   UNL     1       2.630   7.291  18.048  0.00  0.00    +0.000 C 
ATOM      4  C   UNL     1       2.889   6.094  18.602  0.00  0.00    +0.000 C 
ATOM      5  C   UNL     1       3.622   5.029  17.795  0.00  0.00    +0.000 C 
ATOM      6  C   UNL     1       2.822   3.708  17.822  0.00  0.00    +0.000 C 
ATOM      7  C   UNL     1       2.329   3.217  19.191  0.00  0.00    +0.000 C 
ATOM      8  C   UNL     1       1.649   4.347  20.004  0.00  0.00    +0.000 C 
ATOM      9  C   UNL     1       1.408   3.870  21.451  0.00  0.00    +0.000 C 
ATOM     10  C   UNL     1       2.414   5.714  19.990  0.00  0.00    +0.000 C 
ATOM     11  C   UNL     1       1.531   6.784  20.686  0.00  0.00    +0.000 C 
ATOM     12  C   UNL     1       1.520   8.205  20.127  0.00  0.00    +0.000 C 
ENDROOT
BRANCH   5  13
ATOM     13  C   UNL     1       5.176   4.878  18.013  0.00  0.00    +0.000 C 
ATOM     14  C   UNL     1       5.671   5.198  19.415  0.00  0.00    +0.000 C 
BRANCH  13  15
ATOM     15  C   UNL     1       6.050   5.579  16.939  0.00  0.00    +0.000 C 
BRANCH  15  16
ATOM     16  C   UNL     1       6.853   4.532  16.163  0.00  0.00    +0.000 C 
ATOM     17  O   UNL     1       8.042   4.322  16.402  0.00  0.00    +0.000 OA
BRANCH  16  18
ATOM     18  C   UNL     1       6.188   3.829  15.029  0.00  0.00    +0.000 C 
ATOM     19  C   UNL     1       6.432   4.089  13.730  0.00  0.00    +0.000 C 
ATOM     20  C   UNL     1       7.494   5.011  13.195  0.00  0.00    +0.000 C 
ATOM     21  C   UNL     1       5.602   3.440  12.653  0.00  0.00    +0.000 C 
ENDBRANCH  16  18
ENDBRANCH  15  16
BRANCH  15  22
ATOM     22  O   UNL     1       7.133   6.323  17.567  0.00  0.00    +0.000 OA
BRANCH  22  23
ATOM     23  C   UNL     1       7.234   7.656  17.340  0.00  0.00    +0.000 C 
ATOM     24  C   UNL     1       5.869   8.268  17.219  0.00  0.00    +0.000 C 
ATOM     25  O   UNL     1       8.279   8.275  17.204  0.00  0.00    +0.000 OA
ENDBRANCH  22  23
ENDBRANCH  15  22
ENDBRANCH  13  15
ENDBRANCH   5  13
BRANCH   7  26
ATOM     26  O   UNL     1       3.345   2.629  20.025  0.00  0.00    +0.000 OA
BRANCH  26  27
ATOM     27  C   UNL     1       4.179   1.687  19.508  0.00  0.00    +0.000 C 
ATOM     28  C   UNL     1       3.545   1.073  18.287  0.00  0.00    +0.000 C 
ATOM     29  O   UNL     1       5.254   1.346  19.975  0.00  0.00    +0.000 OA
ENDBRANCH  26  27
ENDBRANCH   7  26
TORSDOF 8
ENDMDL
MODEL 5
REMARK VINA RESULT:      -7.3      1.069      1.431
REMARK  Name = 
REMARK  14 active torsions:
REMARK  status: ('A' for Active; 'I' for Inactive)
REMARK    1  A    between atoms: C_5  and  C_6
REMARK    2  A    between atoms: C_6  and  C_7
REMARK    3  A    between atoms: C_6  and  C_8
REMARK    4  A    between atoms: C_8  and  O_9
REMARK    5  A    between atoms: C_8  and  C_13
REMARK    6  A    between atoms: O_9  and  C_10
REMARK    7  A    between atoms: C_10  and  C_11
REMARK    8  A    between atoms: C_13  and  C_15
REMARK    9  A    between atoms: C_16  and  C_17
REMARK   10  A    between atoms: C_16  and  C_18
REMARK   11  A    between atoms: C_20  and  O_21
REMARK   12  A    between atoms: O_21  and  C_22
REMARK   13  A    between atoms: C_22  and  C_23
REMARK   14  A    between atoms: C_25  and  C_26
REMARK                            x       y       z     vdW  Elec       q    Type
REMARK                         _______ _______ _______ _____ _____    ______ ____
ROOT
ATOM      1  C   UNL     1       1.220   9.669  18.397  0.00  0.00    +0.000 C 
ATOM      2  C   UNL     1       1.555   8.484  18.937  0.00  0.00    +0.000 C 
ATOM      3  C   UNL     1       2.192   7.464  18.148  0.00  0.00    +0.000 C 
ATOM      4  C   UNL     1       2.598   6.269  18.611  0.00  0.00    +0.000 C 
ATOM      5  C   UNL     1       3.288   5.288  17.670  0.00  0.00    +0.000 C 
ATOM      6  C   UNL     1       2.585   3.915  17.740  0.00  0.00    +0.000 C 
ATOM      7  C   UNL     1       2.306   3.341  19.137  0.00  0.00    +0.000 C 
ATOM      8  C   UNL     1       1.666   4.391  20.079  0.00  0.00    +0.000 C 
ATOM      9  C   UNL     1       1.647   3.846  21.522  0.00  0.00    +0.000 C 
ATOM     10  C   UNL     1       2.333   5.808  20.030  0.00  0.00    +0.000 C 
ATOM     11  C   UNL     1       1.481   6.788  20.879  0.00  0.00    +0.000 C 
ATOM     12  C   UNL     1       1.305   8.223  20.390  0.00  0.00    +0.000 C 
ENDROOT
BRANCH   5  13
ATOM     13  C   UNL     1       4.863   5.238  17.681  0.00  0.00    +0.000 C 
ATOM     14  C   UNL     1       5.496   4.983  19.040  0.00  0.00    +0.000 C 
BRANCH  13  15
ATOM     15  C   UNL     1       5.552   6.425  16.958  0.00  0.00    +0.000 C 
BRANCH  15  16
ATOM     16  C   UNL     1       5.317   6.318  15.450  0.00  0.00    +0.000 C 
ATOM     17  O   UNL     1       5.032   7.302  14.768  0.00  0.00    +0.000 OA
BRANCH  16  18
ATOM     18  C   UNL     1       5.343   4.964  14.825  0.00  0.00    +0.000 C 
ATOM     19  C   UNL     1       6.311   4.532  13.994  0.00  0.00    +0.000 C 
ATOM     20  C   UNL     1       7.584   5.263  13.660  0.00  0.00    +0.000 C 
ATOM     21  C   UNL     1       6.176   3.208  13.288  0.00  0.00    +0.000 C 
ENDBRANCH  16  18
ENDBRANCH  15  16
BRANCH  15  22
ATOM     22  O   UNL     1       7.001   6.281  17.005  0.00  0.00    +0.000 OA
BRANCH  22  23
ATOM     23  C   UNL     1       7.741   7.259  17.584  0.00  0.00    +0.000 C 
ATOM     24  C   UNL     1       8.298   6.783  18.894  0.00  0.00    +0.000 C 
ATOM     25  O   UNL     1       7.901   8.386  17.138  0.00  0.00    +0.000 OA
ENDBRANCH  22  23
ENDBRANCH  15  22
ENDBRANCH  13  15
ENDBRANCH   5  13
BRANCH   7  26
ATOM     26  O   UNL     1       3.458   2.795  19.807  0.00  0.00    +0.000 OA
BRANCH  26  27
ATOM     27  C   UNL     1       3.961   1.594  19.414  0.00  0.00    +0.000 C 
ATOM     28  C   UNL     1       4.977   1.123  20.422  0.00  0.00    +0.000 C 
ATOM     29  O   UNL     1       3.680   1.001  18.384  0.00  0.00    +0.000 OA
ENDBRANCH  26  27
ENDBRANCH   7  26
TORSDOF 8
ENDMDL
MODEL 6
REMARK VINA RESULT:      -6.4      1.488      3.284
REMARK  Name = 
REMARK  14 active torsions:
REMARK  status: ('A' for Active; 'I' for Inactive)
REMARK    1  A    between atoms: C_5  and  C_6
REMARK    2  A    between atoms: C_6  and  C_7
REMARK    3  A    between atoms: C_6  and  C_8
REMARK    4  A    between atoms: C_8  and  O_9
REMARK    5  A    between atoms: C_8  and  C_13
REMARK    6  A    between atoms: O_9  and  C_10
REMARK    7  A    between atoms: C_10  and  C_11
REMARK    8  A    between atoms: C_13  and  C_15
REMARK    9  A    between atoms: C_16  and  C_17
REMARK   10  A    between atoms: C_16  and  C_18
REMARK   11  A    between atoms: C_20  and  O_21
REMARK   12  A    between atoms: O_21  and  C_22
REMARK   13  A    between atoms: C_22  and  C_23
REMARK   14  A    between atoms: C_25  and  C_26
REMARK                            x       y       z     vdW  Elec       q    Type
REMARK                         _______ _______ _______ _____ _____    ______ ____
ROOT
ATOM      1  C   UNL     1       0.756  10.197  18.419  0.00  0.00    +0.000 C 
ATOM      2  C   UNL     1       1.297   9.063  18.896  0.00  0.00    +0.000 C 
ATOM      3  C   UNL     1       2.005   8.159  18.031  0.00  0.00    +0.000 C 
ATOM      4  C   UNL     1       2.612   7.026  18.426  0.00  0.00    +0.000 C 
ATOM      5  C   UNL     1       3.354   6.169  17.406  0.00  0.00    +0.000 C 
ATOM      6  C   UNL     1       2.860   4.709  17.491  0.00  0.00    +0.000 C 
ATOM      7  C   UNL     1       2.779   4.078  18.889  0.00  0.00    +0.000 C 
ATOM      8  C   UNL     1       2.077   5.009  19.908  0.00  0.00    +0.000 C 
ATOM      9  C   UNL     1       2.252   4.442  21.332  0.00  0.00    +0.000 C 
ATOM     10  C   UNL     1       2.531   6.507  19.847  0.00  0.00    +0.000 C 
ATOM     11  C   UNL     1       1.621   7.340  20.789  0.00  0.00    +0.000 C 
ATOM     12  C   UNL     1       1.206   8.744  20.357  0.00  0.00    +0.000 C 
ENDROOT
BRANCH   5  13
ATOM     13  C   UNL     1       4.916   6.345  17.293  0.00  0.00    +0.000 C 
ATOM     14  C   UNL     1       5.380   7.653  16.670  0.00  0.00    +0.000 C 
BRANCH  13  15
ATOM     15  C   UNL     1       5.659   5.135  16.667  0.00  0.00    +0.000 C 
BRANCH  15  16
ATOM     16  C   UNL     1       7.153   5.227  16.981  0.00  0.00    +0.000 C 
ATOM     17  O   UNL     1       7.860   4.223  17.062  0.00  0.00    +0.000 OA
BRANCH  16  18
ATOM     18  C   UNL     1       7.729   6.568  17.289  0.00  0.00    +0.000 C 
ATOM     19  C   UNL     1       8.102   6.966  18.521  0.00  0.00    +0.000 C 
ATOM     20  C   UNL     1       8.138   6.109  19.757  0.00  0.00    +0.000 C 
ATOM     21  C   UNL     1       8.527   8.391  18.765  0.00  0.00    +0.000 C 
ENDBRANCH  16  18
ENDBRANCH  15  16
BRANCH  15  22
ATOM     22  O   UNL     1       5.691   5.250  15.215  0.00  0.00    +0.000 OA
BRANCH  22  23
ATOM     23  C   UNL     1       5.651   4.122  14.464  0.00  0.00    +0.000 C 
ATOM     24  C   UNL     1       5.246   2.949  15.308  0.00  0.00    +0.000 C 
ATOM     25  O   UNL     1       5.944   4.048  13.279  0.00  0.00    +0.000 OA
ENDBRANCH  22  23
ENDBRANCH  15  22
ENDBRANCH  13  15
ENDBRANCH   5  13
BRANCH   7  26
ATOM     26  O   UNL     1       4.047   3.690  19.451  0.00  0.00    +0.000 OA
BRANCH  26  27
ATOM     27  C   UNL     1       4.324   2.373  19.648  0.00  0.00    +0.000 C 
ATOM     28  C   UNL     1       3.652   1.556  18.574  0.00  0.00    +0.000 C 
ATOM     29  O   UNL     1       4.971   1.905  20.570  0.00  0.00    +0.000 OA
ENDBRANCH  26  27
ENDBRANCH   7  26
TORSDOF 8
ENDMDL
MODEL 7
REMARK VINA RESULT:      -6.1      1.244      3.089
REMARK  Name = 
REMARK  14 active torsions:
REMARK  status: ('A' for Active; 'I' for Inactive)
REMARK    1  A    between atoms: C_5  and  C_6
REMARK    2  A    between atoms: C_6  and  C_7
REMARK    3  A    between atoms: C_6  and  C_8
REMARK    4  A    between atoms: C_8  and  O_9
REMARK    5  A    between atoms: C_8  and  C_13
REMARK    6  A    between atoms: O_9  and  C_10
REMARK    7  A    between atoms: C_10  and  C_11
REMARK    8  A    between atoms: C_13  and  C_15
REMARK    9  A    between atoms: C_16  and  C_17
REMARK   10  A    between atoms: C_16  and  C_18
REMARK   11  A    between atoms: C_20  and  O_21
REMARK   12  A    between atoms: O_21  and  C_22
REMARK   13  A    between atoms: C_22  and  C_23
REMARK   14  A    between atoms: C_25  and  C_26
REMARK                            x       y       z     vdW  Elec       q    Type
REMARK                         _______ _______ _______ _____ _____    ______ ____
ROOT
ATOM      1  C   UNL     1       1.761   9.617  18.523  0.00  0.00    +0.000 C 
ATOM      2  C   UNL     1       1.877   8.383  19.043  0.00  0.00    +0.000 C 
ATOM      3  C   UNL     1       2.575   7.343  18.336  0.00  0.00    +0.000 C 
ATOM      4  C   UNL     1       2.776   6.096  18.795  0.00  0.00    +0.000 C 
ATOM      5  C   UNL     1       3.558   5.096  17.951  0.00  0.00    +0.000 C 
ATOM      6  C   UNL     1       2.743   3.794  17.794  0.00  0.00    +0.000 C 
ATOM      7  C   UNL     1       2.138   3.188  19.069  0.00  0.00    +0.000 C 
ATOM      8  C   UNL     1       1.409   4.251  19.928  0.00  0.00    +0.000 C 
ATOM      9  C   UNL     1       1.050   3.648  21.302  0.00  0.00    +0.000 C 
ATOM     10  C   UNL     1       2.189   5.600  20.101  0.00  0.00    +0.000 C 
ATOM     11  C   UNL     1       1.266   6.617  20.823  0.00  0.00    +0.000 C 
ATOM     12  C   UNL     1       1.315   8.084  20.399  0.00  0.00    +0.000 C 
ENDROOT
BRANCH   5  13
ATOM     13  C   UNL     1       5.088   4.896  18.273  0.00  0.00    +0.000 C 
ATOM     14  C   UNL     1       5.545   5.436  19.619  0.00  0.00    +0.000 C 
BRANCH  13  15
ATOM     15  C   UNL     1       6.050   5.338  17.139  0.00  0.00    +0.000 C 
BRANCH  15  16
ATOM     16  C   UNL     1       5.655   6.730  16.640  0.00  0.00    +0.000 C 
ATOM     17  O   UNL     1       4.662   6.906  15.934  0.00  0.00    +0.000 OA
BRANCH  16  18
ATOM     18  C   UNL     1       6.561   7.874  16.946  0.00  0.00    +0.000 C 
ATOM     19  C   UNL     1       7.606   7.806  17.795  0.00  0.00    +0.000 C 
ATOM     20  C   UNL     1       8.122   6.563  18.467  0.00  0.00    +0.000 C 
ATOM     21  C   UNL     1       8.371   9.050  18.162  0.00  0.00    +0.000 C 
ENDBRANCH  16  18
ENDBRANCH  15  16
BRANCH  15  22
ATOM     22  O   UNL     1       5.814   4.555  15.934  0.00  0.00    +0.000 OA
BRANCH  22  23
ATOM     23  C   UNL     1       6.692   4.649  14.905  0.00  0.00    +0.000 C 
ATOM     24  C   UNL     1       6.147   3.956  13.690  0.00  0.00    +0.000 C 
ATOM     25  O   UNL     1       7.793   5.178  14.958  0.00  0.00    +0.000 OA
ENDBRANCH  22  23
ENDBRANCH  15  22
ENDBRANCH  13  15
ENDBRANCH   5  13
BRANCH   7  26
ATOM     26  O   UNL     1       3.078   2.507  19.920  0.00  0.00    +0.000 OA
BRANCH  26  27
ATOM     27  C   UNL     1       4.113   1.819  19.367  0.00  0.00    +0.000 C 
ATOM     28  C   UNL     1       3.625   1.072  18.154  0.00  0.00    +0.000 C 
ATOM     29  O   UNL     1       5.253   1.766  19.801  0.00  0.00    +0.000 OA
ENDBRANCH  26  27
ENDBRANCH   7  26
TORSDOF 8
ENDMDL
MODEL 8
REMARK VINA RESULT:      -6.1      1.144      3.403
REMARK  Name = 
REMARK  14 active torsions:
REMARK  status: ('A' for Active; 'I' for Inactive)
REMARK    1  A    between atoms: C_5  and  C_6
REMARK    2  A    between atoms: C_6  and  C_7
REMARK    3  A    between atoms: C_6  and  C_8
REMARK    4  A    between atoms: C_8  and  O_9
REMARK    5  A    between atoms: C_8  and  C_13
REMARK    6  A    between atoms: O_9  and  C_10
REMARK    7  A    between atoms: C_10  and  C_11
REMARK    8  A    between atoms: C_13  and  C_15
REMARK    9  A    between atoms: C_16  and  C_17
REMARK   10  A    between atoms: C_16  and  C_18
REMARK   11  A    between atoms: C_20  and  O_21
REMARK   12  A    between atoms: O_21  and  C_22
REMARK   13  A    between atoms: C_22  and  C_23
REMARK   14  A    between atoms: C_25  and  C_26
REMARK                            x       y       z     vdW  Elec       q    Type
REMARK                         _______ _______ _______ _____ _____    ______ ____
ROOT
ATOM      1  C   UNL     1       2.152   9.514  17.746  0.00  0.00    +0.000 C 
ATOM      2  C   UNL     1       2.351   8.362  18.410  0.00  0.00    +0.000 C 
ATOM      3  C   UNL     1       3.156   7.312  17.847  0.00  0.00    +0.000 C 
ATOM      4  C   UNL     1       3.443   6.147  18.454  0.00  0.00    +0.000 C 
ATOM      5  C   UNL     1       4.334   5.128  17.753  0.00  0.00    +0.000 C 
ATOM      6  C   UNL     1       3.635   3.751  17.728  0.00  0.00    +0.000 C 
ATOM      7  C   UNL     1       3.036   3.246  19.049  0.00  0.00    +0.000 C 
ATOM      8  C   UNL     1       2.193   4.334  19.759  0.00  0.00    +0.000 C 
ATOM      9  C   UNL     1       1.835   3.864  21.184  0.00  0.00    +0.000 C 
ATOM     10  C   UNL     1       2.852   5.755  19.793  0.00  0.00    +0.000 C 
ATOM     11  C   UNL     1       1.824   6.766  20.367  0.00  0.00    +0.000 C 
ATOM     12  C   UNL     1       1.768   8.173  19.776  0.00  0.00    +0.000 C 
ENDROOT
BRANCH   5  13
ATOM     13  C   UNL     1       5.863   5.098  18.136  0.00  0.00    +0.000 C 
ATOM     14  C   UNL     1       6.200   5.651  19.512  0.00  0.00    +0.000 C 
BRANCH  13  15
ATOM     15  C   UNL     1       6.811   5.680  17.054  0.00  0.00    +0.000 C 
BRANCH  15  16
ATOM     16  C   UNL     1       6.892   7.200  17.202  0.00  0.00    +0.000 C 
ATOM     17  O   UNL     1       6.194   7.955  16.525  0.00  0.00    +0.000 OA
BRANCH  16  18
ATOM     18  C   UNL     1       7.918   7.766  18.124  0.00  0.00    +0.000 C 
ATOM     19  C   UNL     1       8.237   9.073  18.191  0.00  0.00    +0.000 C 
ATOM     20  C   UNL     1       7.540  10.194  17.469  0.00  0.00    +0.000 C 
ATOM     21  C   UNL     1       9.394   9.533  19.040  0.00  0.00    +0.000 C 
ENDBRANCH  16  18
ENDBRANCH  15  16
BRANCH  15  22
ATOM     22  O   UNL     1       6.202   5.581  15.734  0.00  0.00    +0.000 OA
BRANCH  22  23
ATOM     23  C   UNL     1       6.535   4.539  14.932  0.00  0.00    +0.000 C 
ATOM     24  C   UNL     1       7.375   5.015  13.783  0.00  0.00    +0.000 C 
ATOM     25  O   UNL     1       6.171   3.382  15.085  0.00  0.00    +0.000 OA
ENDBRANCH  22  23
ENDBRANCH  15  22
ENDBRANCH  13  15
ENDBRANCH   5  13
BRANCH   7  26
ATOM     26  O   UNL     1       3.998   2.749  19.998  0.00  0.00    +0.000 OA
BRANCH  26  27
ATOM     27  C   UNL     1       4.583   1.538  19.794  0.00  0.00    +0.000 C 
ATOM     28  C   UNL     1       3.961   0.879  18.591  0.00  0.00    +0.000 C 
ATOM     29  O   UNL     1       5.444   1.030  20.495  0.00  0.00    +0.000 OA
ENDBRANCH  26  27
ENDBRANCH   7  26
TORSDOF 8
ENDMDL
MODEL 9
REMARK VINA RESULT:      -6.0      7.124     10.713
REMARK  Name = 
REMARK  14 active torsions:
REMARK  status: ('A' for Active; 'I' for Inactive)
REMARK    1  A    between atoms: C_5  and  C_6
REMARK    2  A    between atoms: C_6  and  C_7
REMARK    3  A    between atoms: C_6  and  C_8
REMARK    4  A    between atoms: C_8  and  O_9
REMARK    5  A    between atoms: C_8  and  C_13
REMARK    6  A    between atoms: O_9  and  C_10
REMARK    7  A    between atoms: C_10  and  C_11
REMARK    8  A    between atoms: C_13  and  C_15
REMARK    9  A    between atoms: C_16  and  C_17
REMARK   10  A    between atoms: C_16  and  C_18
REMARK   11  A    between atoms: C_20  and  O_21
REMARK   12  A    between atoms: O_21  and  C_22
REMARK   13  A    between atoms: C_22  and  C_23
REMARK   14  A    between atoms: C_25  and  C_26
REMARK                            x       y       z     vdW  Elec       q    Type
REMARK                         _______ _______ _______ _____ _____    ______ ____
ROOT
ATOM      1  C   UNL     1      -3.241  10.547  16.948  0.00  0.00    +0.000 C 
ATOM      2  C   UNL     1      -3.489  11.305  18.031  0.00  0.00    +0.000 C 
ATOM      3  C   UNL     1      -2.443  11.632  18.962  0.00  0.00    +0.000 C 
ATOM      4  C   UNL     1      -2.588  12.414  20.045  0.00  0.00    +0.000 C 
ATOM      5  C   UNL     1      -1.386  12.703  20.937  0.00  0.00    +0.000 C 
ATOM      6  C   UNL     1      -1.734  12.378  22.406  0.00  0.00    +0.000 C 
ATOM      7  C   UNL     1      -3.058  12.934  22.951  0.00  0.00    +0.000 C 
ATOM      8  C   UNL     1      -4.240  12.677  21.983  0.00  0.00    +0.000 C 
ATOM      9  C   UNL     1      -5.475  13.472  22.453  0.00  0.00    +0.000 C 
ATOM     10  C   UNL     1      -3.929  12.974  20.477  0.00  0.00    +0.000 C 
ATOM     11  C   UNL     1      -5.133  12.501  19.619  0.00  0.00    +0.000 C 
ATOM     12  C   UNL     1      -4.861  11.860  18.260  0.00  0.00    +0.000 C 
ENDROOT
BRANCH   5  13
ATOM     13  C   UNL     1      -0.610  14.056  20.714  0.00  0.00    +0.000 C 
ATOM     14  C   UNL     1      -1.483  15.263  20.405  0.00  0.00    +0.000 C 
BRANCH  13  15
ATOM     15  C   UNL     1       0.582  13.962  19.726  0.00  0.00    +0.000 C 
BRANCH  15  16
ATOM     16  C   UNL     1       1.368  12.676  19.986  0.00  0.00    +0.000 C 
ATOM     17  O   UNL     1       1.989  12.498  21.034  0.00  0.00    +0.000 OA
BRANCH  16  18
ATOM     18  C   UNL     1       1.453  11.666  18.893  0.00  0.00    +0.000 C 
ATOM     19  C   UNL     1       1.112  10.369  19.032  0.00  0.00    +0.000 C 
ATOM     20  C   UNL     1       0.470   9.746  20.242  0.00  0.00    +0.000 C 
ATOM     21  C   UNL     1       1.376   9.388  17.920  0.00  0.00    +0.000 C 
ENDBRANCH  16  18
ENDBRANCH  15  16
BRANCH  15  22
ATOM     22  O   UNL     1       1.596  14.956  20.052  0.00  0.00    +0.000 OA
BRANCH  22  23
ATOM     23  C   UNL     1       2.269  15.564  19.044  0.00  0.00    +0.000 C 
ATOM     24  C   UNL     1       1.431  16.654  18.441  0.00  0.00    +0.000 C 
ATOM     25  O   UNL     1       3.381  15.250  18.643  0.00  0.00    +0.000 OA
ENDBRANCH  22  23
ENDBRANCH  15  22
ENDBRANCH  13  15
ENDBRANCH   5  13
BRANCH   7  26
ATOM     26  O   UNL     1      -3.042  14.341  23.257  0.00  0.00    +0.000 OA
BRANCH  26  27
ATOM     27  C   UNL     1      -2.547  14.766  24.451  0.00  0.00    +0.000 C 
ATOM     28  C   UNL     1      -1.212  15.429  24.232  0.00  0.00    +0.000 C 
ATOM     29  O   UNL     1      -3.067  14.601  25.543  0.00  0.00    +0.000 OA
ENDBRANCH  26  27
ENDBRANCH   7  26
TORSDOF 8
ENDMDL
