MODEL 1
REMARK VINA RESULT:      -9.3      0.000      0.000
REMARK  Name = 
REMARK  9 active torsions:
REMARK  status: ('A' for Active; 'I' for Inactive)
REMARK    1  A    between atoms: C_1  and  O_2
REMARK    2  A    between atoms: O_2  and  C_3
REMARK    3  A    between atoms: C_6  and  C_7
REMARK    4  A    between atoms: N_12  and  C_13
REMARK    5  A    between atoms: C_13  and  C_14
REMARK    6  A    between atoms: N_16  and  C_17
REMARK    7  A    between atoms: C_22  and  C_23
REMARK    8  A    between atoms: C_32  and  O_33
REMARK    9  A    between atoms: O_33  and  C_34
REMARK                            x       y       z     vdW  Elec       q    Type
REMARK                         _______ _______ _______ _____ _____    ______ ____
ROOT
ATOM      1  C   UNL     1       8.542   9.038  18.568  0.00  0.00    +0.000 A 
ATOM      2  C   UNL     1       7.568   8.800  17.566  0.00  0.00    +0.000 A 
ATOM      3  C   UNL     1       7.339   7.448  17.593  0.00  0.00    +0.000 A 
ATOM      4  C   UNL     1       6.485   6.609  16.798  0.00  0.00    +0.000 A 
ATOM      5  O   UNL     1       5.794   7.049  15.875  0.00  0.00    +0.000 OA
ATOM      6  N   UNL     1       6.502   5.246  17.148  0.00  0.00    +0.000 N 
ATOM      7  C   UNL     1       7.264   4.759  18.207  0.00  0.00    +0.000 A 
ATOM      8  C   UNL     1       8.055   5.579  18.911  0.00  0.00    +0.000 A 
ATOM      9  N   UNL     1       8.111   6.932  18.604  0.00  0.00    +0.000 N 
ATOM     10  N   UNL     1       8.866   7.890  19.191  0.00  0.00    +0.000 NA
ENDROOT
BRANCH   1  14
ATOM     11  C   UNL     1      10.482  12.741  19.552  0.00  0.00    +0.000 A 
ATOM     12  C   UNL     1      10.048  11.866  20.561  0.00  0.00    +0.000 A 
ATOM     13  C   UNL     1       9.422  10.657  20.248  0.00  0.00    +0.000 A 
ATOM     14  C   UNL     1       9.165  10.318  18.918  0.00  0.00    +0.000 A 
ATOM     15  C   UNL     1       9.527  11.234  17.922  0.00  0.00    +0.000 A 
ATOM     16  C   UNL     1      10.176  12.445  18.218  0.00  0.00    +0.000 A 
BRANCH  11  18
ATOM     17  C   UNL     1      10.544  14.754  20.789  0.00  0.00    +0.000 C 
ATOM     18  O   UNL     1      11.181  13.879  19.857  0.00  0.00    +0.000 OA
ENDBRANCH  11  18
BRANCH  16  19
ATOM     19  O   UNL     1      10.442  13.163  17.084  0.00  0.00    +0.000 OA
ATOM     20  C   UNL     1      11.781  13.345  16.670  0.00  0.00    +0.000 C 
ENDBRANCH  16  19
ENDBRANCH   1  14
BRANCH   6  21
ATOM     21  C   UNL     1       5.602   4.353  16.414  0.00  0.00    +0.000 C 
BRANCH  21  22
ATOM     22  C   UNL     1       4.300   3.955  17.120  0.00  0.00    +0.000 C 
ATOM     23  O   UNL     1       3.309   3.654  16.453  0.00  0.00    +0.000 OA
ATOM     24  N   UNL     1       4.284   4.096  18.498  0.00  0.00    +0.000 N 
ATOM     25  H   UNL     1       4.951   4.764  18.872  0.00  0.00    +0.000 HD
BRANCH  24  26
ATOM     26  C   UNL     1       3.146   3.785  19.279  0.00  0.00    +0.000 A 
ATOM     27  C   UNL     1       2.874   2.445  19.599  0.00  0.00    +0.000 A 
ATOM     28  C   UNL     1       1.776   2.104  20.392  0.00  0.00    +0.000 A 
ATOM     29  C   UNL     1       0.928   3.097  20.864  0.00  0.00    +0.000 A 
ATOM     30  C   UNL     1       1.184   4.431  20.550  0.00  0.00    +0.000 A 
ATOM     31  C   UNL     1       2.299   4.795  19.761  0.00  0.00    +0.000 A 
BRANCH  31  32
ATOM     32  C   UNL     1       2.452   6.245  19.389  0.00  0.00    +0.000 C 
ATOM     33  F   UNL     1       2.115   6.533  18.096  0.00  0.00    +0.000 F 
ATOM     34  F   UNL     1       1.682   7.067  20.157  0.00  0.00    +0.000 F 
ATOM     35  F   UNL     1       3.730   6.691  19.534  0.00  0.00    +0.000 F 
ENDBRANCH  31  32
ENDBRANCH  24  26
ENDBRANCH  21  22
ENDBRANCH   6  21
TORSDOF 7
ENDMDL
MODEL 2
REMARK VINA RESULT:      -9.1      0.766      1.816
REMARK  Name = 
REMARK  9 active torsions:
REMARK  status: ('A' for Active; 'I' for Inactive)
REMARK    1  A    between atoms: C_1  and  O_2
REMARK    2  A    between atoms: O_2  and  C_3
REMARK    3  A    between atoms: C_6  and  C_7
REMARK    4  A    between atoms: N_12  and  C_13
REMARK    5  A    between atoms: C_13  and  C_14
REMARK    6  A    between atoms: N_16  and  C_17
REMARK    7  A    between atoms: C_22  and  C_23
REMARK    8  A    between atoms: C_32  and  O_33
REMARK    9  A    between atoms: O_33  and  C_34
REMARK                            x       y       z     vdW  Elec       q    Type
REMARK                         _______ _______ _______ _____ _____    ______ ____
ROOT
ATOM      1  C   UNL     1       8.526   9.062  18.519  0.00  0.00    +0.000 A 
ATOM      2  C   UNL     1       7.570   8.774  17.513  0.00  0.00    +0.000 A 
ATOM      3  C   UNL     1       7.352   7.422  17.592  0.00  0.00    +0.000 A 
ATOM      4  C   UNL     1       6.517   6.544  16.821  0.00  0.00    +0.000 A 
ATOM      5  O   UNL     1       5.837   6.938  15.870  0.00  0.00    +0.000 OA
ATOM      6  N   UNL     1       6.540   5.196  17.227  0.00  0.00    +0.000 N 
ATOM      7  C   UNL     1       7.290   4.761  18.317  0.00  0.00    +0.000 A 
ATOM      8  C   UNL     1       8.064   5.617  18.998  0.00  0.00    +0.000 A 
ATOM      9  N   UNL     1       8.113   6.956  18.636  0.00  0.00    +0.000 N 
ATOM     10  N   UNL     1       8.850   7.944  19.194  0.00  0.00    +0.000 NA
ENDROOT
BRANCH   1  14
ATOM     11  C   UNL     1      10.183  12.918  19.432  0.00  0.00    +0.000 A 
ATOM     12  C   UNL     1      10.203  12.419  18.120  0.00  0.00    +0.000 A 
ATOM     13  C   UNL     1       9.660  11.168  17.815  0.00  0.00    +0.000 A 
ATOM     14  C   UNL     1       9.133  10.362  18.825  0.00  0.00    +0.000 A 
ATOM     15  C   UNL     1       9.191  10.833  20.143  0.00  0.00    +0.000 A 
ATOM     16  C   UNL     1       9.715  12.096  20.465  0.00  0.00    +0.000 A 
BRANCH  11  18
ATOM     17  C   UNL     1      12.030  14.390  19.532  0.00  0.00    +0.000 C 
ATOM     18  O   UNL     1      10.628  14.183  19.714  0.00  0.00    +0.000 OA
ENDBRANCH  11  18
BRANCH  16  19
ATOM     19  O   UNL     1       9.651  12.340  21.809  0.00  0.00    +0.000 OA
ATOM     20  C   UNL     1       8.517  11.920  22.542  0.00  0.00    +0.000 C 
ENDBRANCH  16  19
ENDBRANCH   1  14
BRANCH   6  21
ATOM     21  C   UNL     1       5.660   4.266  16.518  0.00  0.00    +0.000 C 
BRANCH  21  22
ATOM     22  C   UNL     1       4.313   3.950  17.181  0.00  0.00    +0.000 C 
ATOM     23  O   UNL     1       3.297   3.857  16.490  0.00  0.00    +0.000 OA
ATOM     24  N   UNL     1       4.305   3.926  18.566  0.00  0.00    +0.000 N 
ATOM     25  H   UNL     1       5.047   4.457  19.012  0.00  0.00    +0.000 HD
BRANCH  24  26
ATOM     26  C   UNL     1       3.131   3.668  19.313  0.00  0.00    +0.000 A 
ATOM     27  C   UNL     1       2.793   2.343  19.631  0.00  0.00    +0.000 A 
ATOM     28  C   UNL     1       1.658   2.052  20.391  0.00  0.00    +0.000 A 
ATOM     29  C   UNL     1       0.839   3.082  20.832  0.00  0.00    +0.000 A 
ATOM     30  C   UNL     1       1.159   4.403  20.518  0.00  0.00    +0.000 A 
ATOM     31  C   UNL     1       2.312   4.715  19.763  0.00  0.00    +0.000 A 
BRANCH  31  32
ATOM     32  C   UNL     1       2.536   6.155  19.389  0.00  0.00    +0.000 C 
ATOM     33  F   UNL     1       3.845   6.550  19.429  0.00  0.00    +0.000 F 
ATOM     34  F   UNL     1       2.109   6.441  18.126  0.00  0.00    +0.000 F 
ATOM     35  F   UNL     1       1.876   7.019  20.209  0.00  0.00    +0.000 F 
ENDBRANCH  31  32
ENDBRANCH  24  26
ENDBRANCH  21  22
ENDBRANCH   6  21
TORSDOF 7
ENDMDL
MODEL 3
REMARK VINA RESULT:      -9.0      0.997      1.225
REMARK  Name = 
REMARK  9 active torsions:
REMARK  status: ('A' for Active; 'I' for Inactive)
REMARK    1  A    between atoms: C_1  and  O_2
REMARK    2  A    between atoms: O_2  and  C_3
REMARK    3  A    between atoms: C_6  and  C_7
REMARK    4  A    between atoms: N_12  and  C_13
REMARK    5  A    between atoms: C_13  and  C_14
REMARK    6  A    between atoms: N_16  and  C_17
REMARK    7  A    between atoms: C_22  and  C_23
REMARK    8  A    between atoms: C_32  and  O_33
REMARK    9  A    between atoms: O_33  and  C_34
REMARK                            x       y       z     vdW  Elec       q    Type
REMARK                         _______ _______ _______ _____ _____    ______ ____
ROOT
ATOM      1  C   UNL     1       8.405   9.209  18.254  0.00  0.00    +0.000 A 
ATOM      2  C   UNL     1       7.449   8.816  17.284  0.00  0.00    +0.000 A 
ATOM      3  C   UNL     1       7.294   7.463  17.451  0.00  0.00    +0.000 A 
ATOM      4  C   UNL     1       6.489   6.501  16.751  0.00  0.00    +0.000 A 
ATOM      5  O   UNL     1       5.778   6.804  15.789  0.00  0.00    +0.000 OA
ATOM      6  N   UNL     1       6.580   5.184  17.240  0.00  0.00    +0.000 N 
ATOM      7  C   UNL     1       7.364   4.853  18.341  0.00  0.00    +0.000 A 
ATOM      8  C   UNL     1       8.108   5.783  18.954  0.00  0.00    +0.000 A 
ATOM      9  N   UNL     1       8.091   7.098  18.508  0.00  0.00    +0.000 N 
ATOM     10  N   UNL     1       8.790   8.152  18.991  0.00  0.00    +0.000 NA
ENDROOT
BRANCH   1  14
ATOM     11  C   UNL     1      10.062  13.140  18.755  0.00  0.00    +0.000 A 
ATOM     12  C   UNL     1      10.658  12.025  19.366  0.00  0.00    +0.000 A 
ATOM     13  C   UNL     1      10.128  10.742  19.202  0.00  0.00    +0.000 A 
ATOM     14  C   UNL     1       8.956  10.551  18.467  0.00  0.00    +0.000 A 
ATOM     15  C   UNL     1       8.322  11.680  17.931  0.00  0.00    +0.000 A 
ATOM     16  C   UNL     1       8.853  12.974  18.069  0.00  0.00    +0.000 A 
BRANCH  11  18
ATOM     17  C   UNL     1      11.958  14.477  18.305  0.00  0.00    +0.000 C 
ATOM     18  O   UNL     1      10.636  14.381  18.838  0.00  0.00    +0.000 OA
ENDBRANCH  11  18
BRANCH  16  19
ATOM     19  O   UNL     1       8.069  13.907  17.449  0.00  0.00    +0.000 OA
ATOM     20  C   UNL     1       7.240  14.750  18.223  0.00  0.00    +0.000 C 
ENDBRANCH  16  19
ENDBRANCH   1  14
BRANCH   6  21
ATOM     21  C   UNL     1       5.733   4.173  16.605  0.00  0.00    +0.000 C 
BRANCH  21  22
ATOM     22  C   UNL     1       4.411   3.840  17.310  0.00  0.00    +0.000 C 
ATOM     23  O   UNL     1       3.418   3.548  16.642  0.00  0.00    +0.000 OA
ATOM     24  N   UNL     1       4.386   4.029  18.682  0.00  0.00    +0.000 N 
ATOM     25  H   UNL     1       5.070   4.689  19.040  0.00  0.00    +0.000 HD
BRANCH  24  26
ATOM     26  C   UNL     1       3.230   3.782  19.460  0.00  0.00    +0.000 A 
ATOM     27  C   UNL     1       2.979   2.482  19.928  0.00  0.00    +0.000 A 
ATOM     28  C   UNL     1       1.864   2.207  20.722  0.00  0.00    +0.000 A 
ATOM     29  C   UNL     1       0.979   3.225  21.049  0.00  0.00    +0.000 A 
ATOM     30  C   UNL     1       1.214   4.520  20.587  0.00  0.00    +0.000 A 
ATOM     31  C   UNL     1       2.344   4.818  19.794  0.00  0.00    +0.000 A 
BRANCH  31  32
ATOM     32  C   UNL     1       2.476   6.218  19.258  0.00  0.00    +0.000 C 
ATOM     33  F   UNL     1       2.010   6.379  17.982  0.00  0.00    +0.000 F 
ATOM     34  F   UNL     1       1.799   7.132  20.009  0.00  0.00    +0.000 F 
ATOM     35  F   UNL     1       3.768   6.648  19.224  0.00  0.00    +0.000 F 
ENDBRANCH  31  32
ENDBRANCH  24  26
ENDBRANCH  21  22
ENDBRANCH   6  21
TORSDOF 7
ENDMDL
MODEL 4
REMARK VINA RESULT:      -8.8      6.964      8.874
REMARK  Name = 
REMARK  9 active torsions:
REMARK  status: ('A' for Active; 'I' for Inactive)
REMARK    1  A    between atoms: C_1  and  O_2
REMARK    2  A    between atoms: O_2  and  C_3
REMARK    3  A    between atoms: C_6  and  C_7
REMARK    4  A    between atoms: N_12  and  C_13
REMARK    5  A    between atoms: C_13  and  C_14
REMARK    6  A    between atoms: N_16  and  C_17
REMARK    7  A    between atoms: C_22  and  C_23
REMARK    8  A    between atoms: C_32  and  O_33
REMARK    9  A    between atoms: O_33  and  C_34
REMARK                            x       y       z     vdW  Elec       q    Type
REMARK                         _______ _______ _______ _____ _____    ______ ____
ROOT
ATOM      1  C   UNL     1      -0.669  11.400  22.056  0.00  0.00    +0.000 A 
ATOM      2  C   UNL     1      -0.481  11.374  20.652  0.00  0.00    +0.000 A 
ATOM      3  C   UNL     1       0.312  10.280  20.410  0.00  0.00    +0.000 A 
ATOM      4  C   UNL     1       0.863   9.752  19.193  0.00  0.00    +0.000 A 
ATOM      5  O   UNL     1       0.692  10.291  18.097  0.00  0.00    +0.000 OA
ATOM      6  N   UNL     1       1.620   8.575  19.347  0.00  0.00    +0.000 N 
ATOM      7  C   UNL     1       1.788   7.956  20.583  0.00  0.00    +0.000 A 
ATOM      8  C   UNL     1       1.266   8.495  21.693  0.00  0.00    +0.000 A 
ATOM      9  N   UNL     1       0.531   9.671  21.620  0.00  0.00    +0.000 N 
ATOM     10  N   UNL     1      -0.045  10.358  22.634  0.00  0.00    +0.000 NA
ENDROOT
BRANCH   1  14
ATOM     11  C   UNL     1      -2.763  14.289  24.448  0.00  0.00    +0.000 A 
ATOM     12  C   UNL     1      -3.402  13.118  24.010  0.00  0.00    +0.000 A 
ATOM     13  C   UNL     1      -2.725  12.171  23.237  0.00  0.00    +0.000 A 
ATOM     14  C   UNL     1      -1.408  12.398  22.836  0.00  0.00    +0.000 A 
ATOM     15  C   UNL     1      -0.804  13.607  23.208  0.00  0.00    +0.000 A 
ATOM     16  C   UNL     1      -1.464  14.561  24.002  0.00  0.00    +0.000 A 
BRANCH  11  18
ATOM     17  C   UNL     1      -4.211  16.148  24.635  0.00  0.00    +0.000 C 
ATOM     18  O   UNL     1      -3.397  15.169  25.284  0.00  0.00    +0.000 OA
ENDBRANCH  11  18
BRANCH  16  19
ATOM     19  O   UNL     1      -0.669  15.648  24.246  0.00  0.00    +0.000 OA
ATOM     20  C   UNL     1      -0.464  16.606  23.228  0.00  0.00    +0.000 C 
ENDBRANCH  16  19
ENDBRANCH   1  14
BRANCH   6  21
ATOM     21  C   UNL     1       2.153   7.956  18.132  0.00  0.00    +0.000 C 
BRANCH  21  22
ATOM     22  C   UNL     1       2.814   6.580  18.293  0.00  0.00    +0.000 C 
ATOM     23  O   UNL     1       4.042   6.491  18.333  0.00  0.00    +0.000 OA
ATOM     24  N   UNL     1       1.965   5.486  18.244  0.00  0.00    +0.000 N 
ATOM     25  H   UNL     1       1.088   5.641  17.757  0.00  0.00    +0.000 HD
BRANCH  24  26
ATOM     26  C   UNL     1       2.436   4.157  18.358  0.00  0.00    +0.000 A 
ATOM     27  C   UNL     1       3.067   3.551  17.260  0.00  0.00    +0.000 A 
ATOM     28  C   UNL     1       3.570   2.251  17.347  0.00  0.00    +0.000 A 
ATOM     29  C   UNL     1       3.436   1.534  18.528  0.00  0.00    +0.000 A 
ATOM     30  C   UNL     1       2.806   2.122  19.625  0.00  0.00    +0.000 A 
ATOM     31  C   UNL     1       2.305   3.441  19.560  0.00  0.00    +0.000 A 
BRANCH  31  32
ATOM     32  C   UNL     1       1.557   3.968  20.754  0.00  0.00    +0.000 C 
ATOM     33  F   UNL     1       2.231   4.923  21.464  0.00  0.00    +0.000 F 
ATOM     34  F   UNL     1       0.367   4.539  20.416  0.00  0.00    +0.000 F 
ATOM     35  F   UNL     1       1.259   2.994  21.658  0.00  0.00    +0.000 F 
ENDBRANCH  31  32
ENDBRANCH  24  26
ENDBRANCH  21  22
ENDBRANCH   6  21
TORSDOF 7
ENDMDL
MODEL 5
REMARK VINA RESULT:      -8.6      6.180      9.565
REMARK  Name = 
REMARK  9 active torsions:
REMARK  status: ('A' for Active; 'I' for Inactive)
REMARK    1  A    between atoms: C_1  and  O_2
REMARK    2  A    between atoms: O_2  and  C_3
REMARK    3  A    between atoms: C_6  and  C_7
REMARK    4  A    between atoms: N_12  and  C_13
REMARK    5  A    between atoms: C_13  and  C_14
REMARK    6  A    between atoms: N_16  and  C_17
REMARK    7  A    between atoms: C_22  and  C_23
REMARK    8  A    between atoms: C_32  and  O_33
REMARK    9  A    between atoms: O_33  and  C_34
REMARK                            x       y       z     vdW  Elec       q    Type
REMARK                         _______ _______ _______ _____ _____    ______ ____
ROOT
ATOM      1  C   UNL     1       2.658   7.349  18.616  0.00  0.00    +0.000 A 
ATOM      2  C   UNL     1       1.993   8.458  18.037  0.00  0.00    +0.000 A 
ATOM      3  C   UNL     1       1.258   9.014  19.053  0.00  0.00    +0.000 A 
ATOM      4  C   UNL     1       0.360  10.135  19.078  0.00  0.00    +0.000 A 
ATOM      5  O   UNL     1       0.092  10.794  18.070  0.00  0.00    +0.000 OA
ATOM      6  N   UNL     1      -0.196  10.421  20.340  0.00  0.00    +0.000 N 
ATOM      7  C   UNL     1       0.130   9.689  21.479  0.00  0.00    +0.000 A 
ATOM      8  C   UNL     1       0.963   8.643  21.402  0.00  0.00    +0.000 A 
ATOM      9  N   UNL     1       1.528   8.286  20.185  0.00  0.00    +0.000 N 
ATOM     10  N   UNL     1       2.364   7.254  19.925  0.00  0.00    +0.000 NA
ENDROOT
BRANCH   1  14
ATOM     11  C   UNL     1       5.215   4.598  16.531  0.00  0.00    +0.000 A 
ATOM     12  C   UNL     1       3.975   4.182  17.041  0.00  0.00    +0.000 A 
ATOM     13  C   UNL     1       3.135   5.073  17.715  0.00  0.00    +0.000 A 
ATOM     14  C   UNL     1       3.540   6.389  17.943  0.00  0.00    +0.000 A 
ATOM     15  C   UNL     1       4.814   6.773  17.502  0.00  0.00    +0.000 A 
ATOM     16  C   UNL     1       5.662   5.896  16.805  0.00  0.00    +0.000 A 
BRANCH  11  18
ATOM     17  C   UNL     1       5.998   4.002  14.382  0.00  0.00    +0.000 C 
ATOM     18  O   UNL     1       5.993   3.750  15.788  0.00  0.00    +0.000 OA
ENDBRANCH  11  18
BRANCH  16  19
ATOM     19  O   UNL     1       6.841   6.500  16.466  0.00  0.00    +0.000 OA
ATOM     20  C   UNL     1       7.549   7.246  17.435  0.00  0.00    +0.000 C 
ENDBRANCH  16  19
ENDBRANCH   1  14
BRANCH   6  21
ATOM     21  C   UNL     1      -1.069  11.592  20.439  0.00  0.00    +0.000 C 
BRANCH  21  22
ATOM     22  C   UNL     1      -0.387  12.966  20.393  0.00  0.00    +0.000 C 
ATOM     23  O   UNL     1      -0.101  13.543  21.443  0.00  0.00    +0.000 OA
ATOM     24  N   UNL     1      -0.259  13.542  19.139  0.00  0.00    +0.000 N 
ATOM     25  H   UNL     1      -0.920  13.212  18.443  0.00  0.00    +0.000 HD
BRANCH  24  26
ATOM     26  C   UNL     1       0.332  14.813  18.947  0.00  0.00    +0.000 A 
ATOM     27  C   UNL     1      -0.476  15.961  18.972  0.00  0.00    +0.000 A 
ATOM     28  C   UNL     1       0.077  17.233  18.814  0.00  0.00    +0.000 A 
ATOM     29  C   UNL     1       1.444  17.374  18.616  0.00  0.00    +0.000 A 
ATOM     30  C   UNL     1       2.258  16.242  18.584  0.00  0.00    +0.000 A 
ATOM     31  C   UNL     1       1.717  14.948  18.756  0.00  0.00    +0.000 A 
BRANCH  31  32
ATOM     32  C   UNL     1       2.647  13.774  18.615  0.00  0.00    +0.000 C 
ATOM     33  F   UNL     1       2.710  12.969  19.719  0.00  0.00    +0.000 F 
ATOM     34  F   UNL     1       2.300  12.952  17.585  0.00  0.00    +0.000 F 
ATOM     35  F   UNL     1       3.934  14.150  18.374  0.00  0.00    +0.000 F 
ENDBRANCH  31  32
ENDBRANCH  24  26
ENDBRANCH  21  22
ENDBRANCH   6  21
TORSDOF 7
ENDMDL
MODEL 6
REMARK VINA RESULT:      -8.6      6.209     10.002
REMARK  Name = 
REMARK  9 active torsions:
REMARK  status: ('A' for Active; 'I' for Inactive)
REMARK    1  A    between atoms: C_1  and  O_2
REMARK    2  A    between atoms: O_2  and  C_3
REMARK    3  A    between atoms: C_6  and  C_7
REMARK    4  A    between atoms: N_12  and  C_13
REMARK    5  A    between atoms: C_13  and  C_14
REMARK    6  A    between atoms: N_16  and  C_17
REMARK    7  A    between atoms: C_22  and  C_23
REMARK    8  A    between atoms: C_32  and  O_33
REMARK    9  A    between atoms: O_33  and  C_34
REMARK                            x       y       z     vdW  Elec       q    Type
REMARK                         _______ _______ _______ _____ _____    ______ ____
ROOT
ATOM      1  C   UNL     1       2.536   7.398  18.561  0.00  0.00    +0.000 A 
ATOM      2  C   UNL     1       1.839   8.519  18.045  0.00  0.00    +0.000 A 
ATOM      3  C   UNL     1       1.211   9.087  19.124  0.00  0.00    +0.000 A 
ATOM      4  C   UNL     1       0.339  10.224  19.230  0.00  0.00    +0.000 A 
ATOM      5  O   UNL     1      -0.010  10.887  18.250  0.00  0.00    +0.000 OA
ATOM      6  N   UNL     1      -0.093  10.519  20.537  0.00  0.00    +0.000 N 
ATOM      7  C   UNL     1       0.325   9.781  21.642  0.00  0.00    +0.000 A 
ATOM      8  C   UNL     1       1.129   8.721  21.491  0.00  0.00    +0.000 A 
ATOM      9  N   UNL     1       1.572   8.354  20.227  0.00  0.00    +0.000 N 
ATOM     10  N   UNL     1       2.363   7.308  19.892  0.00  0.00    +0.000 NA
ENDROOT
BRANCH   1  14
ATOM     11  C   UNL     1       4.931   4.505  16.477  0.00  0.00    +0.000 A 
ATOM     12  C   UNL     1       5.200   5.878  16.361  0.00  0.00    +0.000 A 
ATOM     13  C   UNL     1       4.428   6.825  17.042  0.00  0.00    +0.000 A 
ATOM     14  C   UNL     1       3.335   6.423  17.811  0.00  0.00    +0.000 A 
ATOM     15  C   UNL     1       3.025   5.058  17.854  0.00  0.00    +0.000 A 
ATOM     16  C   UNL     1       3.802   4.091  17.193  0.00  0.00    +0.000 A 
BRANCH  11  18
ATOM     17  C   UNL     1       6.334   3.977  14.649  0.00  0.00    +0.000 C 
ATOM     18  O   UNL     1       5.746   3.575  15.887  0.00  0.00    +0.000 OA
ENDBRANCH  11  18
BRANCH  16  19
ATOM     19  O   UNL     1       3.313   2.829  17.394  0.00  0.00    +0.000 OA
ATOM     20  C   UNL     1       3.472   2.211  18.655  0.00  0.00    +0.000 C 
ENDBRANCH  16  19
ENDBRANCH   1  14
BRANCH   6  21
ATOM     21  C   UNL     1      -0.933  11.705  20.715  0.00  0.00    +0.000 C 
BRANCH  21  22
ATOM     22  C   UNL     1      -0.241  13.067  20.570  0.00  0.00    +0.000 C 
ATOM     23  O   UNL     1       0.135  13.672  21.575  0.00  0.00    +0.000 OA
ATOM     24  N   UNL     1      -0.207  13.602  19.293  0.00  0.00    +0.000 N 
ATOM     25  H   UNL     1      -0.926  13.260  18.662  0.00  0.00    +0.000 HD
BRANCH  24  26
ATOM     26  C   UNL     1       0.381  14.858  19.013  0.00  0.00    +0.000 A 
ATOM     27  C   UNL     1      -0.414  16.014  19.044  0.00  0.00    +0.000 A 
ATOM     28  C   UNL     1       0.138  17.274  18.801  0.00  0.00    +0.000 A 
ATOM     29  C   UNL     1       1.490  17.392  18.511  0.00  0.00    +0.000 A 
ATOM     30  C   UNL     1       2.291  16.250  18.471  0.00  0.00    +0.000 A 
ATOM     31  C   UNL     1       1.751  14.970  18.729  0.00  0.00    +0.000 A 
BRANCH  31  32
ATOM     32  C   UNL     1       2.660  13.781  18.574  0.00  0.00    +0.000 C 
ATOM     33  F   UNL     1       2.245  12.872  17.642  0.00  0.00    +0.000 F 
ATOM     34  F   UNL     1       3.924  14.133  18.202  0.00  0.00    +0.000 F 
ATOM     35  F   UNL     1       2.798  13.073  19.730  0.00  0.00    +0.000 F 
ENDBRANCH  31  32
ENDBRANCH  24  26
ENDBRANCH  21  22
ENDBRANCH   6  21
TORSDOF 7
ENDMDL
MODEL 7
REMARK VINA RESULT:      -8.5      1.755      2.663
REMARK  Name = 
REMARK  9 active torsions:
REMARK  status: ('A' for Active; 'I' for Inactive)
REMARK    1  A    between atoms: C_1  and  O_2
REMARK    2  A    between atoms: O_2  and  C_3
REMARK    3  A    between atoms: C_6  and  C_7
REMARK    4  A    between atoms: N_12  and  C_13
REMARK    5  A    between atoms: C_13  and  C_14
REMARK    6  A    between atoms: N_16  and  C_17
REMARK    7  A    between atoms: C_22  and  C_23
REMARK    8  A    between atoms: C_32  and  O_33
REMARK    9  A    between atoms: O_33  and  C_34
REMARK                            x       y       z     vdW  Elec       q    Type
REMARK                         _______ _______ _______ _____ _____    ______ ____
ROOT
ATOM      1  C   UNL     1       8.535   9.105  18.452  0.00  0.00    +0.000 A 
ATOM      2  C   UNL     1       7.498   8.932  17.502  0.00  0.00    +0.000 A 
ATOM      3  C   UNL     1       7.208   7.591  17.519  0.00  0.00    +0.000 A 
ATOM      4  C   UNL     1       6.273   6.808  16.760  0.00  0.00    +0.000 A 
ATOM      5  O   UNL     1       5.553   7.297  15.884  0.00  0.00    +0.000 OA
ATOM      6  N   UNL     1       6.245   5.439  17.085  0.00  0.00    +0.000 N 
ATOM      7  C   UNL     1       7.041   4.898  18.091  0.00  0.00    +0.000 A 
ATOM      8  C   UNL     1       7.908   5.667  18.763  0.00  0.00    +0.000 A 
ATOM      9  N   UNL     1       8.010   7.022  18.476  0.00  0.00    +0.000 N 
ATOM     10  N   UNL     1       8.839   7.932  19.037  0.00  0.00    +0.000 NA
ENDROOT
BRANCH   1  14
ATOM     11  C   UNL     1      10.472  12.807  19.451  0.00  0.00    +0.000 A 
ATOM     12  C   UNL     1      10.491  12.318  18.135  0.00  0.00    +0.000 A 
ATOM     13  C   UNL     1       9.857  11.117  17.802  0.00  0.00    +0.000 A 
ATOM     14  C   UNL     1       9.236  10.349  18.788  0.00  0.00    +0.000 A 
ATOM     15  C   UNL     1       9.293  10.804  20.112  0.00  0.00    +0.000 A 
ATOM     16  C   UNL     1       9.908  12.018  20.461  0.00  0.00    +0.000 A 
BRANCH  11  18
ATOM     17  C   UNL     1      10.122  15.139  19.611  0.00  0.00    +0.000 C 
ATOM     18  O   UNL     1      11.009  14.029  19.758  0.00  0.00    +0.000 OA
ENDBRANCH  11  18
BRANCH  16  19
ATOM     19  O   UNL     1       9.824  12.256  21.806  0.00  0.00    +0.000 OA
ATOM     20  C   UNL     1       8.557  12.448  22.404  0.00  0.00    +0.000 C 
ENDBRANCH  16  19
ENDBRANCH   1  14
BRANCH   6  21
ATOM     21  C   UNL     1       5.266   4.603  16.388  0.00  0.00    +0.000 C 
BRANCH  21  22
ATOM     22  C   UNL     1       4.151   3.987  17.244  0.00  0.00    +0.000 C 
ATOM     23  O   UNL     1       3.362   3.187  16.739  0.00  0.00    +0.000 OA
ATOM     24  N   UNL     1       4.019   4.491  18.528  0.00  0.00    +0.000 N 
ATOM     25  H   UNL     1       4.391   5.425  18.666  0.00  0.00    +0.000 HD
BRANCH  24  26
ATOM     26  C   UNL     1       3.024   4.032  19.423  0.00  0.00    +0.000 A 
ATOM     27  C   UNL     1       1.815   4.737  19.531  0.00  0.00    +0.000 A 
ATOM     28  C   UNL     1       0.799   4.297  20.382  0.00  0.00    +0.000 A 
ATOM     29  C   UNL     1       0.984   3.153  21.147  0.00  0.00    +0.000 A 
ATOM     30  C   UNL     1       2.182   2.446  21.053  0.00  0.00    +0.000 A 
ATOM     31  C   UNL     1       3.214   2.869  20.186  0.00  0.00    +0.000 A 
BRANCH  31  32
ATOM     32  C   UNL     1       4.510   2.105  20.212  0.00  0.00    +0.000 C 
ATOM     33  F   UNL     1       5.619   2.868  19.972  0.00  0.00    +0.000 F 
ATOM     34  F   UNL     1       4.738   1.501  21.413  0.00  0.00    +0.000 F 
ATOM     35  F   UNL     1       4.552   1.110  19.282  0.00  0.00    +0.000 F 
ENDBRANCH  31  32
ENDBRANCH  24  26
ENDBRANCH  21  22
ENDBRANCH   6  21
TORSDOF 7
ENDMDL
MODEL 8
REMARK VINA RESULT:      -8.5      8.159     11.382
REMARK  Name = 
REMARK  9 active torsions:
REMARK  status: ('A' for Active; 'I' for Inactive)
REMARK    1  A    between atoms: C_1  and  O_2
REMARK    2  A    between atoms: O_2  and  C_3
REMARK    3  A    between atoms: C_6  and  C_7
REMARK    4  A    between atoms: N_12  and  C_13
REMARK    5  A    between atoms: C_13  and  C_14
REMARK    6  A    between atoms: N_16  and  C_17
REMARK    7  A    between atoms: C_22  and  C_23
REMARK    8  A    between atoms: C_32  and  O_33
REMARK    9  A    between atoms: O_33  and  C_34
REMARK                            x       y       z     vdW  Elec       q    Type
REMARK                         _______ _______ _______ _____ _____    ______ ____
ROOT
ATOM      1  C   UNL     1       1.535   8.066  20.165  0.00  0.00    +0.000 A 
ATOM      2  C   UNL     1       1.052   8.378  21.460  0.00  0.00    +0.000 A 
ATOM      3  C   UNL     1       0.560   9.656  21.369  0.00  0.00    +0.000 A 
ATOM      4  C   UNL     1      -0.030  10.523  22.351  0.00  0.00    +0.000 A 
ATOM      5  O   UNL     1      -0.158  10.197  23.534  0.00  0.00    +0.000 OA
ATOM      6  N   UNL     1      -0.443  11.777  21.862  0.00  0.00    +0.000 N 
ATOM      7  C   UNL     1      -0.320  12.129  20.520  0.00  0.00    +0.000 A 
ATOM      8  C   UNL     1       0.250  11.290  19.644  0.00  0.00    +0.000 A 
ATOM      9  N   UNL     1       0.707  10.047  20.062  0.00  0.00    +0.000 N 
ATOM     10  N   UNL     1       1.321   9.094  19.323  0.00  0.00    +0.000 NA
ENDROOT
BRANCH   1  14
ATOM     11  C   UNL     1       3.575   4.471  18.999  0.00  0.00    +0.000 A 
ATOM     12  C   UNL     1       3.584   5.604  18.170  0.00  0.00    +0.000 A 
ATOM     13  C   UNL     1       2.928   6.779  18.546  0.00  0.00    +0.000 A 
ATOM     14  C   UNL     1       2.200   6.832  19.736  0.00  0.00    +0.000 A 
ATOM     15  C   UNL     1       2.128   5.671  20.517  0.00  0.00    +0.000 A 
ATOM     16  C   UNL     1       2.798   4.487  20.164  0.00  0.00    +0.000 A 
BRANCH  11  18
ATOM     17  C   UNL     1       3.580   2.353  17.950  0.00  0.00    +0.000 C 
ATOM     18  O   UNL     1       4.298   3.353  18.675  0.00  0.00    +0.000 OA
ENDBRANCH  11  18
BRANCH  16  19
ATOM     19  O   UNL     1       2.592   3.498  21.086  0.00  0.00    +0.000 OA
ATOM     20  C   UNL     1       1.337   2.850  21.148  0.00  0.00    +0.000 C 
ENDBRANCH  16  19
ENDBRANCH   1  14
BRANCH   6  21
ATOM     21  C   UNL     1      -1.109  12.678  22.804  0.00  0.00    +0.000 C 
BRANCH  21  22
ATOM     22  C   UNL     1      -2.636  12.562  22.906  0.00  0.00    +0.000 C 
ATOM     23  O   UNL     1      -3.137  11.706  23.639  0.00  0.00    +0.000 OA
ATOM     24  N   UNL     1      -3.369  13.357  22.041  0.00  0.00    +0.000 N 
ATOM     25  H   UNL     1      -2.877  13.650  21.202  0.00  0.00    +0.000 HD
BRANCH  24  26
ATOM     26  C   UNL     1      -4.783  13.340  22.010  0.00  0.00    +0.000 A 
ATOM     27  C   UNL     1      -5.444  12.457  21.142  0.00  0.00    +0.000 A 
ATOM     28  C   UNL     1      -6.839  12.393  21.106  0.00  0.00    +0.000 A 
ATOM     29  C   UNL     1      -7.591  13.220  21.929  0.00  0.00    +0.000 A 
ATOM     30  C   UNL     1      -6.947  14.106  22.793  0.00  0.00    +0.000 A 
ATOM     31  C   UNL     1      -5.537  14.173  22.852  0.00  0.00    +0.000 A 
BRANCH  31  32
ATOM     32  C   UNL     1      -4.922  15.220  23.741  0.00  0.00    +0.000 C 
ATOM     33  F   UNL     1      -4.085  14.722  24.701  0.00  0.00    +0.000 F 
ATOM     34  F   UNL     1      -4.178  16.126  23.046  0.00  0.00    +0.000 F 
ATOM     35  F   UNL     1      -5.853  15.945  24.420  0.00  0.00    +0.000 F 
ENDBRANCH  31  32
ENDBRANCH  24  26
ENDBRANCH  21  22
ENDBRANCH   6  21
TORSDOF 7
ENDMDL
MODEL 9
REMARK VINA RESULT:      -8.5      6.139      9.209
REMARK  Name = 
REMARK  9 active torsions:
REMARK  status: ('A' for Active; 'I' for Inactive)
REMARK    1  A    between atoms: C_1  and  O_2
REMARK    2  A    between atoms: O_2  and  C_3
REMARK    3  A    between atoms: C_6  and  C_7
REMARK    4  A    between atoms: N_12  and  C_13
REMARK    5  A    between atoms: C_13  and  C_14
REMARK    6  A    between atoms: N_16  and  C_17
REMARK    7  A    between atoms: C_22  and  C_23
REMARK    8  A    between atoms: C_32  and  O_33
REMARK    9  A    between atoms: O_33  and  C_34
REMARK                            x       y       z     vdW  Elec       q    Type
REMARK                         _______ _______ _______ _____ _____    ______ ____
ROOT
ATOM      1  C   UNL     1       2.670   7.400  18.682  0.00  0.00    +0.000 A 
ATOM      2  C   UNL     1       2.372   8.724  18.273  0.00  0.00    +0.000 A 
ATOM      3  C   UNL     1       1.553   9.232  19.250  0.00  0.00    +0.000 A 
ATOM      4  C   UNL     1       0.903  10.506  19.382  0.00  0.00    +0.000 A 
ATOM      5  O   UNL     1       0.992  11.389  18.525  0.00  0.00    +0.000 OA
ATOM      6  N   UNL     1       0.150  10.668  20.561  0.00  0.00    +0.000 N 
ATOM      7  C   UNL     1       0.075   9.677  21.536  0.00  0.00    +0.000 A 
ATOM      8  C   UNL     1       0.688   8.499  21.361  0.00  0.00    +0.000 A 
ATOM      9  N   UNL     1       1.426   8.258  20.209  0.00  0.00    +0.000 N 
ATOM     10  N   UNL     1       2.085   7.128  19.862  0.00  0.00    +0.000 NA
ENDROOT
BRANCH   1  14
ATOM     11  C   UNL     1       5.005   4.554  16.468  0.00  0.00    +0.000 A 
ATOM     12  C   UNL     1       3.770   4.191  17.027  0.00  0.00    +0.000 A 
ATOM     13  C   UNL     1       3.002   5.114  17.743  0.00  0.00    +0.000 A 
ATOM     14  C   UNL     1       3.477   6.407  17.964  0.00  0.00    +0.000 A 
ATOM     15  C   UNL     1       4.748   6.736  17.474  0.00  0.00    +0.000 A 
ATOM     16  C   UNL     1       5.524   5.827  16.734  0.00  0.00    +0.000 A 
BRANCH  11  18
ATOM     17  C   UNL     1       5.878   4.076  14.324  0.00  0.00    +0.000 C 
ATOM     18  O   UNL     1       5.711   3.679  15.686  0.00  0.00    +0.000 OA
ENDBRANCH  11  18
BRANCH  16  19
ATOM     19  O   UNL     1       6.715   6.380  16.350  0.00  0.00    +0.000 OA
ATOM     20  C   UNL     1       7.480   7.113  17.286  0.00  0.00    +0.000 C 
ENDBRANCH  16  19
ENDBRANCH   1  14
BRANCH   6  21
ATOM     21  C   UNL     1      -0.482  11.970  20.780  0.00  0.00    +0.000 C 
BRANCH  21  22
ATOM     22  C   UNL     1      -1.594  12.369  19.800  0.00  0.00    +0.000 C 
ATOM     23  O   UNL     1      -1.492  13.410  19.150  0.00  0.00    +0.000 OA
ATOM     24  N   UNL     1      -2.733  11.580  19.815  0.00  0.00    +0.000 N 
ATOM     25  H   UNL     1      -2.892  11.067  20.677  0.00  0.00    +0.000 HD
BRANCH  24  26
ATOM     26  C   UNL     1      -3.845  11.840  18.981  0.00  0.00    +0.000 A 
ATOM     27  C   UNL     1      -4.863  12.695  19.433  0.00  0.00    +0.000 A 
ATOM     28  C   UNL     1      -5.961  12.997  18.625  0.00  0.00    +0.000 A 
ATOM     29  C   UNL     1      -6.063  12.438  17.359  0.00  0.00    +0.000 A 
ATOM     30  C   UNL     1      -5.062  11.582  16.899  0.00  0.00    +0.000 A 
ATOM     31  C   UNL     1      -3.937  11.278  17.697  0.00  0.00    +0.000 A 
BRANCH  31  32
ATOM     32  C   UNL     1      -2.950  10.274  17.165  0.00  0.00    +0.000 C 
ATOM     33  F   UNL     1      -1.698  10.777  16.947  0.00  0.00    +0.000 F 
ATOM     34  F   UNL     1      -2.775   9.216  18.006  0.00  0.00    +0.000 F 
ATOM     35  F   UNL     1      -3.335   9.742  15.972  0.00  0.00    +0.000 F 
ENDBRANCH  31  32
ENDBRANCH  24  26
ENDBRANCH  21  22
ENDBRANCH   6  21
TORSDOF 7
ENDMDL
