MODEL 1
REMARK VINA RESULT:      -7.3      0.000      0.000
REMARK  Name = 
REMARK  6 active torsions:
REMARK  status: ('A' for Active; 'I' for Inactive)
REMARK    1  A    between atoms: C_1  and  O_2
REMARK    2  A    between atoms: O_2  and  C_3
REMARK    3  A    between atoms: C_3  and  C_5
REMARK    4  A    between atoms: C_5  and  C_6
REMARK    5  A    between atoms: C_13  and  C_15
REMARK    6  A    between atoms: C_17  and  N_18
REMARK                            x       y       z     vdW  Elec       q    Type
REMARK                         _______ _______ _______ _____ _____    ______ ____
ROOT
ATOM      1  C   UNL     1       1.199   8.850  20.209  0.00  0.00    +0.000 C 
ATOM      2  C   UNL     1       0.257   9.723  19.310  0.00  0.00    +0.000 C 
ATOM      3  O   UNL     1      -0.652  10.414  19.771  0.00  0.00    +0.000 OA
ATOM      4  N   UNL     1       0.577   9.854  17.979  0.00  0.00    +0.000 N 
ATOM      5  C   UNL     1       1.513   8.967  17.322  0.00  0.00    +0.000 C 
ATOM      6  C   UNL     1       2.671   8.643  18.267  0.00  0.00    +0.000 C 
ATOM      7  N   UNL     1       2.109   7.948  19.437  0.00  0.00    +0.000 N 
ATOM      8  C   UNL     1       2.352   6.612  19.799  0.00  0.00    +0.000 C 
ATOM      9  O   UNL     1       1.851   6.093  20.791  0.00  0.00    +0.000 OA
ATOM     10  H   UNL     1      -0.100  10.371  17.432  0.00  0.00    +0.000 HD
ENDROOT
BRANCH   8  11
ATOM     11  C   UNL     1       3.261   5.751  18.974  0.00  0.00    +0.000 A 
ATOM     12  C   UNL     1       4.651   5.861  19.137  0.00  0.00    +0.000 A 
ATOM     13  C   UNL     1       5.514   4.924  18.551  0.00  0.00    +0.000 A 
ATOM     14  C   UNL     1       5.021   3.954  17.678  0.00  0.00    +0.000 A 
ATOM     15  C   UNL     1       3.656   3.944  17.384  0.00  0.00    +0.000 A 
ATOM     16  C   UNL     1       2.773   4.831  18.028  0.00  0.00    +0.000 A 
ATOM     17 CL   UNL     1       1.107   4.690  17.593  0.00  0.00    +0.000 Cl
BRANCH  13  18
ATOM     18  N   UNL     1       6.934   4.926  18.925  0.00  0.00    +0.000 N 
ATOM     19  O   UNL     1       7.737   4.448  18.109  0.00  0.00    +0.000 OA
ATOM     20  O   UNL     1       7.245   5.434  20.009  0.00  0.00    +0.000 OA
ENDBRANCH  13  18
ENDBRANCH   8  11
BRANCH   1  21
ATOM     21  C   UNL     1       0.403   8.329  21.410  0.00  0.00    +0.000 C 
BRANCH  21  22
ATOM     22  C   UNL     1       0.479   9.204  22.631  0.00  0.00    +0.000 C 
ATOM     23  O   UNL     1       1.498   9.577  23.204  0.00  0.00    +0.000 OA
BRANCH  22  25
ATOM     24  C   UNL     1      -1.151  10.868  23.109  0.00  0.00    +0.000 C 
ATOM     25  O   UNL     1      -0.799   9.490  23.017  0.00  0.00    +0.000 OA
ENDBRANCH  22  25
ENDBRANCH  21  22
ENDBRANCH   1  21
TORSDOF 5
ENDMDL
MODEL 2
REMARK VINA RESULT:      -6.7      4.233      6.791
REMARK  Name = 
REMARK  6 active torsions:
REMARK  status: ('A' for Active; 'I' for Inactive)
REMARK    1  A    between atoms: C_1  and  O_2
REMARK    2  A    between atoms: O_2  and  C_3
REMARK    3  A    between atoms: C_3  and  C_5
REMARK    4  A    between atoms: C_5  and  C_6
REMARK    5  A    between atoms: C_13  and  C_15
REMARK    6  A    between atoms: C_17  and  N_18
REMARK                            x       y       z     vdW  Elec       q    Type
REMARK                         _______ _______ _______ _____ _____    ______ ____
ROOT
ATOM      1  C   UNL     1       6.869   4.762  17.121  0.00  0.00    +0.000 C 
ATOM      2  C   UNL     1       6.870   5.032  15.577  0.00  0.00    +0.000 C 
ATOM      3  O   UNL     1       7.875   5.397  14.964  0.00  0.00    +0.000 OA
ATOM      4  N   UNL     1       5.752   4.676  14.859  0.00  0.00    +0.000 N 
ATOM      5  C   UNL     1       4.484   4.398  15.499  0.00  0.00    +0.000 C 
ATOM      6  C   UNL     1       4.719   3.639  16.806  0.00  0.00    +0.000 C 
ATOM      7  N   UNL     1       5.509   4.511  17.692  0.00  0.00    +0.000 N 
ATOM      8  C   UNL     1       5.071   5.072  18.902  0.00  0.00    +0.000 C 
ATOM      9  O   UNL     1       5.784   5.791  19.595  0.00  0.00    +0.000 OA
ATOM     10  H   UNL     1       5.779   4.934  13.880  0.00  0.00    +0.000 HD
ENDROOT
BRANCH   8  11
ATOM     11  C   UNL     1       3.689   4.799  19.415  0.00  0.00    +0.000 A 
ATOM     12  C   UNL     1       3.463   3.676  20.227  0.00  0.00    +0.000 A 
ATOM     13  C   UNL     1       2.243   3.515  20.899  0.00  0.00    +0.000 A 
ATOM     14  C   UNL     1       1.182   4.388  20.661  0.00  0.00    +0.000 A 
ATOM     15  C   UNL     1       1.349   5.413  19.727  0.00  0.00    +0.000 A 
ATOM     16  C   UNL     1       2.594   5.627  19.107  0.00  0.00    +0.000 A 
ATOM     17 CL   UNL     1       2.670   6.948  17.996  0.00  0.00    +0.000 Cl
BRANCH  13  18
ATOM     18  N   UNL     1       2.119   2.464  21.916  0.00  0.00    +0.000 N 
ATOM     19  O   UNL     1       0.997   2.287  22.417  0.00  0.00    +0.000 OA
ATOM     20  O   UNL     1       3.125   1.797  22.185  0.00  0.00    +0.000 OA
ENDBRANCH  13  18
ENDBRANCH   8  11
BRANCH   1  21
ATOM     21  C   UNL     1       7.845   5.729  17.799  0.00  0.00    +0.000 C 
BRANCH  21  22
ATOM     22  C   UNL     1       7.519   7.182  17.596  0.00  0.00    +0.000 C 
ATOM     23  O   UNL     1       6.629   7.643  16.887  0.00  0.00    +0.000 OA
BRANCH  22  25
ATOM     24  C   UNL     1       8.372   9.329  18.159  0.00  0.00    +0.000 C 
ATOM     25  O   UNL     1       8.416   7.914  18.320  0.00  0.00    +0.000 OA
ENDBRANCH  22  25
ENDBRANCH  21  22
ENDBRANCH   1  21
TORSDOF 5
ENDMDL
MODEL 3
REMARK VINA RESULT:      -6.3      3.814      5.806
REMARK  Name = 
REMARK  6 active torsions:
REMARK  status: ('A' for Active; 'I' for Inactive)
REMARK    1  A    between atoms: C_1  and  O_2
REMARK    2  A    between atoms: O_2  and  C_3
REMARK    3  A    between atoms: C_3  and  C_5
REMARK    4  A    between atoms: C_5  and  C_6
REMARK    5  A    between atoms: C_13  and  C_15
REMARK    6  A    between atoms: C_17  and  N_18
REMARK                            x       y       z     vdW  Elec       q    Type
REMARK                         _______ _______ _______ _____ _____    ______ ____
ROOT
ATOM      1  C   UNL     1       3.552   4.726  19.369  0.00  0.00    +0.000 C 
ATOM      2  C   UNL     1       2.447   5.829  19.502  0.00  0.00    +0.000 C 
ATOM      3  O   UNL     1       1.539   5.768  20.331  0.00  0.00    +0.000 OA
ATOM      4  N   UNL     1       2.607   6.991  18.782  0.00  0.00    +0.000 N 
ATOM      5  C   UNL     1       3.537   7.089  17.677  0.00  0.00    +0.000 C 
ATOM      6  C   UNL     1       4.814   6.315  18.004  0.00  0.00    +0.000 C 
ATOM      7  N   UNL     1       4.445   4.901  18.181  0.00  0.00    +0.000 N 
ATOM      8  C   UNL     1       4.838   3.836  17.354  0.00  0.00    +0.000 C 
ATOM      9  O   UNL     1       4.495   2.676  17.560  0.00  0.00    +0.000 OA
ATOM     10  H   UNL     1       1.833   7.640  18.852  0.00  0.00    +0.000 HD
ENDROOT
BRANCH   8  11
ATOM     11  C   UNL     1       5.720   4.076  16.166  0.00  0.00    +0.000 A 
ATOM     12  C   UNL     1       5.393   3.490  14.933  0.00  0.00    +0.000 A 
ATOM     13  C   UNL     1       6.064   3.869  13.762  0.00  0.00    +0.000 A 
ATOM     14  C   UNL     1       7.164   4.725  13.820  0.00  0.00    +0.000 A 
ATOM     15  C   UNL     1       7.596   5.182  15.067  0.00  0.00    +0.000 A 
ATOM     16  C   UNL     1       6.881   4.868  16.238  0.00  0.00    +0.000 A 
ATOM     17 CL   UNL     1       7.509   5.523  17.708  0.00  0.00    +0.000 Cl
BRANCH  13  18
ATOM     18  N   UNL     1       5.549   3.418  12.463  0.00  0.00    +0.000 N 
ATOM     19  O   UNL     1       4.425   3.822  12.126  0.00  0.00    +0.000 OA
ATOM     20  O   UNL     1       6.278   2.697  11.771  0.00  0.00    +0.000 OA
ENDBRANCH  13  18
ENDBRANCH   8  11
BRANCH   1  21
ATOM     21  C   UNL     1       2.940   3.362  19.703  0.00  0.00    +0.000 C 
BRANCH  21  22
ATOM     22  C   UNL     1       3.667   2.601  20.776  0.00  0.00    +0.000 C 
ATOM     23  O   UNL     1       4.776   2.083  20.686  0.00  0.00    +0.000 OA
BRANCH  22  25
ATOM     24  C   UNL     1       1.453   2.597  21.642  0.00  0.00    +0.000 C 
ATOM     25  O   UNL     1       2.858   2.559  21.876  0.00  0.00    +0.000 OA
ENDBRANCH  22  25
ENDBRANCH  21  22
ENDBRANCH   1  21
TORSDOF 5
ENDMDL
MODEL 4
REMARK VINA RESULT:      -6.3      1.117      1.256
REMARK  Name = 
REMARK  6 active torsions:
REMARK  status: ('A' for Active; 'I' for Inactive)
REMARK    1  A    between atoms: C_1  and  O_2
REMARK    2  A    between atoms: O_2  and  C_3
REMARK    3  A    between atoms: C_3  and  C_5
REMARK    4  A    between atoms: C_5  and  C_6
REMARK    5  A    between atoms: C_13  and  C_15
REMARK    6  A    between atoms: C_17  and  N_18
REMARK                            x       y       z     vdW  Elec       q    Type
REMARK                         _______ _______ _______ _____ _____    ______ ____
ROOT
ATOM      1  C   UNL     1       0.970   9.159  20.221  0.00  0.00    +0.000 C 
ATOM      2  C   UNL     1       0.205   9.918  19.083  0.00  0.00    +0.000 C 
ATOM      3  O   UNL     1      -0.663  10.762  19.311  0.00  0.00    +0.000 OA
ATOM      4  N   UNL     1       0.650   9.761  17.791  0.00  0.00    +0.000 N 
ATOM      5  C   UNL     1       1.540   8.685  17.410  0.00  0.00    +0.000 C 
ATOM      6  C   UNL     1       2.573   8.452  18.514  0.00  0.00    +0.000 C 
ATOM      7  N   UNL     1       1.844   8.048  19.728  0.00  0.00    +0.000 N 
ATOM      8  C   UNL     1       1.913   6.793  20.353  0.00  0.00    +0.000 C 
ATOM      9  O   UNL     1       1.278   6.522  21.367  0.00  0.00    +0.000 OA
ATOM     10  H   UNL     1       0.079  10.218  17.090  0.00  0.00    +0.000 HD
ENDROOT
BRANCH   8  11
ATOM     11  C   UNL     1       2.794   5.712  19.801  0.00  0.00    +0.000 A 
ATOM     12  C   UNL     1       4.109   6.022  19.418  0.00  0.00    +0.000 A 
ATOM     13  C   UNL     1       5.021   5.003  19.111  0.00  0.00    +0.000 A 
ATOM     14  C   UNL     1       4.602   3.674  19.038  0.00  0.00    +0.000 A 
ATOM     15  C   UNL     1       3.255   3.380  19.257  0.00  0.00    +0.000 A 
ATOM     16  C   UNL     1       2.351   4.387  19.643  0.00  0.00    +0.000 A 
ATOM     17 CL   UNL     1       0.721   3.879  19.912  0.00  0.00    +0.000 Cl
BRANCH  13  18
ATOM     18  N   UNL     1       6.440   5.338  18.942  0.00  0.00    +0.000 N 
ATOM     19  O   UNL     1       7.136   5.399  19.968  0.00  0.00    +0.000 OA
ATOM     20  O   UNL     1       6.863   5.502  17.791  0.00  0.00    +0.000 OA
ENDBRANCH  13  18
ENDBRANCH   8  11
BRANCH   1  21
ATOM     21  C   UNL     1       0.024   8.952  21.408  0.00  0.00    +0.000 C 
BRANCH  21  22
ATOM     22  C   UNL     1       0.296   9.853  22.581  0.00  0.00    +0.000 C 
ATOM     23  O   UNL     1       0.521   9.506  23.736  0.00  0.00    +0.000 OA
BRANCH  22  25
ATOM     24  C   UNL     1      -0.862  11.929  22.641  0.00  0.00    +0.000 C 
ATOM     25  O   UNL     1       0.216  11.143  22.140  0.00  0.00    +0.000 OA
ENDBRANCH  22  25
ENDBRANCH  21  22
ENDBRANCH   1  21
TORSDOF 5
ENDMDL
MODEL 5
REMARK VINA RESULT:      -6.3      3.321      7.771
REMARK  Name = 
REMARK  6 active torsions:
REMARK  status: ('A' for Active; 'I' for Inactive)
REMARK    1  A    between atoms: C_1  and  O_2
REMARK    2  A    between atoms: O_2  and  C_3
REMARK    3  A    between atoms: C_3  and  C_5
REMARK    4  A    between atoms: C_5  and  C_6
REMARK    5  A    between atoms: C_13  and  C_15
REMARK    6  A    between atoms: C_17  and  N_18
REMARK                            x       y       z     vdW  Elec       q    Type
REMARK                         _______ _______ _______ _____ _____    ______ ____
ROOT
ATOM      1  C   UNL     1       5.719   5.034  15.306  0.00  0.00    +0.000 C 
ATOM      2  C   UNL     1       7.168   5.628  15.372  0.00  0.00    +0.000 C 
ATOM      3  O   UNL     1       8.016   5.416  14.504  0.00  0.00    +0.000 OA
ATOM      4  N   UNL     1       7.439   6.562  16.345  0.00  0.00    +0.000 N 
ATOM      5  C   UNL     1       6.574   6.751  17.490  0.00  0.00    +0.000 C 
ATOM      6  C   UNL     1       5.111   6.625  17.062  0.00  0.00    +0.000 C 
ATOM      7  N   UNL     1       4.914   5.259  16.547  0.00  0.00    +0.000 N 
ATOM      8  C   UNL     1       4.109   4.267  17.128  0.00  0.00    +0.000 C 
ATOM      9  O   UNL     1       3.987   3.145  16.645  0.00  0.00    +0.000 OA
ATOM     10  H   UNL     1       8.405   6.861  16.386  0.00  0.00    +0.000 HD
ENDROOT
BRANCH   8  11
ATOM     11  C   UNL     1       3.339   4.546  18.384  0.00  0.00    +0.000 A 
ATOM     12  C   UNL     1       3.128   5.875  18.784  0.00  0.00    +0.000 A 
ATOM     13  C   UNL     1       2.233   6.175  19.820  0.00  0.00    +0.000 A 
ATOM     14  C   UNL     1       1.646   5.154  20.569  0.00  0.00    +0.000 A 
ATOM     15  C   UNL     1       1.982   3.830  20.280  0.00  0.00    +0.000 A 
ATOM     16  C   UNL     1       2.818   3.518  19.192  0.00  0.00    +0.000 A 
ATOM     17 CL   UNL     1       3.126   1.838  18.930  0.00  0.00    +0.000 Cl
BRANCH  13  18
ATOM     18  N   UNL     1       1.858   7.574  20.060  0.00  0.00    +0.000 N 
ATOM     19  O   UNL     1       2.003   8.371  19.120  0.00  0.00    +0.000 OA
ATOM     20  O   UNL     1       1.387   7.864  21.166  0.00  0.00    +0.000 OA
ENDBRANCH  13  18
ENDBRANCH   8  11
BRANCH   1  21
ATOM     21  C   UNL     1       5.772   3.657  14.638  0.00  0.00    +0.000 C 
BRANCH  21  22
ATOM     22  C   UNL     1       5.793   3.697  13.135  0.00  0.00    +0.000 C 
ATOM     23  O   UNL     1       6.784   3.771  12.416  0.00  0.00    +0.000 OA
BRANCH  22  25
ATOM     24  C   UNL     1       4.273   3.205  11.373  0.00  0.00    +0.000 C 
ATOM     25  O   UNL     1       4.498   3.670  12.701  0.00  0.00    +0.000 OA
ENDBRANCH  22  25
ENDBRANCH  21  22
ENDBRANCH   1  21
TORSDOF 5
ENDMDL
MODEL 6
REMARK VINA RESULT:      -6.3      2.670      7.809
REMARK  Name = 
REMARK  6 active torsions:
REMARK  status: ('A' for Active; 'I' for Inactive)
REMARK    1  A    between atoms: C_1  and  O_2
REMARK    2  A    between atoms: O_2  and  C_3
REMARK    3  A    between atoms: C_3  and  C_5
REMARK    4  A    between atoms: C_5  and  C_6
REMARK    5  A    between atoms: C_13  and  C_15
REMARK    6  A    between atoms: C_17  and  N_18
REMARK                            x       y       z     vdW  Elec       q    Type
REMARK                         _______ _______ _______ _____ _____    ______ ____
ROOT
ATOM      1  C   UNL     1       6.163   5.156  16.759  0.00  0.00    +0.000 C 
ATOM      2  C   UNL     1       7.507   4.586  17.331  0.00  0.00    +0.000 C 
ATOM      3  O   UNL     1       8.310   3.955  16.643  0.00  0.00    +0.000 OA
ATOM      4  N   UNL     1       7.877   4.962  18.601  0.00  0.00    +0.000 N 
ATOM      5  C   UNL     1       6.940   5.556  19.531  0.00  0.00    +0.000 C 
ATOM      6  C   UNL     1       6.008   6.513  18.787  0.00  0.00    +0.000 C 
ATOM      7  N   UNL     1       5.252   5.723  17.801  0.00  0.00    +0.000 N 
ATOM      8  C   UNL     1       3.868   5.491  17.818  0.00  0.00    +0.000 C 
ATOM      9  O   UNL     1       3.298   4.822  16.961  0.00  0.00    +0.000 OA
ATOM     10  H   UNL     1       8.717   4.512  18.946  0.00  0.00    +0.000 HD
ENDROOT
BRANCH   8  11
ATOM     11  C   UNL     1       3.008   6.072  18.900  0.00  0.00    +0.000 A 
ATOM     12  C   UNL     1       2.646   7.427  18.842  0.00  0.00    +0.000 A 
ATOM     13  C   UNL     1       1.672   7.944  19.707  0.00  0.00    +0.000 A 
ATOM     14  C   UNL     1       1.150   7.160  20.736  0.00  0.00    +0.000 A 
ATOM     15  C   UNL     1       1.629   5.859  20.900  0.00  0.00    +0.000 A 
ATOM     16  C   UNL     1       2.549   5.308  19.989  0.00  0.00    +0.000 A 
ATOM     17 CL   UNL     1       3.035   3.678  20.293  0.00  0.00    +0.000 Cl
BRANCH  13  18
ATOM     18  N   UNL     1       1.148   9.295  19.471  0.00  0.00    +0.000 N 
ATOM     19  O   UNL     1       1.013  10.032  20.460  0.00  0.00    +0.000 OA
ATOM     20  O   UNL     1       0.910   9.628  18.304  0.00  0.00    +0.000 OA
ENDBRANCH  13  18
ENDBRANCH   8  11
BRANCH   1  21
ATOM     21  C   UNL     1       5.634   4.204  15.681  0.00  0.00    +0.000 C 
BRANCH  21  22
ATOM     22  C   UNL     1       6.067   4.549  14.283  0.00  0.00    +0.000 C 
ATOM     23  O   UNL     1       6.974   5.310  13.962  0.00  0.00    +0.000 OA
BRANCH  22  25
ATOM     24  C   UNL     1       5.859   3.275  12.286  0.00  0.00    +0.000 C 
ATOM     25  O   UNL     1       5.244   3.884  13.419  0.00  0.00    +0.000 OA
ENDBRANCH  22  25
ENDBRANCH  21  22
ENDBRANCH   1  21
TORSDOF 5
ENDMDL
MODEL 7
REMARK VINA RESULT:      -6.2      1.473      1.599
REMARK  Name = 
REMARK  6 active torsions:
REMARK  status: ('A' for Active; 'I' for Inactive)
REMARK    1  A    between atoms: C_1  and  O_2
REMARK    2  A    between atoms: O_2  and  C_3
REMARK    3  A    between atoms: C_3  and  C_5
REMARK    4  A    between atoms: C_5  and  C_6
REMARK    5  A    between atoms: C_13  and  C_15
REMARK    6  A    between atoms: C_17  and  N_18
REMARK                            x       y       z     vdW  Elec       q    Type
REMARK                         _______ _______ _______ _____ _____    ______ ____
ROOT
ATOM      1  C   UNL     1       1.128   9.212  20.119  0.00  0.00    +0.000 C 
ATOM      2  C   UNL     1      -0.046  10.003  19.445  0.00  0.00    +0.000 C 
ATOM      3  O   UNL     1      -0.838  10.694  20.085  0.00  0.00    +0.000 OA
ATOM      4  N   UNL     1      -0.076  10.063  18.071  0.00  0.00    +0.000 N 
ATOM      5  C   UNL     1       0.702   9.165  17.244  0.00  0.00    +0.000 C 
ATOM      6  C   UNL     1       2.073   8.931  17.881  0.00  0.00    +0.000 C 
ATOM      7  N   UNL     1       1.853   8.292  19.189  0.00  0.00    +0.000 N 
ATOM      8  C   UNL     1       2.235   6.988  19.544  0.00  0.00    +0.000 C 
ATOM      9  O   UNL     1       2.022   6.515  20.657  0.00  0.00    +0.000 OA
ATOM     10  H   UNL     1      -0.890  10.527  17.687  0.00  0.00    +0.000 HD
ENDROOT
BRANCH   8  11
ATOM     11  C   UNL     1       2.944   6.104  18.562  0.00  0.00    +0.000 A 
ATOM     12  C   UNL     1       3.982   6.635  17.780  0.00  0.00    +0.000 A 
ATOM     13  C   UNL     1       4.805   5.793  17.020  0.00  0.00    +0.000 A 
ATOM     14  C   UNL     1       4.520   4.432  16.911  0.00  0.00    +0.000 A 
ATOM     15  C   UNL     1       3.388   3.927  17.557  0.00  0.00    +0.000 A 
ATOM     16  C   UNL     1       2.603   4.751  18.383  0.00  0.00    +0.000 A 
ATOM     17 CL   UNL     1       1.250   3.991  19.145  0.00  0.00    +0.000 Cl
BRANCH  13  18
ATOM     18  N   UNL     1       6.018   6.343  16.402  0.00  0.00    +0.000 N 
ATOM     19  O   UNL     1       6.566   7.297  16.976  0.00  0.00    +0.000 OA
ATOM     20  O   UNL     1       6.439   5.802  15.373  0.00  0.00    +0.000 OA
ENDBRANCH  13  18
ENDBRANCH   8  11
BRANCH   1  21
ATOM     21  C   UNL     1       0.682   8.742  21.507  0.00  0.00    +0.000 C 
BRANCH  21  22
ATOM     22  C   UNL     1       1.278   9.522  22.647  0.00  0.00    +0.000 C 
ATOM     23  O   UNL     1       2.361   9.320  23.187  0.00  0.00    +0.000 OA
BRANCH  22  25
ATOM     24  C   UNL     1      -0.945  10.054  23.301  0.00  0.00    +0.000 C 
ATOM     25  O   UNL     1       0.379  10.487  23.004  0.00  0.00    +0.000 OA
ENDBRANCH  22  25
ENDBRANCH  21  22
ENDBRANCH   1  21
TORSDOF 5
ENDMDL
MODEL 8
REMARK VINA RESULT:      -6.1      2.405      6.978
REMARK  Name = 
REMARK  6 active torsions:
REMARK  status: ('A' for Active; 'I' for Inactive)
REMARK    1  A    between atoms: C_1  and  O_2
REMARK    2  A    between atoms: O_2  and  C_3
REMARK    3  A    between atoms: C_3  and  C_5
REMARK    4  A    between atoms: C_5  and  C_6
REMARK    5  A    between atoms: C_13  and  C_15
REMARK    6  A    between atoms: C_17  and  N_18
REMARK                            x       y       z     vdW  Elec       q    Type
REMARK                         _______ _______ _______ _____ _____    ______ ____
ROOT
ATOM      1  C   UNL     1       3.568   4.405  19.395  0.00  0.00    +0.000 C 
ATOM      2  C   UNL     1       2.787   3.058  19.223  0.00  0.00    +0.000 C 
ATOM      3  O   UNL     1       3.286   2.059  18.702  0.00  0.00    +0.000 OA
ATOM      4  N   UNL     1       1.561   2.940  19.837  0.00  0.00    +0.000 N 
ATOM      5  C   UNL     1       0.831   4.091  20.324  0.00  0.00    +0.000 C 
ATOM      6  C   UNL     1       1.803   5.098  20.940  0.00  0.00    +0.000 C 
ATOM      7  N   UNL     1       2.720   5.541  19.877  0.00  0.00    +0.000 N 
ATOM      8  C   UNL     1       2.801   6.837  19.343  0.00  0.00    +0.000 C 
ATOM      9  O   UNL     1       3.592   7.140  18.455  0.00  0.00    +0.000 OA
ATOM     10  H   UNL     1       1.071   2.076  19.638  0.00  0.00    +0.000 HD
ENDROOT
BRANCH   8  11
ATOM     11  C   UNL     1       1.911   7.931  19.855  0.00  0.00    +0.000 A 
ATOM     12  C   UNL     1       1.671   8.036  21.234  0.00  0.00    +0.000 A 
ATOM     13  C   UNL     1       1.032   9.167  21.762  0.00  0.00    +0.000 A 
ATOM     14  C   UNL     1       0.495  10.138  20.917  0.00  0.00    +0.000 A 
ATOM     15  C   UNL     1       0.587   9.953  19.536  0.00  0.00    +0.000 A 
ATOM     16  C   UNL     1       1.294   8.862  19.000  0.00  0.00    +0.000 A 
ATOM     17 CL   UNL     1       1.356   8.772  17.275  0.00  0.00    +0.000 Cl
BRANCH  13  18
ATOM     18  N   UNL     1       1.003   9.359  23.217  0.00  0.00    +0.000 N 
ATOM     19  O   UNL     1       2.083   9.282  23.823  0.00  0.00    +0.000 OA
ATOM     20  O   UNL     1      -0.086   9.620  23.744  0.00  0.00    +0.000 OA
ENDBRANCH  13  18
ENDBRANCH   8  11
BRANCH   1  21
ATOM     21  C   UNL     1       4.528   4.582  18.214  0.00  0.00    +0.000 C 
BRANCH  21  22
ATOM     22  C   UNL     1       5.962   4.801  18.608  0.00  0.00    +0.000 C 
ATOM     23  O   UNL     1       6.379   5.107  19.721  0.00  0.00    +0.000 OA
BRANCH  22  25
ATOM     24  C   UNL     1       7.044   5.797  16.740  0.00  0.00    +0.000 C 
ATOM     25  O   UNL     1       6.730   4.628  17.492  0.00  0.00    +0.000 OA
ENDBRANCH  22  25
ENDBRANCH  21  22
ENDBRANCH   1  21
TORSDOF 5
ENDMDL
MODEL 9
REMARK VINA RESULT:      -6.1      2.161      2.267
REMARK  Name = 
REMARK  6 active torsions:
REMARK  status: ('A' for Active; 'I' for Inactive)
REMARK    1  A    between atoms: C_1  and  O_2
REMARK    2  A    between atoms: O_2  and  C_3
REMARK    3  A    between atoms: C_3  and  C_5
REMARK    4  A    between atoms: C_5  and  C_6
REMARK    5  A    between atoms: C_13  and  C_15
REMARK    6  A    between atoms: C_17  and  N_18
REMARK                            x       y       z     vdW  Elec       q    Type
REMARK                         _______ _______ _______ _____ _____    ______ ____
ROOT
ATOM      1  C   UNL     1       1.862   7.875  20.194  0.00  0.00    +0.000 C 
ATOM      2  C   UNL     1       1.555   8.977  19.123  0.00  0.00    +0.000 C 
ATOM      3  O   UNL     1       0.955  10.019  19.391  0.00  0.00    +0.000 OA
ATOM      4  N   UNL     1       2.133   8.849  17.881  0.00  0.00    +0.000 N 
ATOM      5  C   UNL     1       2.709   7.601  17.427  0.00  0.00    +0.000 C 
ATOM      6  C   UNL     1       3.432   6.912  18.584  0.00  0.00    +0.000 C 
ATOM      7  N   UNL     1       2.430   6.614  19.621  0.00  0.00    +0.000 N 
ATOM      8  C   UNL     1       2.017   5.335  20.028  0.00  0.00    +0.000 C 
ATOM      9  O   UNL     1       1.176   5.157  20.902  0.00  0.00    +0.000 OA
ATOM     10  H   UNL     1       1.847   9.550  17.209  0.00  0.00    +0.000 HD
ENDROOT
BRANCH   8  11
ATOM     11  C   UNL     1       2.610   4.107  19.403  0.00  0.00    +0.000 A 
ATOM     12  C   UNL     1       3.646   3.428  20.064  0.00  0.00    +0.000 A 
ATOM     13  C   UNL     1       4.066   2.165  19.624  0.00  0.00    +0.000 A 
ATOM     14  C   UNL     1       3.566   1.625  18.438  0.00  0.00    +0.000 A 
ATOM     15  C   UNL     1       2.655   2.373  17.689  0.00  0.00    +0.000 A 
ATOM     16  C   UNL     1       2.170   3.605  18.165  0.00  0.00    +0.000 A 
ATOM     17 CL   UNL     1       1.024   4.410  17.152  0.00  0.00    +0.000 Cl
BRANCH  13  18
ATOM     18  N   UNL     1       4.980   1.381  20.463  0.00  0.00    +0.000 N 
ATOM     19  O   UNL     1       5.401   0.310  19.998  0.00  0.00    +0.000 OA
ATOM     20  O   UNL     1       5.304   1.851  21.560  0.00  0.00    +0.000 OA
ENDBRANCH  13  18
ENDBRANCH   8  11
BRANCH   1  21
ATOM     21  C   UNL     1       0.720   7.835  21.214  0.00  0.00    +0.000 C 
BRANCH  21  22
ATOM     22  C   UNL     1       0.720   8.980  22.189  0.00  0.00    +0.000 C 
ATOM     23  O   UNL     1       1.700   9.482  22.731  0.00  0.00    +0.000 OA
BRANCH  22  25
ATOM     24  C   UNL     1      -0.796  10.572  23.094  0.00  0.00    +0.000 C 
ATOM     25  O   UNL     1      -0.578   9.349  22.396  0.00  0.00    +0.000 OA
ENDBRANCH  22  25
ENDBRANCH  21  22
ENDBRANCH   1  21
TORSDOF 5
ENDMDL
