MODEL 1
REMARK VINA RESULT:      -7.4      0.000      0.000
REMARK  Name = 
REMARK  7 active torsions:
REMARK  status: ('A' for Active; 'I' for Inactive)
REMARK    1  A    between atoms: C_2  and  C_3
REMARK    2  A    between atoms: C_3  and  N_4
REMARK    3  A    between atoms: N_4  and  C_5
REMARK    4  A    between atoms: C_5  and  C_6
REMARK    5  A    between atoms: N_11  and  C_12
REMARK    6  A    between atoms: C_15  and  S_16
REMARK    7  A    between atoms: S_16  and  N_19
REMARK                            x       y       z     vdW  Elec       q    Type
REMARK                         _______ _______ _______ _____ _____    ______ ____
ROOT
ATOM      1  C   UNL     1       2.513   7.007  18.447  0.00  0.00    +0.000 A 
ATOM      2  C   UNL     1       2.458   8.133  17.622  0.00  0.00    +0.000 A 
ATOM      3  C   UNL     1       1.942   9.345  18.093  0.00  0.00    +0.000 A 
ATOM      4  C   UNL     1       1.455   9.437  19.398  0.00  0.00    +0.000 A 
ATOM      5  C   UNL     1       1.547   8.336  20.256  0.00  0.00    +0.000 A 
ATOM      6  C   UNL     1       2.061   7.122  19.772  0.00  0.00    +0.000 A 
ENDROOT
BRANCH   1   9
ATOM      7  O   UNL     1       5.285   6.061  18.045  0.00  0.00    +0.000 OA
ATOM      8  C   UNL     1       4.294   5.385  17.773  0.00  0.00    +0.000 C 
ATOM      9  N   UNL     1       2.975   5.749  18.005  0.00  0.00    +0.000 N 
ATOM     10  H   UNL     1       2.273   5.025  17.909  0.00  0.00    +0.000 HD
BRANCH   8  11
ATOM     11  C   UNL     1       4.456   3.979  17.183  0.00  0.00    +0.000 C 
BRANCH  11  12
ATOM     12  N   UNL     1       4.859   3.009  18.215  0.00  0.00    +0.000 NA
ATOM     13  H   UNL     1       5.004   3.522  19.090  0.00  0.00    +0.000 HD
BRANCH  12  14
ATOM     14  C   UNL     1       3.822   2.002  18.449  0.00  0.00    +0.000 C 
BRANCH  14  15
ATOM     15  C   UNL     1       2.759   2.536  19.362  0.00  0.00    +0.000 A 
ATOM     16  C   UNL     1       2.871   2.929  20.683  0.00  0.00    +0.000 A 
ATOM     17  C   UNL     1       1.625   3.343  21.236  0.00  0.00    +0.000 A 
ATOM     18  C   UNL     1       0.602   3.259  20.319  0.00  0.00    +0.000 A 
ATOM     19  S   UNL     1       1.144   2.687  18.803  0.00  0.00    +0.000 S 
ENDBRANCH  14  15
ENDBRANCH  12  14
ENDBRANCH  11  12
ENDBRANCH   8  11
ENDBRANCH   1   9
BRANCH   4  20
ATOM     20  S   UNL     1       0.813  10.999  19.984  0.00  0.00    +0.000 S 
ATOM     21  O   UNL     1       0.846  10.960  21.430  0.00  0.00    +0.000 OA
ATOM     22  O   UNL     1       1.495  12.045  19.250  0.00  0.00    +0.000 OA
BRANCH  20  23
ATOM     23  N   UNL     1      -0.830  10.986  19.484  0.00  0.00    +0.000 NA
ATOM     24  C   UNL     1      -1.562  12.264  19.673  0.00  0.00    +0.000 C 
ATOM     25  C   UNL     1      -3.055  12.093  19.413  0.00  0.00    +0.000 C 
ATOM     26  C   UNL     1      -3.306  11.481  18.042  0.00  0.00    +0.000 C 
ATOM     27  C   UNL     1      -2.594  10.140  17.952  0.00  0.00    +0.000 C 
ATOM     28  C   UNL     1      -1.096  10.293  18.199  0.00  0.00    +0.000 C 
ENDBRANCH  20  23
ENDBRANCH   4  20
TORSDOF 7
ENDMDL
MODEL 2
REMARK VINA RESULT:      -7.4      1.428      1.966
REMARK  Name = 
REMARK  7 active torsions:
REMARK  status: ('A' for Active; 'I' for Inactive)
REMARK    1  A    between atoms: C_2  and  C_3
REMARK    2  A    between atoms: C_3  and  N_4
REMARK    3  A    between atoms: N_4  and  C_5
REMARK    4  A    between atoms: C_5  and  C_6
REMARK    5  A    between atoms: N_11  and  C_12
REMARK    6  A    between atoms: C_15  and  S_16
REMARK    7  A    between atoms: S_16  and  N_19
REMARK                            x       y       z     vdW  Elec       q    Type
REMARK                         _______ _______ _______ _____ _____    ______ ____
ROOT
ATOM      1  C   UNL     1       2.465   6.591  18.582  0.00  0.00    +0.000 A 
ATOM      2  C   UNL     1       2.234   7.828  17.974  0.00  0.00    +0.000 A 
ATOM      3  C   UNL     1       1.671   8.888  18.692  0.00  0.00    +0.000 A 
ATOM      4  C   UNL     1       1.315   8.714  20.031  0.00  0.00    +0.000 A 
ATOM      5  C   UNL     1       1.584   7.501  20.672  0.00  0.00    +0.000 A 
ATOM      6  C   UNL     1       2.144   6.440  19.941  0.00  0.00    +0.000 A 
ENDROOT
BRANCH   1   9
ATOM      7  O   UNL     1       5.276   5.765  18.184  0.00  0.00    +0.000 OA
ATOM      8  C   UNL     1       4.320   5.176  17.681  0.00  0.00    +0.000 C 
ATOM      9  N   UNL     1       2.981   5.476  17.889  0.00  0.00    +0.000 N 
ATOM     10  H   UNL     1       2.301   4.797  17.567  0.00  0.00    +0.000 HD
BRANCH   8  11
ATOM     11  C   UNL     1       4.551   3.954  16.785  0.00  0.00    +0.000 C 
BRANCH  11  12
ATOM     12  N   UNL     1       4.577   2.710  17.573  0.00  0.00    +0.000 NA
ATOM     13  H   UNL     1       4.912   2.940  18.514  0.00  0.00    +0.000 HD
BRANCH  12  14
ATOM     14  C   UNL     1       3.243   2.121  17.703  0.00  0.00    +0.000 C 
BRANCH  14  15
ATOM     15  C   UNL     1       2.674   2.385  19.064  0.00  0.00    +0.000 A 
ATOM     16  C   UNL     1       1.352   2.561  19.429  0.00  0.00    +0.000 A 
ATOM     17  C   UNL     1       1.203   2.837  20.820  0.00  0.00    +0.000 A 
ATOM     18  C   UNL     1       2.415   2.858  21.473  0.00  0.00    +0.000 A 
ATOM     19  S   UNL     1       3.719   2.543  20.415  0.00  0.00    +0.000 S 
ENDBRANCH  14  15
ENDBRANCH  12  14
ENDBRANCH  11  12
ENDBRANCH   8  11
ENDBRANCH   1   9
BRANCH   4  20
ATOM     20  S   UNL     1       0.609  10.086  20.934  0.00  0.00    +0.000 S 
ATOM     21  O   UNL     1      -0.699   9.670  21.391  0.00  0.00    +0.000 OA
ATOM     22  O   UNL     1       1.615  10.546  21.869  0.00  0.00    +0.000 OA
BRANCH  20  23
ATOM     23  N   UNL     1       0.398  11.304  19.741  0.00  0.00    +0.000 NA
ATOM     24  C   UNL     1      -1.012  11.639  19.418  0.00  0.00    +0.000 C 
ATOM     25  C   UNL     1      -1.101  12.557  18.203  0.00  0.00    +0.000 C 
ATOM     26  C   UNL     1      -0.241  13.799  18.391  0.00  0.00    +0.000 C 
ATOM     27  C   UNL     1       1.201  13.379  18.636  0.00  0.00    +0.000 C 
ATOM     28  C   UNL     1       1.311  12.467  19.855  0.00  0.00    +0.000 C 
ENDBRANCH  20  23
ENDBRANCH   4  20
TORSDOF 7
ENDMDL
MODEL 3
REMARK VINA RESULT:      -7.4      0.646      1.258
REMARK  Name = 
REMARK  7 active torsions:
REMARK  status: ('A' for Active; 'I' for Inactive)
REMARK    1  A    between atoms: C_2  and  C_3
REMARK    2  A    between atoms: C_3  and  N_4
REMARK    3  A    between atoms: N_4  and  C_5
REMARK    4  A    between atoms: C_5  and  C_6
REMARK    5  A    between atoms: N_11  and  C_12
REMARK    6  A    between atoms: C_15  and  S_16
REMARK    7  A    between atoms: S_16  and  N_19
REMARK                            x       y       z     vdW  Elec       q    Type
REMARK                         _______ _______ _______ _____ _____    ______ ____
ROOT
ATOM      1  C   UNL     1       2.529   6.926  18.381  0.00  0.00    +0.000 A 
ATOM      2  C   UNL     1       2.054   7.054  19.689  0.00  0.00    +0.000 A 
ATOM      3  C   UNL     1       1.574   8.278  20.163  0.00  0.00    +0.000 A 
ATOM      4  C   UNL     1       1.580   9.400  19.332  0.00  0.00    +0.000 A 
ATOM      5  C   UNL     1       2.004   9.283  18.005  0.00  0.00    +0.000 A 
ATOM      6  C   UNL     1       2.490   8.050  17.540  0.00  0.00    +0.000 A 
ENDROOT
BRANCH   1   9
ATOM      7  O   UNL     1       5.346   6.037  18.278  0.00  0.00    +0.000 OA
ATOM      8  C   UNL     1       4.416   5.394  17.793  0.00  0.00    +0.000 C 
ATOM      9  N   UNL     1       3.072   5.728  17.872  0.00  0.00    +0.000 N 
ATOM     10  H   UNL     1       2.404   5.017  17.596  0.00  0.00    +0.000 HD
BRANCH   8  11
ATOM     11  C   UNL     1       4.686   4.065  17.077  0.00  0.00    +0.000 C 
BRANCH  11  12
ATOM     12  N   UNL     1       4.748   2.946  18.033  0.00  0.00    +0.000 NA
ATOM     13  H   UNL     1       4.831   3.341  18.975  0.00  0.00    +0.000 HD
BRANCH  12  14
ATOM     14  C   UNL     1       3.533   2.130  17.994  0.00  0.00    +0.000 C 
BRANCH  14  15
ATOM     15  C   UNL     1       2.578   2.543  19.073  0.00  0.00    +0.000 A 
ATOM     16  C   UNL     1       1.225   2.810  18.975  0.00  0.00    +0.000 A 
ATOM     17  C   UNL     1       0.658   3.218  20.217  0.00  0.00    +0.000 A 
ATOM     18  C   UNL     1       1.596   3.245  21.226  0.00  0.00    +0.000 A 
ATOM     19  S   UNL     1       3.144   2.778  20.676  0.00  0.00    +0.000 S 
ENDBRANCH  14  15
ENDBRANCH  12  14
ENDBRANCH  11  12
ENDBRANCH   8  11
ENDBRANCH   1   9
BRANCH   4  20
ATOM     20  S   UNL     1       0.948  10.953  19.954  0.00  0.00    +0.000 S 
ATOM     21  O   UNL     1       0.989  10.883  21.399  0.00  0.00    +0.000 OA
ATOM     22  O   UNL     1       1.632  12.011  19.239  0.00  0.00    +0.000 OA
BRANCH  20  23
ATOM     23  N   UNL     1      -0.698  10.958  19.463  0.00  0.00    +0.000 NA
ATOM     24  C   UNL     1      -1.417  12.241  19.665  0.00  0.00    +0.000 C 
ATOM     25  C   UNL     1      -2.913  12.085  19.413  0.00  0.00    +0.000 C 
ATOM     26  C   UNL     1      -3.177  11.486  18.039  0.00  0.00    +0.000 C 
ATOM     27  C   UNL     1      -2.477  10.139  17.935  0.00  0.00    +0.000 C 
ATOM     28  C   UNL     1      -0.977  10.277  18.176  0.00  0.00    +0.000 C 
ENDBRANCH  20  23
ENDBRANCH   4  20
TORSDOF 7
ENDMDL
MODEL 4
REMARK VINA RESULT:      -7.3      2.046      3.497
REMARK  Name = 
REMARK  7 active torsions:
REMARK  status: ('A' for Active; 'I' for Inactive)
REMARK    1  A    between atoms: C_2  and  C_3
REMARK    2  A    between atoms: C_3  and  N_4
REMARK    3  A    between atoms: N_4  and  C_5
REMARK    4  A    between atoms: C_5  and  C_6
REMARK    5  A    between atoms: N_11  and  C_12
REMARK    6  A    between atoms: C_15  and  S_16
REMARK    7  A    between atoms: S_16  and  N_19
REMARK                            x       y       z     vdW  Elec       q    Type
REMARK                         _______ _______ _______ _____ _____    ______ ____
ROOT
ATOM      1  C   UNL     1       2.054   7.441  19.926  0.00  0.00    +0.000 A 
ATOM      2  C   UNL     1       1.270   8.073  20.894  0.00  0.00    +0.000 A 
ATOM      3  C   UNL     1       0.737   9.346  20.669  0.00  0.00    +0.000 A 
ATOM      4  C   UNL     1       1.000  10.012  19.471  0.00  0.00    +0.000 A 
ATOM      5  C   UNL     1       1.740   9.377  18.468  0.00  0.00    +0.000 A 
ATOM      6  C   UNL     1       2.276   8.101  18.706  0.00  0.00    +0.000 A 
ENDROOT
BRANCH   1   9
ATOM      7  O   UNL     1       1.751   4.948  18.366  0.00  0.00    +0.000 OA
ATOM      8  C   UNL     1       2.424   5.026  19.392  0.00  0.00    +0.000 C 
ATOM      9  N   UNL     1       2.657   6.181  20.124  0.00  0.00    +0.000 N 
ATOM     10  H   UNL     1       3.379   6.139  20.834  0.00  0.00    +0.000 HD
BRANCH   8  11
ATOM     11  C   UNL     1       3.151   3.789  19.935  0.00  0.00    +0.000 C 
BRANCH  11  12
ATOM     12  N   UNL     1       4.123   3.268  18.959  0.00  0.00    +0.000 NA
ATOM     13  H   UNL     1       3.662   3.232  18.044  0.00  0.00    +0.000 HD
BRANCH  12  14
ATOM     14  C   UNL     1       5.293   4.141  18.839  0.00  0.00    +0.000 C 
BRANCH  14  15
ATOM     15  C   UNL     1       5.660   4.344  17.399  0.00  0.00    +0.000 A 
ATOM     16  C   UNL     1       4.851   4.265  16.281  0.00  0.00    +0.000 A 
ATOM     17  C   UNL     1       5.571   4.481  15.070  0.00  0.00    +0.000 A 
ATOM     18  C   UNL     1       6.906   4.723  15.303  0.00  0.00    +0.000 A 
ATOM     19  S   UNL     1       7.284   4.693  16.969  0.00  0.00    +0.000 S 
ENDBRANCH  14  15
ENDBRANCH  12  14
ENDBRANCH  11  12
ENDBRANCH   8  11
ENDBRANCH   1   9
BRANCH   4  20
ATOM     20  S   UNL     1       0.297  11.633  19.198  0.00  0.00    +0.000 S 
ATOM     21  O   UNL     1      -0.043  12.176  20.496  0.00  0.00    +0.000 OA
ATOM     22  O   UNL     1       1.189  12.342  18.304  0.00  0.00    +0.000 OA
BRANCH  20  23
ATOM     23  N   UNL     1      -1.163  11.315  18.350  0.00  0.00    +0.000 NA
ATOM     24  C   UNL     1      -1.211  10.015  17.635  0.00  0.00    +0.000 C 
ATOM     25  C   UNL     1      -2.441   9.920  16.737  0.00  0.00    +0.000 C 
ATOM     26  C   UNL     1      -3.715  10.195  17.522  0.00  0.00    +0.000 C 
ATOM     27  C   UNL     1      -3.626  11.574  18.158  0.00  0.00    +0.000 C 
ATOM     28  C   UNL     1      -2.406  11.684  19.069  0.00  0.00    +0.000 C 
ENDBRANCH  20  23
ENDBRANCH   4  20
TORSDOF 7
ENDMDL
MODEL 5
REMARK VINA RESULT:      -7.3      0.872      1.296
REMARK  Name = 
REMARK  7 active torsions:
REMARK  status: ('A' for Active; 'I' for Inactive)
REMARK    1  A    between atoms: C_2  and  C_3
REMARK    2  A    between atoms: C_3  and  N_4
REMARK    3  A    between atoms: N_4  and  C_5
REMARK    4  A    between atoms: C_5  and  C_6
REMARK    5  A    between atoms: N_11  and  C_12
REMARK    6  A    between atoms: C_15  and  S_16
REMARK    7  A    between atoms: S_16  and  N_19
REMARK                            x       y       z     vdW  Elec       q    Type
REMARK                         _______ _______ _______ _____ _____    ______ ____
ROOT
ATOM      1  C   UNL     1       2.460   7.370  18.906  0.00  0.00    +0.000 A 
ATOM      2  C   UNL     1       1.826   7.693  20.109  0.00  0.00    +0.000 A 
ATOM      3  C   UNL     1       1.149   8.907  20.262  0.00  0.00    +0.000 A 
ATOM      4  C   UNL     1       1.114   9.825  19.210  0.00  0.00    +0.000 A 
ATOM      5  C   UNL     1       1.699   9.501  17.982  0.00  0.00    +0.000 A 
ATOM      6  C   UNL     1       2.382   8.281  17.840  0.00  0.00    +0.000 A 
ENDROOT
BRANCH   1   9
ATOM      7  O   UNL     1       5.057   6.972  17.551  0.00  0.00    +0.000 OA
ATOM      8  C   UNL     1       4.388   6.050  18.014  0.00  0.00    +0.000 C 
ATOM      9  N   UNL     1       3.200   6.184  18.718  0.00  0.00    +0.000 N 
ATOM     10  H   UNL     1       2.856   5.363  19.203  0.00  0.00    +0.000 HD
BRANCH   8  11
ATOM     11  C   UNL     1       4.879   4.602  17.894  0.00  0.00    +0.000 C 
BRANCH  11  12
ATOM     12  N   UNL     1       5.250   4.052  19.210  0.00  0.00    +0.000 NA
ATOM     13  H   UNL     1       4.923   4.707  19.927  0.00  0.00    +0.000 HD
BRANCH  12  14
ATOM     14  C   UNL     1       4.610   2.758  19.457  0.00  0.00    +0.000 C 
BRANCH  14  15
ATOM     15  C   UNL     1       3.145   2.929  19.722  0.00  0.00    +0.000 A 
ATOM     16  C   UNL     1       2.526   3.489  20.824  0.00  0.00    +0.000 A 
ATOM     17  C   UNL     1       1.104   3.437  20.736  0.00  0.00    +0.000 A 
ATOM     18  C   UNL     1       0.683   2.843  19.567  0.00  0.00    +0.000 A 
ATOM     19  S   UNL     1       1.994   2.357  18.585  0.00  0.00    +0.000 S 
ENDBRANCH  14  15
ENDBRANCH  12  14
ENDBRANCH  11  12
ENDBRANCH   8  11
ENDBRANCH   1   9
BRANCH   4  20
ATOM     20  S   UNL     1       0.231  11.364  19.422  0.00  0.00    +0.000 S 
ATOM     21  O   UNL     1       0.185  11.639  20.843  0.00  0.00    +0.000 OA
ATOM     22  O   UNL     1       0.805  12.319  18.497  0.00  0.00    +0.000 OA
BRANCH  20  23
ATOM     23  N   UNL     1      -1.363  11.005  18.893  0.00  0.00    +0.000 NA
ATOM     24  C   UNL     1      -2.330  12.128  18.981  0.00  0.00    +0.000 C 
ATOM     25  C   UNL     1      -3.755  11.658  18.705  0.00  0.00    +0.000 C 
ATOM     26  C   UNL     1      -3.841  10.926  17.374  0.00  0.00    +0.000 C 
ATOM     27  C   UNL     1      -2.884   9.743  17.387  0.00  0.00    +0.000 C 
ATOM     28  C   UNL     1      -1.451  10.196  17.653  0.00  0.00    +0.000 C 
ENDBRANCH  20  23
ENDBRANCH   4  20
TORSDOF 7
ENDMDL
MODEL 6
REMARK VINA RESULT:      -7.2      0.772      1.354
REMARK  Name = 
REMARK  7 active torsions:
REMARK  status: ('A' for Active; 'I' for Inactive)
REMARK    1  A    between atoms: C_2  and  C_3
REMARK    2  A    between atoms: C_3  and  N_4
REMARK    3  A    between atoms: N_4  and  C_5
REMARK    4  A    between atoms: C_5  and  C_6
REMARK    5  A    between atoms: N_11  and  C_12
REMARK    6  A    between atoms: C_15  and  S_16
REMARK    7  A    between atoms: S_16  and  N_19
REMARK                            x       y       z     vdW  Elec       q    Type
REMARK                         _______ _______ _______ _____ _____    ______ ____
ROOT
ATOM      1  C   UNL     1       2.731   7.006  18.354  0.00  0.00    +0.000 A 
ATOM      2  C   UNL     1       2.642   8.124  17.520  0.00  0.00    +0.000 A 
ATOM      3  C   UNL     1       2.020   9.298  17.956  0.00  0.00    +0.000 A 
ATOM      4  C   UNL     1       1.461   9.361  19.234  0.00  0.00    +0.000 A 
ATOM      5  C   UNL     1       1.583   8.271  20.102  0.00  0.00    +0.000 A 
ATOM      6  C   UNL     1       2.205   7.094  19.653  0.00  0.00    +0.000 A 
ENDROOT
BRANCH   1   9
ATOM      7  O   UNL     1       5.557   6.348  17.787  0.00  0.00    +0.000 OA
ATOM      8  C   UNL     1       4.632   5.552  17.630  0.00  0.00    +0.000 C 
ATOM      9  N   UNL     1       3.301   5.782  17.945  0.00  0.00    +0.000 N 
ATOM     10  H   UNL     1       2.681   4.980  17.943  0.00  0.00    +0.000 HD
BRANCH   8  11
ATOM     11  C   UNL     1       4.911   4.138  17.104  0.00  0.00    +0.000 C 
BRANCH  11  12
ATOM     12  N   UNL     1       4.786   3.134  18.174  0.00  0.00    +0.000 NA
ATOM     13  H   UNL     1       4.700   3.634  19.065  0.00  0.00    +0.000 HD
BRANCH  12  14
ATOM     14  C   UNL     1       3.589   2.307  18.006  0.00  0.00    +0.000 C 
BRANCH  14  15
ATOM     15  C   UNL     1       2.570   2.624  19.059  0.00  0.00    +0.000 A 
ATOM     16  C   UNL     1       1.220   2.881  18.906  0.00  0.00    +0.000 A 
ATOM     17  C   UNL     1       0.579   3.185  20.142  0.00  0.00    +0.000 A 
ATOM     18  C   UNL     1       1.459   3.146  21.200  0.00  0.00    +0.000 A 
ATOM     19  S   UNL     1       3.043   2.742  20.704  0.00  0.00    +0.000 S 
ENDBRANCH  14  15
ENDBRANCH  12  14
ENDBRANCH  11  12
ENDBRANCH   8  11
ENDBRANCH   1   9
BRANCH   4  20
ATOM     20  S   UNL     1       0.684  10.876  19.776  0.00  0.00    +0.000 S 
ATOM     21  O   UNL     1       0.292  10.686  21.156  0.00  0.00    +0.000 OA
ATOM     22  O   UNL     1       1.556  11.967  19.392  0.00  0.00    +0.000 OA
BRANCH  20  23
ATOM     23  N   UNL     1      -0.741  10.976  18.822  0.00  0.00    +0.000 NA
ATOM     24  C   UNL     1      -1.058   9.763  18.025  0.00  0.00    +0.000 C 
ATOM     25  C   UNL     1      -2.202  10.022  17.050  0.00  0.00    +0.000 C 
ATOM     26  C   UNL     1      -3.423  10.574  17.772  0.00  0.00    +0.000 C 
ATOM     27  C   UNL     1      -3.042  11.856  18.498  0.00  0.00    +0.000 C 
ATOM     28  C   UNL     1      -1.904  11.614  19.486  0.00  0.00    +0.000 C 
ENDBRANCH  20  23
ENDBRANCH   4  20
TORSDOF 7
ENDMDL
MODEL 7
REMARK VINA RESULT:      -7.2      2.374      3.793
REMARK  Name = 
REMARK  7 active torsions:
REMARK  status: ('A' for Active; 'I' for Inactive)
REMARK    1  A    between atoms: C_2  and  C_3
REMARK    2  A    between atoms: C_3  and  N_4
REMARK    3  A    between atoms: N_4  and  C_5
REMARK    4  A    between atoms: C_5  and  C_6
REMARK    5  A    between atoms: N_11  and  C_12
REMARK    6  A    between atoms: C_15  and  S_16
REMARK    7  A    between atoms: S_16  and  N_19
REMARK                            x       y       z     vdW  Elec       q    Type
REMARK                         _______ _______ _______ _____ _____    ______ ____
ROOT
ATOM      1  C   UNL     1       2.425   5.836  19.310  0.00  0.00    +0.000 A 
ATOM      2  C   UNL     1       1.780   5.770  20.548  0.00  0.00    +0.000 A 
ATOM      3  C   UNL     1       1.247   6.918  21.143  0.00  0.00    +0.000 A 
ATOM      4  C   UNL     1       1.371   8.156  20.509  0.00  0.00    +0.000 A 
ATOM      5  C   UNL     1       1.969   8.236  19.247  0.00  0.00    +0.000 A 
ATOM      6  C   UNL     1       2.507   7.078  18.660  0.00  0.00    +0.000 A 
ENDROOT
BRANCH   1   9
ATOM      7  O   UNL     1       1.317   3.994  17.281  0.00  0.00    +0.000 OA
ATOM      8  C   UNL     1       2.427   3.850  17.791  0.00  0.00    +0.000 C 
ATOM      9  N   UNL     1       3.025   4.718  18.693  0.00  0.00    +0.000 N 
ATOM     10  H   UNL     1       4.010   4.578  18.884  0.00  0.00    +0.000 HD
BRANCH   8  11
ATOM     11  C   UNL     1       3.312   2.661  17.393  0.00  0.00    +0.000 C 
BRANCH  11  12
ATOM     12  N   UNL     1       4.742   3.003  17.488  0.00  0.00    +0.000 NA
ATOM     13  H   UNL     1       5.277   2.130  17.445  0.00  0.00    +0.000 HD
BRANCH  12  14
ATOM     14  C   UNL     1       5.172   3.851  16.374  0.00  0.00    +0.000 C 
BRANCH  14  15
ATOM     15  C   UNL     1       5.915   5.052  16.875  0.00  0.00    +0.000 A 
ATOM     16  C   UNL     1       5.617   6.390  16.695  0.00  0.00    +0.000 A 
ATOM     17  C   UNL     1       6.587   7.250  17.288  0.00  0.00    +0.000 A 
ATOM     18  C   UNL     1       7.592   6.541  17.907  0.00  0.00    +0.000 A 
ATOM     19  S   UNL     1       7.363   4.853  17.774  0.00  0.00    +0.000 S 
ENDBRANCH  14  15
ENDBRANCH  12  14
ENDBRANCH  11  12
ENDBRANCH   8  11
ENDBRANCH   1   9
BRANCH   4  20
ATOM     20  S   UNL     1       0.671   9.608  21.281  0.00  0.00    +0.000 S 
ATOM     21  O   UNL     1      -0.610   9.223  21.834  0.00  0.00    +0.000 OA
ATOM     22  O   UNL     1       1.701  10.188  22.118  0.00  0.00    +0.000 OA
BRANCH  20  23
ATOM     23  N   UNL     1       0.388  10.680  19.968  0.00  0.00    +0.000 NA
ATOM     24  C   UNL     1      -1.035  10.838  19.573  0.00  0.00    +0.000 C 
ATOM     25  C   UNL     1      -1.166  11.624  18.272  0.00  0.00    +0.000 C 
ATOM     26  C   UNL     1      -0.439  12.958  18.363  0.00  0.00    +0.000 C 
ATOM     27  C   UNL     1       1.026  12.712  18.690  0.00  0.00    +0.000 C 
ATOM     28  C   UNL     1       1.177  11.935  19.995  0.00  0.00    +0.000 C 
ENDBRANCH  20  23
ENDBRANCH   4  20
TORSDOF 7
ENDMDL
MODEL 8
REMARK VINA RESULT:      -7.1      1.989      2.819
REMARK  Name = 
REMARK  7 active torsions:
REMARK  status: ('A' for Active; 'I' for Inactive)
REMARK    1  A    between atoms: C_2  and  C_3
REMARK    2  A    between atoms: C_3  and  N_4
REMARK    3  A    between atoms: N_4  and  C_5
REMARK    4  A    between atoms: C_5  and  C_6
REMARK    5  A    between atoms: N_11  and  C_12
REMARK    6  A    between atoms: C_15  and  S_16
REMARK    7  A    between atoms: S_16  and  N_19
REMARK                            x       y       z     vdW  Elec       q    Type
REMARK                         _______ _______ _______ _____ _____    ______ ____
ROOT
ATOM      1  C   UNL     1       2.462   7.035  18.521  0.00  0.00    +0.000 A 
ATOM      2  C   UNL     1       2.134   7.050  19.879  0.00  0.00    +0.000 A 
ATOM      3  C   UNL     1       1.569   8.184  20.470  0.00  0.00    +0.000 A 
ATOM      4  C   UNL     1       1.340   9.330  19.705  0.00  0.00    +0.000 A 
ATOM      5  C   UNL     1       1.614   9.319  18.334  0.00  0.00    +0.000 A 
ATOM      6  C   UNL     1       2.187   8.177  17.751  0.00  0.00    +0.000 A 
ENDROOT
BRANCH   1   9
ATOM      7  O   UNL     1       5.035   5.719  19.142  0.00  0.00    +0.000 OA
ATOM      8  C   UNL     1       4.327   5.402  18.188  0.00  0.00    +0.000 C 
ATOM      9  N   UNL     1       3.081   5.936  17.890  0.00  0.00    +0.000 N 
ATOM     10  H   UNL     1       2.528   5.453  17.191  0.00  0.00    +0.000 HD
BRANCH   8  11
ATOM     11  C   UNL     1       4.766   4.281  17.238  0.00  0.00    +0.000 C 
BRANCH  11  12
ATOM     12  N   UNL     1       4.802   2.979  17.927  0.00  0.00    +0.000 NA
ATOM     13  H   UNL     1       5.086   3.145  18.898  0.00  0.00    +0.000 HD
BRANCH  12  14
ATOM     14  C   UNL     1       3.484   2.339  17.947  0.00  0.00    +0.000 C 
BRANCH  14  15
ATOM     15  C   UNL     1       2.803   2.564  19.264  0.00  0.00    +0.000 A 
ATOM     16  C   UNL     1       3.356   2.584  20.530  0.00  0.00    +0.000 A 
ATOM     17  C   UNL     1       2.379   2.785  21.548  0.00  0.00    +0.000 A 
ATOM     18  C   UNL     1       1.112   2.918  21.026  0.00  0.00    +0.000 A 
ATOM     19  S   UNL     1       1.105   2.804  19.321  0.00  0.00    +0.000 S 
ENDBRANCH  14  15
ENDBRANCH  12  14
ENDBRANCH  11  12
ENDBRANCH   8  11
ENDBRANCH   1   9
BRANCH   4  20
ATOM     20  S   UNL     1       0.604  10.765  20.477  0.00  0.00    +0.000 S 
ATOM     21  O   UNL     1      -0.751  10.871  19.978  0.00  0.00    +0.000 OA
ATOM     22  O   UNL     1       0.870  10.671  21.898  0.00  0.00    +0.000 OA
BRANCH  20  23
ATOM     23  N   UNL     1       1.511  12.083  19.853  0.00  0.00    +0.000 NA
ATOM     24  C   UNL     1       0.944  12.726  18.641  0.00  0.00    +0.000 C 
ATOM     25  C   UNL     1       1.921  13.729  18.036  0.00  0.00    +0.000 C 
ATOM     26  C   UNL     1       2.372  14.748  19.072  0.00  0.00    +0.000 C 
ATOM     27  C   UNL     1       3.014  14.022  20.245  0.00  0.00    +0.000 C 
ATOM     28  C   UNL     1       2.046  13.020  20.870  0.00  0.00    +0.000 C 
ENDBRANCH  20  23
ENDBRANCH   4  20
TORSDOF 7
ENDMDL
MODEL 9
REMARK VINA RESULT:      -7.1      2.353      8.456
REMARK  Name = 
REMARK  7 active torsions:
REMARK  status: ('A' for Active; 'I' for Inactive)
REMARK    1  A    between atoms: C_2  and  C_3
REMARK    2  A    between atoms: C_3  and  N_4
REMARK    3  A    between atoms: N_4  and  C_5
REMARK    4  A    between atoms: C_5  and  C_6
REMARK    5  A    between atoms: N_11  and  C_12
REMARK    6  A    between atoms: C_15  and  S_16
REMARK    7  A    between atoms: S_16  and  N_19
REMARK                            x       y       z     vdW  Elec       q    Type
REMARK                         _______ _______ _______ _____ _____    ______ ____
ROOT
ATOM      1  C   UNL     1       1.880   7.768  19.850  0.00  0.00    +0.000 A 
ATOM      2  C   UNL     1       1.847   6.612  20.634  0.00  0.00    +0.000 A 
ATOM      3  C   UNL     1       2.233   5.375  20.109  0.00  0.00    +0.000 A 
ATOM      4  C   UNL     1       2.642   5.278  18.778  0.00  0.00    +0.000 A 
ATOM      5  C   UNL     1       2.730   6.430  17.989  0.00  0.00    +0.000 A 
ATOM      6  C   UNL     1       2.334   7.667  18.524  0.00  0.00    +0.000 A 
ENDROOT
BRANCH   1   9
ATOM      7  O   UNL     1      -0.443   8.451  21.546  0.00  0.00    +0.000 OA
ATOM      8  C   UNL     1       0.310   9.294  21.059  0.00  0.00    +0.000 C 
ATOM      9  N   UNL     1       1.451   9.028  20.316  0.00  0.00    +0.000 N 
ATOM     10  H   UNL     1       2.078   9.805  20.140  0.00  0.00    +0.000 HD
BRANCH   8  11
ATOM     11  C   UNL     1       0.063  10.787  21.308  0.00  0.00    +0.000 C 
BRANCH  11  12
ATOM     12  N   UNL     1      -1.156  11.248  20.624  0.00  0.00    +0.000 NA
ATOM     13  H   UNL     1      -1.529  12.045  21.149  0.00  0.00    +0.000 HD
BRANCH  12  14
ATOM     14  C   UNL     1      -0.876  11.701  19.259  0.00  0.00    +0.000 C 
BRANCH  14  15
ATOM     15  C   UNL     1      -1.808  11.052  18.281  0.00  0.00    +0.000 A 
ATOM     16  C   UNL     1      -1.563   9.995  17.424  0.00  0.00    +0.000 A 
ATOM     17  C   UNL     1      -2.689   9.683  16.608  0.00  0.00    +0.000 A 
ATOM     18  C   UNL     1      -3.759  10.508  16.871  0.00  0.00    +0.000 A 
ATOM     19  S   UNL     1      -3.406  11.647  18.095  0.00  0.00    +0.000 S 
ENDBRANCH  14  15
ENDBRANCH  12  14
ENDBRANCH  11  12
ENDBRANCH   8  11
ENDBRANCH   1   9
BRANCH   4  20
ATOM     20  S   UNL     1       3.145   3.689  18.130  0.00  0.00    +0.000 S 
ATOM     21  O   UNL     1       3.211   2.773  19.248  0.00  0.00    +0.000 OA
ATOM     22  O   UNL     1       2.305   3.408  16.984  0.00  0.00    +0.000 OA
BRANCH  20  23
ATOM     23  N   UNL     1       4.744   3.959  17.563  0.00  0.00    +0.000 NA
ATOM     24  C   UNL     1       4.856   4.309  16.124  0.00  0.00    +0.000 C 
ATOM     25  C   UNL     1       6.311   4.310  15.665  0.00  0.00    +0.000 C 
ATOM     26  C   UNL     1       7.163   5.211  16.546  0.00  0.00    +0.000 C 
ATOM     27  C   UNL     1       7.062   4.743  17.991  0.00  0.00    +0.000 C 
ATOM     28  C   UNL     1       5.613   4.746  18.471  0.00  0.00    +0.000 C 
ENDBRANCH  20  23
ENDBRANCH   4  20
TORSDOF 7
ENDMDL
