MODEL 1
REMARK VINA RESULT:      -8.1      0.000      0.000
REMARK  Name = 
REMARK  13 active torsions:
REMARK  status: ('A' for Active; 'I' for Inactive)
REMARK    1  A    between atoms: C_1  and  C_2
REMARK    2  A    between atoms: C_2  and  C_3
REMARK    3  A    between atoms: C_3  and  C_4
REMARK    4  A    between atoms: C_3  and  N_6
REMARK    5  A    between atoms: C_3  and  C_27
REMARK    6  A    between atoms: C_4  and  C_5
REMARK    7  A    between atoms: C_7  and  C_9
REMARK    8  A    between atoms: C_10  and  C_11
REMARK    9  A    between atoms: C_16  and  C_17
REMARK   10  A    between atoms: C_24  and  C_25
REMARK   11  A    between atoms: C_24  and  C_26
REMARK   12  A    between atoms: C_30  and  O_31
REMARK   13  A    between atoms: O_31  and  C_32
REMARK                            x       y       z     vdW  Elec       q    Type
REMARK                         _______ _______ _______ _____ _____    ______ ____
ROOT
ATOM      1  C   UNL     1       2.486   6.738  18.951  0.00  0.00    +0.000 A 
ATOM      2  C   UNL     1       2.053   6.092  20.120  0.00  0.00    +0.000 A 
ATOM      3  C   UNL     1       1.220   6.622  21.248  0.00  0.00    +0.000 C 
ATOM      4  N   UNL     1       2.447   4.807  20.101  0.00  0.00    +0.000 NA
ATOM      5  N   UNL     1       3.129   4.607  18.985  0.00  0.00    +0.000 N 
ATOM      6  C   UNL     1       3.168   5.736  18.250  0.00  0.00    +0.000 A 
ATOM      7  N   UNL     1       3.871   5.786  17.000  0.00  0.00    +0.000 N 
ATOM      8  C   UNL     1       4.332   4.514  16.429  0.00  0.00    +0.000 C 
ATOM      9  C   UNL     1       4.848   3.599  17.554  0.00  0.00    +0.000 C 
ATOM     10  C   UNL     1       3.742   3.332  18.610  0.00  0.00    +0.000 C 
ATOM     11  C   UNL     1       2.632   2.409  18.071  0.00  0.00    +0.000 C 
ATOM     12  C   UNL     1       4.396   2.665  19.838  0.00  0.00    +0.000 C 
ATOM     13  H   UNL     1       4.104   6.688  16.558  0.00  0.00    +0.000 HD
ENDROOT
BRANCH   8  14
ATOM     14  C   UNL     1       5.406   4.630  15.355  0.00  0.00    +0.000 A 
ATOM     15  C   UNL     1       6.627   5.296  15.584  0.00  0.00    +0.000 A 
ATOM     16  C   UNL     1       7.635   5.281  14.609  0.00  0.00    +0.000 A 
ATOM     17  C   UNL     1       7.440   4.600  13.404  0.00  0.00    +0.000 A 
ATOM     18  C   UNL     1       6.234   3.940  13.165  0.00  0.00    +0.000 A 
ATOM     19  C   UNL     1       5.223   3.957  14.129  0.00  0.00    +0.000 A 
ENDBRANCH   8  14
BRANCH   1  21
ATOM     20  N   UNL     1       1.260   8.884  19.270  0.00  0.00    +0.000 N 
ATOM     21  C   UNL     1       2.206   8.156  18.598  0.00  0.00    +0.000 C 
ATOM     22  O   UNL     1       2.905   8.675  17.746  0.00  0.00    +0.000 OA
ATOM     23  H   UNL     1       0.783   8.388  20.033  0.00  0.00    +0.000 HD
BRANCH  20  24
ATOM     24  C   UNL     1       0.952  10.325  19.076  0.00  0.00    +0.000 C 
BRANCH  24  25
ATOM     25  C   UNL     1      -0.453  10.504  18.462  0.00  0.00    +0.000 A 
ATOM     26  C   UNL     1      -1.319  11.511  18.937  0.00  0.00    +0.000 A 
ATOM     27  C   UNL     1      -2.593  11.692  18.387  0.00  0.00    +0.000 A 
ATOM     28  C   UNL     1      -3.037  10.862  17.346  0.00  0.00    +0.000 A 
ATOM     29  C   UNL     1      -2.193   9.858  16.868  0.00  0.00    +0.000 A 
ATOM     30  C   UNL     1      -0.920   9.674  17.417  0.00  0.00    +0.000 A 
BRANCH  28  31
ATOM     31  O   UNL     1      -4.265  10.999  16.772  0.00  0.00    +0.000 OA
ATOM     32  C   UNL     1      -5.225  11.916  17.144  0.00  0.00    +0.000 C 
ENDBRANCH  28  31
ENDBRANCH  24  25
BRANCH  24  34
ATOM     33  C   UNL     1       0.647  10.223  21.695  0.00  0.00    +0.000 C 
ATOM     34  C   UNL     1       1.023  11.055  20.465  0.00  0.00    +0.000 C 
ENDBRANCH  24  34
BRANCH  24  35
ATOM     35  C   UNL     1       1.992  11.034  18.127  0.00  0.00    +0.000 C 
ATOM     36  C   UNL     1       2.256  12.515  18.438  0.00  0.00    +0.000 C 
ENDBRANCH  24  35
ENDBRANCH  20  24
ENDBRANCH   1  21
TORSDOF 7
ENDMDL
MODEL 2
REMARK VINA RESULT:      -8.1      0.191      1.186
REMARK  Name = 
REMARK  13 active torsions:
REMARK  status: ('A' for Active; 'I' for Inactive)
REMARK    1  A    between atoms: C_1  and  C_2
REMARK    2  A    between atoms: C_2  and  C_3
REMARK    3  A    between atoms: C_3  and  C_4
REMARK    4  A    between atoms: C_3  and  N_6
REMARK    5  A    between atoms: C_3  and  C_27
REMARK    6  A    between atoms: C_4  and  C_5
REMARK    7  A    between atoms: C_7  and  C_9
REMARK    8  A    between atoms: C_10  and  C_11
REMARK    9  A    between atoms: C_16  and  C_17
REMARK   10  A    between atoms: C_24  and  C_25
REMARK   11  A    between atoms: C_24  and  C_26
REMARK   12  A    between atoms: C_30  and  O_31
REMARK   13  A    between atoms: O_31  and  C_32
REMARK                            x       y       z     vdW  Elec       q    Type
REMARK                         _______ _______ _______ _____ _____    ______ ____
ROOT
ATOM      1  C   UNL     1       2.446   6.739  19.019  0.00  0.00    +0.000 A 
ATOM      2  C   UNL     1       1.964   6.142  20.194  0.00  0.00    +0.000 A 
ATOM      3  C   UNL     1       1.117   6.728  21.283  0.00  0.00    +0.000 C 
ATOM      4  N   UNL     1       2.321   4.846  20.224  0.00  0.00    +0.000 NA
ATOM      5  N   UNL     1       3.027   4.593  19.133  0.00  0.00    +0.000 N 
ATOM      6  C   UNL     1       3.118   5.698  18.367  0.00  0.00    +0.000 A 
ATOM      7  N   UNL     1       3.855   5.690  17.136  0.00  0.00    +0.000 N 
ATOM      8  C   UNL     1       4.294   4.390  16.615  0.00  0.00    +0.000 C 
ATOM      9  C   UNL     1       4.753   3.494  17.781  0.00  0.00    +0.000 C 
ATOM     10  C   UNL     1       3.612   3.291  18.813  0.00  0.00    +0.000 C 
ATOM     11  C   UNL     1       2.491   2.383  18.271  0.00  0.00    +0.000 C 
ATOM     12  C   UNL     1       4.213   2.643  20.077  0.00  0.00    +0.000 C 
ATOM     13  H   UNL     1       4.126   6.572  16.675  0.00  0.00    +0.000 HD
ENDROOT
BRANCH   8  14
ATOM     14  C   UNL     1       5.399   4.442  15.568  0.00  0.00    +0.000 A 
ATOM     15  C   UNL     1       5.258   3.846  14.299  0.00  0.00    +0.000 A 
ATOM     16  C   UNL     1       6.251   4.015  13.323  0.00  0.00    +0.000 A 
ATOM     17  C   UNL     1       7.387   4.782  13.599  0.00  0.00    +0.000 A 
ATOM     18  C   UNL     1       7.539   5.373  14.853  0.00  0.00    +0.000 A 
ATOM     19  C   UNL     1       6.557   5.204  15.832  0.00  0.00    +0.000 A 
ENDBRANCH   8  14
BRANCH   1  21
ATOM     20  N   UNL     1       1.256   8.920  19.222  0.00  0.00    +0.000 N 
ATOM     21  C   UNL     1       2.218   8.153  18.617  0.00  0.00    +0.000 C 
ATOM     22  O   UNL     1       2.969   8.635  17.789  0.00  0.00    +0.000 OA
ATOM     23  H   UNL     1       0.731   8.454  19.973  0.00  0.00    +0.000 HD
BRANCH  20  24
ATOM     24  C   UNL     1       0.992  10.361  18.978  0.00  0.00    +0.000 C 
BRANCH  24  25
ATOM     25  C   UNL     1      -0.410  10.561  18.364  0.00  0.00    +0.000 A 
ATOM     26  C   UNL     1      -0.910   9.648  17.411  0.00  0.00    +0.000 A 
ATOM     27  C   UNL     1      -2.182   9.809  16.849  0.00  0.00    +0.000 A 
ATOM     28  C   UNL     1      -2.987  10.896  17.223  0.00  0.00    +0.000 A 
ATOM     29  C   UNL     1      -2.504  11.810  18.161  0.00  0.00    +0.000 A 
ATOM     30  C   UNL     1      -1.233  11.653  18.723  0.00  0.00    +0.000 A 
BRANCH  28  31
ATOM     31  O   UNL     1      -4.232  11.096  16.711  0.00  0.00    +0.000 OA
ATOM     32  C   UNL     1      -5.204  11.906  17.262  0.00  0.00    +0.000 C 
ENDBRANCH  28  31
ENDBRANCH  24  25
BRANCH  24  34
ATOM     33  C   UNL     1       0.647  10.383  21.593  0.00  0.00    +0.000 C 
ATOM     34  C   UNL     1       1.095  11.139  20.338  0.00  0.00    +0.000 C 
ENDBRANCH  24  34
BRANCH  24  35
ATOM     35  C   UNL     1       2.048  11.002  17.998  0.00  0.00    +0.000 C 
ATOM     36  C   UNL     1       2.402  12.469  18.289  0.00  0.00    +0.000 C 
ENDBRANCH  24  35
ENDBRANCH  20  24
ENDBRANCH   1  21
TORSDOF 7
ENDMDL
MODEL 3
REMARK VINA RESULT:      -7.9      3.791     10.899
REMARK  Name = 
REMARK  13 active torsions:
REMARK  status: ('A' for Active; 'I' for Inactive)
REMARK    1  A    between atoms: C_1  and  C_2
REMARK    2  A    between atoms: C_2  and  C_3
REMARK    3  A    between atoms: C_3  and  C_4
REMARK    4  A    between atoms: C_3  and  N_6
REMARK    5  A    between atoms: C_3  and  C_27
REMARK    6  A    between atoms: C_4  and  C_5
REMARK    7  A    between atoms: C_7  and  C_9
REMARK    8  A    between atoms: C_10  and  C_11
REMARK    9  A    between atoms: C_16  and  C_17
REMARK   10  A    between atoms: C_24  and  C_25
REMARK   11  A    between atoms: C_24  and  C_26
REMARK   12  A    between atoms: C_30  and  O_31
REMARK   13  A    between atoms: O_31  and  C_32
REMARK                            x       y       z     vdW  Elec       q    Type
REMARK                         _______ _______ _______ _____ _____    ______ ____
ROOT
ATOM      1  C   UNL     1      -2.811  11.556  18.466  0.00  0.00    +0.000 A 
ATOM      2  C   UNL     1      -3.287  11.073  17.237  0.00  0.00    +0.000 A 
ATOM      3  C   UNL     1      -2.532  10.461  16.096  0.00  0.00    +0.000 C 
ATOM      4  N   UNL     1      -4.627  11.167  17.202  0.00  0.00    +0.000 NA
ATOM      5  N   UNL     1      -5.028  11.707  18.342  0.00  0.00    +0.000 N 
ATOM      6  C   UNL     1      -3.972  11.946  19.144  0.00  0.00    +0.000 A 
ATOM      7  N   UNL     1      -4.140  12.553  20.434  0.00  0.00    +0.000 N 
ATOM      8  C   UNL     1      -5.507  12.676  20.953  0.00  0.00    +0.000 C 
ATOM      9  C   UNL     1      -6.464  13.052  19.807  0.00  0.00    +0.000 C 
ATOM     10  C   UNL     1      -6.425  11.991  18.675  0.00  0.00    +0.000 C 
ATOM     11  C   UNL     1      -7.095  10.668  19.092  0.00  0.00    +0.000 C 
ATOM     12  C   UNL     1      -7.166  12.563  17.449  0.00  0.00    +0.000 C 
ATOM     13  H   UNL     1      -3.335  12.950  20.941  0.00  0.00    +0.000 HD
ENDROOT
BRANCH   8  14
ATOM     14  C   UNL     1      -5.688  13.670  22.093  0.00  0.00    +0.000 A 
ATOM     15  C   UNL     1      -4.684  14.596  22.446  0.00  0.00    +0.000 A 
ATOM     16  C   UNL     1      -4.934  15.570  23.424  0.00  0.00    +0.000 A 
ATOM     17  C   UNL     1      -6.180  15.635  24.053  0.00  0.00    +0.000 A 
ATOM     18  C   UNL     1      -7.178  14.722  23.715  0.00  0.00    +0.000 A 
ATOM     19  C   UNL     1      -6.936  13.745  22.746  0.00  0.00    +0.000 A 
ENDBRANCH   8  14
BRANCH   1  21
ATOM     20  N   UNL     1      -0.944  10.837  19.953  0.00  0.00    +0.000 N 
ATOM     21  C   UNL     1      -1.383  11.578  18.887  0.00  0.00    +0.000 C 
ATOM     22  O   UNL     1      -0.601  12.211  18.201  0.00  0.00    +0.000 OA
ATOM     23  H   UNL     1      -1.660  10.264  20.416  0.00  0.00    +0.000 HD
BRANCH  20  24
ATOM     24  C   UNL     1       0.462  10.701  20.415  0.00  0.00    +0.000 C 
BRANCH  24  25
ATOM     25  C   UNL     1       1.149   9.506  19.721  0.00  0.00    +0.000 A 
ATOM     26  C   UNL     1       1.458   8.337  20.450  0.00  0.00    +0.000 A 
ATOM     27  C   UNL     1       2.075   7.241  19.836  0.00  0.00    +0.000 A 
ATOM     28  C   UNL     1       2.405   7.288  18.472  0.00  0.00    +0.000 A 
ATOM     29  C   UNL     1       2.109   8.440  17.739  0.00  0.00    +0.000 A 
ATOM     30  C   UNL     1       1.495   9.537  18.351  0.00  0.00    +0.000 A 
BRANCH  28  31
ATOM     31  O   UNL     1       3.000   6.249  17.826  0.00  0.00    +0.000 OA
ATOM     32  C   UNL     1       3.116   4.963  18.312  0.00  0.00    +0.000 C 
ENDBRANCH  28  31
ENDBRANCH  24  25
BRANCH  24  34
ATOM     33  C   UNL     1       1.092  13.171  21.097  0.00  0.00    +0.000 C 
ATOM     34  C   UNL     1       1.239  12.027  20.088  0.00  0.00    +0.000 C 
ENDBRANCH  24  34
BRANCH  24  35
ATOM     35  C   UNL     1       0.558  10.481  21.972  0.00  0.00    +0.000 C 
ATOM     36  C   UNL     1      -0.790  10.379  22.702  0.00  0.00    +0.000 C 
ENDBRANCH  24  35
ENDBRANCH  20  24
ENDBRANCH   1  21
TORSDOF 7
ENDMDL
MODEL 4
REMARK VINA RESULT:      -7.8      3.782     10.936
REMARK  Name = 
REMARK  13 active torsions:
REMARK  status: ('A' for Active; 'I' for Inactive)
REMARK    1  A    between atoms: C_1  and  C_2
REMARK    2  A    between atoms: C_2  and  C_3
REMARK    3  A    between atoms: C_3  and  C_4
REMARK    4  A    between atoms: C_3  and  N_6
REMARK    5  A    between atoms: C_3  and  C_27
REMARK    6  A    between atoms: C_4  and  C_5
REMARK    7  A    between atoms: C_7  and  C_9
REMARK    8  A    between atoms: C_10  and  C_11
REMARK    9  A    between atoms: C_16  and  C_17
REMARK   10  A    between atoms: C_24  and  C_25
REMARK   11  A    between atoms: C_24  and  C_26
REMARK   12  A    between atoms: C_30  and  O_31
REMARK   13  A    between atoms: O_31  and  C_32
REMARK                            x       y       z     vdW  Elec       q    Type
REMARK                         _______ _______ _______ _____ _____    ______ ____
ROOT
ATOM      1  C   UNL     1      -2.793  11.481  18.562  0.00  0.00    +0.000 A 
ATOM      2  C   UNL     1      -3.291  10.908  17.380  0.00  0.00    +0.000 A 
ATOM      3  C   UNL     1      -2.562  10.167  16.300  0.00  0.00    +0.000 C 
ATOM      4  N   UNL     1      -4.626  11.051  17.335  0.00  0.00    +0.000 NA
ATOM      5  N   UNL     1      -5.003  11.706  18.421  0.00  0.00    +0.000 N 
ATOM      6  C   UNL     1      -3.937  11.975  19.200  0.00  0.00    +0.000 A 
ATOM      7  N   UNL     1      -4.078  12.701  20.430  0.00  0.00    +0.000 N 
ATOM      8  C   UNL     1      -5.439  12.924  20.935  0.00  0.00    +0.000 C 
ATOM      9  C   UNL     1      -6.383  13.232  19.758  0.00  0.00    +0.000 C 
ATOM     10  C   UNL     1      -6.387  12.073  18.725  0.00  0.00    +0.000 C 
ATOM     11  C   UNL     1      -7.107  10.819  19.259  0.00  0.00    +0.000 C 
ATOM     12  C   UNL     1      -7.109  12.561  17.453  0.00  0.00    +0.000 C 
ATOM     13  H   UNL     1      -3.258  13.111  20.901  0.00  0.00    +0.000 HD
ENDROOT
BRANCH   8  14
ATOM     14  C   UNL     1      -5.578  14.023  21.980  0.00  0.00    +0.000 A 
ATOM     15  C   UNL     1      -6.811  14.654  22.245  0.00  0.00    +0.000 A 
ATOM     16  C   UNL     1      -6.921  15.578  23.294  0.00  0.00    +0.000 A 
ATOM     17  C   UNL     1      -5.812  15.878  24.089  0.00  0.00    +0.000 A 
ATOM     18  C   UNL     1      -4.586  15.264  23.833  0.00  0.00    +0.000 A 
ATOM     19  C   UNL     1      -4.466  14.346  22.786  0.00  0.00    +0.000 A 
ENDBRANCH   8  14
BRANCH   1  21
ATOM     20  N   UNL     1      -0.937  10.753  20.057  0.00  0.00    +0.000 N 
ATOM     21  C   UNL     1      -1.365  11.484  18.980  0.00  0.00    +0.000 C 
ATOM     22  O   UNL     1      -0.573  12.094  18.285  0.00  0.00    +0.000 OA
ATOM     23  H   UNL     1      -1.663  10.199  20.529  0.00  0.00    +0.000 HD
BRANCH  20  24
ATOM     24  C   UNL     1       0.467  10.600  20.520  0.00  0.00    +0.000 C 
BRANCH  24  25
ATOM     25  C   UNL     1       1.144   9.404  19.817  0.00  0.00    +0.000 A 
ATOM     26  C   UNL     1       1.465   9.469  18.444  0.00  0.00    +0.000 A 
ATOM     27  C   UNL     1       2.085   8.397  17.792  0.00  0.00    +0.000 A 
ATOM     28  C   UNL     1       2.397   7.225  18.499  0.00  0.00    +0.000 A 
ATOM     29  C   UNL     1       2.082   7.145  19.857  0.00  0.00    +0.000 A 
ATOM     30  C   UNL     1       1.460   8.214  20.511  0.00  0.00    +0.000 A 
BRANCH  28  31
ATOM     31  O   UNL     1       3.005   6.156  17.915  0.00  0.00    +0.000 OA
ATOM     32  C   UNL     1       4.100   5.485  18.416  0.00  0.00    +0.000 C 
ENDBRANCH  28  31
ENDBRANCH  24  25
BRANCH  24  34
ATOM     33  C   UNL     1       1.027  13.098  21.159  0.00  0.00    +0.000 C 
ATOM     34  C   UNL     1       1.257  11.921  20.205  0.00  0.00    +0.000 C 
ENDBRANCH  24  34
BRANCH  24  35
ATOM     35  C   UNL     1       0.559  10.366  22.076  0.00  0.00    +0.000 C 
ATOM     36  C   UNL     1      -0.790  10.213  22.794  0.00  0.00    +0.000 C 
ENDBRANCH  24  35
ENDBRANCH  20  24
ENDBRANCH   1  21
TORSDOF 7
ENDMDL
MODEL 5
REMARK VINA RESULT:      -7.7      4.607     10.766
REMARK  Name = 
REMARK  13 active torsions:
REMARK  status: ('A' for Active; 'I' for Inactive)
REMARK    1  A    between atoms: C_1  and  C_2
REMARK    2  A    between atoms: C_2  and  C_3
REMARK    3  A    between atoms: C_3  and  C_4
REMARK    4  A    between atoms: C_3  and  N_6
REMARK    5  A    between atoms: C_3  and  C_27
REMARK    6  A    between atoms: C_4  and  C_5
REMARK    7  A    between atoms: C_7  and  C_9
REMARK    8  A    between atoms: C_10  and  C_11
REMARK    9  A    between atoms: C_16  and  C_17
REMARK   10  A    between atoms: C_24  and  C_25
REMARK   11  A    between atoms: C_24  and  C_26
REMARK   12  A    between atoms: C_30  and  O_31
REMARK   13  A    between atoms: O_31  and  C_32
REMARK                            x       y       z     vdW  Elec       q    Type
REMARK                         _______ _______ _______ _____ _____    ______ ____
ROOT
ATOM      1  C   UNL     1      -3.136  11.569  18.359  0.00  0.00    +0.000 A 
ATOM      2  C   UNL     1      -3.955  11.132  17.306  0.00  0.00    +0.000 A 
ATOM      3  C   UNL     1      -3.574  10.491  16.006  0.00  0.00    +0.000 C 
ATOM      4  N   UNL     1      -5.247  11.306  17.634  0.00  0.00    +0.000 NA
ATOM      5  N   UNL     1      -5.291  11.854  18.837  0.00  0.00    +0.000 N 
ATOM      6  C   UNL     1      -4.045  12.020  19.323  0.00  0.00    +0.000 A 
ATOM      7  N   UNL     1      -3.822  12.618  20.609  0.00  0.00    +0.000 N 
ATOM      8  C   UNL     1      -4.988  12.816  21.477  0.00  0.00    +0.000 C 
ATOM      9  C   UNL     1      -6.194  13.263  20.631  0.00  0.00    +0.000 C 
ATOM     10  C   UNL     1      -6.526  12.217  19.534  0.00  0.00    +0.000 C 
ATOM     11  C   UNL     1      -7.139  10.931  20.121  0.00  0.00    +0.000 C 
ATOM     12  C   UNL     1      -7.535  12.848  18.552  0.00  0.00    +0.000 C 
ATOM     13  H   UNL     1      -2.887  12.960  20.879  0.00  0.00    +0.000 HD
ENDROOT
BRANCH   8  14
ATOM     14  C   UNL     1      -4.793  13.805  22.620  0.00  0.00    +0.000 A 
ATOM     15  C   UNL     1      -3.729  13.689  23.538  0.00  0.00    +0.000 A 
ATOM     16  C   UNL     1      -3.518  14.684  24.505  0.00  0.00    +0.000 A 
ATOM     17  C   UNL     1      -4.357  15.800  24.563  0.00  0.00    +0.000 A 
ATOM     18  C   UNL     1      -5.415  15.922  23.662  0.00  0.00    +0.000 A 
ATOM     19  C   UNL     1      -5.636  14.933  22.701  0.00  0.00    +0.000 A 
ENDBRANCH   8  14
BRANCH   1  21
ATOM     20  N   UNL     1      -0.989  10.590  19.163  0.00  0.00    +0.000 N 
ATOM     21  C   UNL     1      -1.650  11.500  18.378  0.00  0.00    +0.000 C 
ATOM     22  O   UNL     1      -1.039  12.222  17.611  0.00  0.00    +0.000 OA
ATOM     23  H   UNL     1      -1.592   9.962  19.709  0.00  0.00    +0.000 HD
BRANCH  20  24
ATOM     24  C   UNL     1       0.478  10.359  19.203  0.00  0.00    +0.000 C 
BRANCH  24  25
ATOM     25  C   UNL     1       1.234  11.693  19.378  0.00  0.00    +0.000 A 
ATOM     26  C   UNL     1       1.061  12.466  20.546  0.00  0.00    +0.000 A 
ATOM     27  C   UNL     1       1.744  13.674  20.725  0.00  0.00    +0.000 A 
ATOM     28  C   UNL     1       2.617  14.146  19.732  0.00  0.00    +0.000 A 
ATOM     29  C   UNL     1       2.795  13.395  18.568  0.00  0.00    +0.000 A 
ATOM     30  C   UNL     1       2.112  12.188  18.387  0.00  0.00    +0.000 A 
BRANCH  28  31
ATOM     31  O   UNL     1       3.309  15.312  19.858  0.00  0.00    +0.000 OA
ATOM     32  C   UNL     1       3.087  16.458  19.124  0.00  0.00    +0.000 C 
ENDBRANCH  28  31
ENDBRANCH  24  25
BRANCH  24  34
ATOM     33  C   UNL     1      -0.343   9.055  21.344  0.00  0.00    +0.000 C 
ATOM     34  C   UNL     1       0.812   9.396  20.398  0.00  0.00    +0.000 C 
ENDBRANCH  24  34
BRANCH  24  35
ATOM     35  C   UNL     1       1.008   9.668  17.890  0.00  0.00    +0.000 C 
ATOM     36  C   UNL     1       2.024   8.537  18.111  0.00  0.00    +0.000 C 
ENDBRANCH  24  35
ENDBRANCH  20  24
ENDBRANCH   1  21
TORSDOF 7
ENDMDL
MODEL 6
REMARK VINA RESULT:      -7.6      4.702     10.517
REMARK  Name = 
REMARK  13 active torsions:
REMARK  status: ('A' for Active; 'I' for Inactive)
REMARK    1  A    between atoms: C_1  and  C_2
REMARK    2  A    between atoms: C_2  and  C_3
REMARK    3  A    between atoms: C_3  and  C_4
REMARK    4  A    between atoms: C_3  and  N_6
REMARK    5  A    between atoms: C_3  and  C_27
REMARK    6  A    between atoms: C_4  and  C_5
REMARK    7  A    between atoms: C_7  and  C_9
REMARK    8  A    between atoms: C_10  and  C_11
REMARK    9  A    between atoms: C_16  and  C_17
REMARK   10  A    between atoms: C_24  and  C_25
REMARK   11  A    between atoms: C_24  and  C_26
REMARK   12  A    between atoms: C_30  and  O_31
REMARK   13  A    between atoms: O_31  and  C_32
REMARK                            x       y       z     vdW  Elec       q    Type
REMARK                         _______ _______ _______ _____ _____    ______ ____
ROOT
ATOM      1  C   UNL     1      -2.745  11.069  17.464  0.00  0.00    +0.000 A 
ATOM      2  C   UNL     1      -3.406  10.959  16.230  0.00  0.00    +0.000 A 
ATOM      3  C   UNL     1      -2.931  10.349  14.946  0.00  0.00    +0.000 C 
ATOM      4  N   UNL     1      -4.653  11.449  16.339  0.00  0.00    +0.000 NA
ATOM      5  N   UNL     1      -4.812  11.886  17.577  0.00  0.00    +0.000 N 
ATOM      6  C   UNL     1      -3.696  11.667  18.299  0.00  0.00    +0.000 A 
ATOM      7  N   UNL     1      -3.607  12.073  19.673  0.00  0.00    +0.000 N 
ATOM      8  C   UNL     1      -4.844  12.507  20.334  0.00  0.00    +0.000 C 
ATOM      9  C   UNL     1      -5.694  13.333  19.351  0.00  0.00    +0.000 C 
ATOM     10  C   UNL     1      -6.036  12.511  18.080  0.00  0.00    +0.000 C 
ATOM     11  C   UNL     1      -7.059  11.394  18.366  0.00  0.00    +0.000 C 
ATOM     12  C   UNL     1      -6.626  13.471  17.027  0.00  0.00    +0.000 C 
ATOM     13  H   UNL     1      -2.696  12.126  20.152  0.00  0.00    +0.000 HD
ENDROOT
BRANCH   8  14
ATOM     14  C   UNL     1      -4.655  13.307  21.616  0.00  0.00    +0.000 A 
ATOM     15  C   UNL     1      -5.433  14.446  21.911  0.00  0.00    +0.000 A 
ATOM     16  C   UNL     1      -5.307  15.086  23.153  0.00  0.00    +0.000 A 
ATOM     17  C   UNL     1      -4.414  14.598  24.111  0.00  0.00    +0.000 A 
ATOM     18  C   UNL     1      -3.636  13.475  23.828  0.00  0.00    +0.000 A 
ATOM     19  C   UNL     1      -3.751  12.836  22.591  0.00  0.00    +0.000 A 
ENDBRANCH   8  14
BRANCH   1  21
ATOM     20  N   UNL     1      -0.485  11.356  18.475  0.00  0.00    +0.000 N 
ATOM     21  C   UNL     1      -1.362  10.598  17.743  0.00  0.00    +0.000 C 
ATOM     22  O   UNL     1      -1.059   9.479  17.371  0.00  0.00    +0.000 OA
ATOM     23  H   UNL     1      -0.859  12.247  18.823  0.00  0.00    +0.000 HD
BRANCH  20  24
ATOM     24  C   UNL     1       0.884  10.962  18.898  0.00  0.00    +0.000 C 
BRANCH  24  25
ATOM     25  C   UNL     1       1.762  12.210  19.130  0.00  0.00    +0.000 A 
ATOM     26  C   UNL     1       1.884  12.770  20.419  0.00  0.00    +0.000 A 
ATOM     27  C   UNL     1       2.681  13.897  20.649  0.00  0.00    +0.000 A 
ATOM     28  C   UNL     1       3.376  14.499  19.588  0.00  0.00    +0.000 A 
ATOM     29  C   UNL     1       3.262  13.959  18.306  0.00  0.00    +0.000 A 
ATOM     30  C   UNL     1       2.464  12.833  18.073  0.00  0.00    +0.000 A 
BRANCH  28  31
ATOM     31  O   UNL     1       4.169  15.593  19.758  0.00  0.00    +0.000 OA
ATOM     32  C   UNL     1       4.789  16.297  18.747  0.00  0.00    +0.000 C 
ENDBRANCH  28  31
ENDBRANCH  24  25
BRANCH  24  34
ATOM     33  C   UNL     1      -0.496  10.281  21.041  0.00  0.00    +0.000 C 
ATOM     34  C   UNL     1       0.789  10.123  20.223  0.00  0.00    +0.000 C 
ENDBRANCH  24  34
BRANCH  24  35
ATOM     35  C   UNL     1       1.600  10.055  17.827  0.00  0.00    +0.000 C 
ATOM     36  C   UNL     1       2.093   8.695  18.346  0.00  0.00    +0.000 C 
ENDBRANCH  24  35
ENDBRANCH  20  24
ENDBRANCH   1  21
TORSDOF 7
ENDMDL
MODEL 7
REMARK VINA RESULT:      -7.6      4.318     10.459
REMARK  Name = 
REMARK  13 active torsions:
REMARK  status: ('A' for Active; 'I' for Inactive)
REMARK    1  A    between atoms: C_1  and  C_2
REMARK    2  A    between atoms: C_2  and  C_3
REMARK    3  A    between atoms: C_3  and  C_4
REMARK    4  A    between atoms: C_3  and  N_6
REMARK    5  A    between atoms: C_3  and  C_27
REMARK    6  A    between atoms: C_4  and  C_5
REMARK    7  A    between atoms: C_7  and  C_9
REMARK    8  A    between atoms: C_10  and  C_11
REMARK    9  A    between atoms: C_16  and  C_17
REMARK   10  A    between atoms: C_24  and  C_25
REMARK   11  A    between atoms: C_24  and  C_26
REMARK   12  A    between atoms: C_30  and  O_31
REMARK   13  A    between atoms: O_31  and  C_32
REMARK                            x       y       z     vdW  Elec       q    Type
REMARK                         _______ _______ _______ _____ _____    ______ ____
ROOT
ATOM      1  C   UNL     1      -2.637  11.203  17.742  0.00  0.00    +0.000 A 
ATOM      2  C   UNL     1      -3.270  10.963  16.512  0.00  0.00    +0.000 A 
ATOM      3  C   UNL     1      -2.717  10.354  15.259  0.00  0.00    +0.000 C 
ATOM      4  N   UNL     1      -4.565  11.311  16.593  0.00  0.00    +0.000 NA
ATOM      5  N   UNL     1      -4.785  11.783  17.810  0.00  0.00    +0.000 N 
ATOM      6  C   UNL     1      -3.657  11.725  18.545  0.00  0.00    +0.000 A 
ATOM      7  N   UNL     1      -3.627  12.201  19.899  0.00  0.00    +0.000 N 
ATOM      8  C   UNL     1      -4.911  12.520  20.536  0.00  0.00    +0.000 C 
ATOM      9  C   UNL     1      -5.842  13.198  19.513  0.00  0.00    +0.000 C 
ATOM     10  C   UNL     1      -6.077  12.285  18.279  0.00  0.00    +0.000 C 
ATOM     11  C   UNL     1      -6.968  11.073  18.613  0.00  0.00    +0.000 C 
ATOM     12  C   UNL     1      -6.762  13.123  17.181  0.00  0.00    +0.000 C 
ATOM     13  H   UNL     1      -2.732  12.379  20.379  0.00  0.00    +0.000 HD
ENDROOT
BRANCH   8  14
ATOM     14  C   UNL     1      -4.827  13.393  21.781  0.00  0.00    +0.000 A 
ATOM     15  C   UNL     1      -4.183  12.960  22.958  0.00  0.00    +0.000 A 
ATOM     16  C   UNL     1      -4.026  13.836  24.042  0.00  0.00    +0.000 A 
ATOM     17  C   UNL     1      -4.501  15.148  23.962  0.00  0.00    +0.000 A 
ATOM     18  C   UNL     1      -5.143  15.587  22.804  0.00  0.00    +0.000 A 
ATOM     19  C   UNL     1      -5.309  14.718  21.722  0.00  0.00    +0.000 A 
ENDBRANCH   8  14
BRANCH   1  21
ATOM     20  N   UNL     1      -0.486  11.697  18.902  0.00  0.00    +0.000 N 
ATOM     21  C   UNL     1      -1.211  10.907  18.048  0.00  0.00    +0.000 C 
ATOM     22  O   UNL     1      -0.731   9.891  17.578  0.00  0.00    +0.000 OA
ATOM     23  H   UNL     1      -1.003  12.481  19.320  0.00  0.00    +0.000 HD
BRANCH  20  24
ATOM     24  C   UNL     1       0.907  11.458  19.358  0.00  0.00    +0.000 C 
BRANCH  24  25
ATOM     25  C   UNL     1       1.097   9.986  19.782  0.00  0.00    +0.000 A 
ATOM     26  C   UNL     1       0.518   9.505  20.976  0.00  0.00    +0.000 A 
ATOM     27  C   UNL     1       0.673   8.172  21.373  0.00  0.00    +0.000 A 
ATOM     28  C   UNL     1       1.420   7.283  20.584  0.00  0.00    +0.000 A 
ATOM     29  C   UNL     1       2.001   7.745  19.402  0.00  0.00    +0.000 A 
ATOM     30  C   UNL     1       1.849   9.077  19.004  0.00  0.00    +0.000 A 
BRANCH  28  31
ATOM     31  O   UNL     1       1.597   5.976  20.921  0.00  0.00    +0.000 OA
ATOM     32  C   UNL     1       1.931   4.962  20.048  0.00  0.00    +0.000 C 
ENDBRANCH  28  31
ENDBRANCH  24  25
BRANCH  24  34
ATOM     33  C   UNL     1       2.659  13.131  18.314  0.00  0.00    +0.000 C 
ATOM     34  C   UNL     1       1.896  11.808  18.190  0.00  0.00    +0.000 C 
ENDBRANCH  24  34
BRANCH  24  35
ATOM     35  C   UNL     1       1.297  12.371  20.583  0.00  0.00    +0.000 C 
ATOM     36  C   UNL     1       0.138  13.168  21.199  0.00  0.00    +0.000 C 
ENDBRANCH  24  35
ENDBRANCH  20  24
ENDBRANCH   1  21
TORSDOF 7
ENDMDL
MODEL 8
REMARK VINA RESULT:      -7.5      4.293     10.506
REMARK  Name = 
REMARK  13 active torsions:
REMARK  status: ('A' for Active; 'I' for Inactive)
REMARK    1  A    between atoms: C_1  and  C_2
REMARK    2  A    between atoms: C_2  and  C_3
REMARK    3  A    between atoms: C_3  and  C_4
REMARK    4  A    between atoms: C_3  and  N_6
REMARK    5  A    between atoms: C_3  and  C_27
REMARK    6  A    between atoms: C_4  and  C_5
REMARK    7  A    between atoms: C_7  and  C_9
REMARK    8  A    between atoms: C_10  and  C_11
REMARK    9  A    between atoms: C_16  and  C_17
REMARK   10  A    between atoms: C_24  and  C_25
REMARK   11  A    between atoms: C_24  and  C_26
REMARK   12  A    between atoms: C_30  and  O_31
REMARK   13  A    between atoms: O_31  and  C_32
REMARK                            x       y       z     vdW  Elec       q    Type
REMARK                         _______ _______ _______ _____ _____    ______ ____
ROOT
ATOM      1  C   UNL     1      -2.639  11.216  17.692  0.00  0.00    +0.000 A 
ATOM      2  C   UNL     1      -3.285  10.956  16.473  0.00  0.00    +0.000 A 
ATOM      3  C   UNL     1      -2.745  10.328  15.224  0.00  0.00    +0.000 C 
ATOM      4  N   UNL     1      -4.580  11.304  16.563  0.00  0.00    +0.000 NA
ATOM      5  N   UNL     1      -4.787  11.794  17.774  0.00  0.00    +0.000 N 
ATOM      6  C   UNL     1      -3.651  11.749  18.498  0.00  0.00    +0.000 A 
ATOM      7  N   UNL     1      -3.607  12.246  19.844  0.00  0.00    +0.000 N 
ATOM      8  C   UNL     1      -4.884  12.573  20.489  0.00  0.00    +0.000 C 
ATOM      9  C   UNL     1      -5.826  13.234  19.466  0.00  0.00    +0.000 C 
ATOM     10  C   UNL     1      -6.074  12.303  18.250  0.00  0.00    +0.000 C 
ATOM     11  C   UNL     1      -6.960  11.095  18.612  0.00  0.00    +0.000 C 
ATOM     12  C   UNL     1      -6.772  13.123  17.146  0.00  0.00    +0.000 C 
ATOM     13  H   UNL     1      -2.707  12.432  20.311  0.00  0.00    +0.000 HD
ENDROOT
BRANCH   8  14
ATOM     14  C   UNL     1      -4.787  13.466  21.720  0.00  0.00    +0.000 A 
ATOM     15  C   UNL     1      -5.545  14.648  21.850  0.00  0.00    +0.000 A 
ATOM     16  C   UNL     1      -5.513  15.381  23.046  0.00  0.00    +0.000 A 
ATOM     17  C   UNL     1      -4.735  14.942  24.120  0.00  0.00    +0.000 A 
ATOM     18  C   UNL     1      -3.978  13.776  24.001  0.00  0.00    +0.000 A 
ATOM     19  C   UNL     1      -3.999  13.045  22.811  0.00  0.00    +0.000 A 
ENDBRANCH   8  14
BRANCH   1  21
ATOM     20  N   UNL     1      -0.459  11.764  18.768  0.00  0.00    +0.000 N 
ATOM     21  C   UNL     1      -1.210  10.926  17.987  0.00  0.00    +0.000 C 
ATOM     22  O   UNL     1      -0.750   9.874  17.579  0.00  0.00    +0.000 OA
ATOM     23  H   UNL     1      -0.958  12.582  19.141  0.00  0.00    +0.000 HD
BRANCH  20  24
ATOM     24  C   UNL     1       0.943  11.543  19.210  0.00  0.00    +0.000 C 
BRANCH  24  25
ATOM     25  C   UNL     1       1.154  10.073  19.632  0.00  0.00    +0.000 A 
ATOM     26  C   UNL     1       1.886   9.191  18.809  0.00  0.00    +0.000 A 
ATOM     27  C   UNL     1       2.094   7.857  19.179  0.00  0.00    +0.000 A 
ATOM     28  C   UNL     1       1.567   7.368  20.385  0.00  0.00    +0.000 A 
ATOM     29  C   UNL     1       0.836   8.228  21.207  0.00  0.00    +0.000 A 
ATOM     30  C   UNL     1       0.626   9.561  20.839  0.00  0.00    +0.000 A 
BRANCH  28  31
ATOM     31  O   UNL     1       1.744   6.082  20.794  0.00  0.00    +0.000 OA
ATOM     32  C   UNL     1       1.926   4.995  19.964  0.00  0.00    +0.000 C 
ENDBRANCH  28  31
ENDBRANCH  24  25
BRANCH  24  34
ATOM     33  C   UNL     1       2.864  13.084  18.265  0.00  0.00    +0.000 C 
ATOM     34  C   UNL     1       1.915  11.904  18.030  0.00  0.00    +0.000 C 
ENDBRANCH  24  34
BRANCH  24  35
ATOM     35  C   UNL     1       1.335  12.461  20.430  0.00  0.00    +0.000 C 
ATOM     36  C   UNL     1       0.172  13.241  21.060  0.00  0.00    +0.000 C 
ENDBRANCH  24  35
ENDBRANCH  20  24
ENDBRANCH   1  21
TORSDOF 7
ENDMDL
MODEL 9
REMARK VINA RESULT:      -7.5      4.762     10.630
REMARK  Name = 
REMARK  13 active torsions:
REMARK  status: ('A' for Active; 'I' for Inactive)
REMARK    1  A    between atoms: C_1  and  C_2
REMARK    2  A    between atoms: C_2  and  C_3
REMARK    3  A    between atoms: C_3  and  C_4
REMARK    4  A    between atoms: C_3  and  N_6
REMARK    5  A    between atoms: C_3  and  C_27
REMARK    6  A    between atoms: C_4  and  C_5
REMARK    7  A    between atoms: C_7  and  C_9
REMARK    8  A    between atoms: C_10  and  C_11
REMARK    9  A    between atoms: C_16  and  C_17
REMARK   10  A    between atoms: C_24  and  C_25
REMARK   11  A    between atoms: C_24  and  C_26
REMARK   12  A    between atoms: C_30  and  O_31
REMARK   13  A    between atoms: O_31  and  C_32
REMARK                            x       y       z     vdW  Elec       q    Type
REMARK                         _______ _______ _______ _____ _____    ______ ____
ROOT
ATOM      1  C   UNL     1      -2.883  11.217  17.679  0.00  0.00    +0.000 A 
ATOM      2  C   UNL     1      -3.580  11.171  16.462  0.00  0.00    +0.000 A 
ATOM      3  C   UNL     1      -3.155  10.605  15.141  0.00  0.00    +0.000 C 
ATOM      4  N   UNL     1      -4.813  11.682  16.626  0.00  0.00    +0.000 NA
ATOM      5  N   UNL     1      -4.928  12.071  17.886  0.00  0.00    +0.000 N 
ATOM      6  C   UNL     1      -3.796  11.799  18.566  0.00  0.00    +0.000 A 
ATOM      7  N   UNL     1      -3.660  12.146  19.952  0.00  0.00    +0.000 N 
ATOM      8  C   UNL     1      -4.868  12.577  20.666  0.00  0.00    +0.000 C 
ATOM      9  C   UNL     1      -5.728  13.460  19.742  0.00  0.00    +0.000 C 
ATOM     10  C   UNL     1      -6.124  12.699  18.449  0.00  0.00    +0.000 C 
ATOM     11  C   UNL     1      -7.162  11.592  18.719  0.00  0.00    +0.000 C 
ATOM     12  C   UNL     1      -6.721  13.713  17.453  0.00  0.00    +0.000 C 
ATOM     13  H   UNL     1      -2.735  12.160  20.406  0.00  0.00    +0.000 HD
ENDROOT
BRANCH   8  14
ATOM     14  C   UNL     1      -4.626  13.320  21.973  0.00  0.00    +0.000 A 
ATOM     15  C   UNL     1      -3.623  12.927  22.884  0.00  0.00    +0.000 A 
ATOM     16  C   UNL     1      -3.356  13.705  24.020  0.00  0.00    +0.000 A 
ATOM     17  C   UNL     1      -4.077  14.878  24.257  0.00  0.00    +0.000 A 
ATOM     18  C   UNL     1      -5.074  15.274  23.366  0.00  0.00    +0.000 A 
ATOM     19  C   UNL     1      -5.351  14.501  22.235  0.00  0.00    +0.000 A 
ENDBRANCH   8  14
BRANCH   1  21
ATOM     20  N   UNL     1      -0.592  11.411  18.642  0.00  0.00    +0.000 N 
ATOM     21  C   UNL     1      -1.502  10.706  17.899  0.00  0.00    +0.000 C 
ATOM     22  O   UNL     1      -1.232   9.601  17.466  0.00  0.00    +0.000 OA
ATOM     23  H   UNL     1      -0.939  12.292  19.042  0.00  0.00    +0.000 HD
BRANCH  20  24
ATOM     24  C   UNL     1       0.779  10.972  19.010  0.00  0.00    +0.000 C 
BRANCH  24  25
ATOM     25  C   UNL     1       1.706  12.190  19.208  0.00  0.00    +0.000 A 
ATOM     26  C   UNL     1       2.458  12.699  18.128  0.00  0.00    +0.000 A 
ATOM     27  C   UNL     1       3.299  13.807  18.288  0.00  0.00    +0.000 A 
ATOM     28  C   UNL     1       3.413  14.432  19.539  0.00  0.00    +0.000 A 
ATOM     29  C   UNL     1       2.679  13.936  20.618  0.00  0.00    +0.000 A 
ATOM     30  C   UNL     1       1.840  12.828  20.462  0.00  0.00    +0.000 A 
BRANCH  28  31
ATOM     31  O   UNL     1       4.212  15.515  19.747  0.00  0.00    +0.000 OA
ATOM     32  C   UNL     1       5.297  15.870  18.974  0.00  0.00    +0.000 C 
ENDBRANCH  28  31
ENDBRANCH  24  25
BRANCH  24  34
ATOM     33  C   UNL     1      -0.514  10.364  21.228  0.00  0.00    +0.000 C 
ATOM     34  C   UNL     1       0.710  10.132  20.335  0.00  0.00    +0.000 C 
ENDBRANCH  24  34
BRANCH  24  35
ATOM     35  C   UNL     1       1.422  10.045  17.909  0.00  0.00    +0.000 C 
ATOM     36  C   UNL     1       2.016   8.727  18.429  0.00  0.00    +0.000 C 
ENDBRANCH  24  35
ENDBRANCH  20  24
ENDBRANCH   1  21
TORSDOF 7
ENDMDL
