MODEL 1
REMARK VINA RESULT:      -6.9      0.000      0.000
REMARK  Name = 
REMARK  12 active torsions:
REMARK  status: ('A' for Active; 'I' for Inactive)
REMARK    1  A    between atoms: C_1  and  C_2
REMARK    2  A    between atoms: C_2  and  C_3
REMARK    3  A    between atoms: C_3  and  C_4
REMARK    4  A    between atoms: C_4  and  O_5
REMARK    5  A    between atoms: O_5  and  C_6
REMARK    6  A    between atoms: C_8  and  O_9
REMARK    7  A    between atoms: O_9  and  C_10
REMARK    8  A    between atoms: C_10  and  C_11
REMARK    9  A    between atoms: C_11  and  C_12
REMARK   10  A    between atoms: C_15  and  C_16
REMARK   11  A    between atoms: N_18  and  C_19
REMARK   12  A    between atoms: C_22  and  C_23
REMARK                            x       y       z     vdW  Elec       q    Type
REMARK                         _______ _______ _______ _____ _____    ______ ____
ROOT
ATOM      1  C   UNL     1       3.124   6.025  19.347  0.00  0.00    +0.000 A 
ATOM      2  C   UNL     1       4.166   5.131  19.038  0.00  0.00    +0.000 A 
ATOM      3  C   UNL     1       5.000   5.324  17.933  0.00  0.00    +0.000 A 
ATOM      4  C   UNL     1       4.759   6.390  17.076  0.00  0.00    +0.000 A 
ATOM      5  C   UNL     1       3.750   7.301  17.379  0.00  0.00    +0.000 A 
ATOM      6  C   UNL     1       2.946   7.155  18.528  0.00  0.00    +0.000 A 
ENDROOT
BRANCH   6   7
ATOM      7  C   UNL     1       1.976   8.263  18.726  0.00  0.00    +0.000 C 
ATOM      8  O   UNL     1       1.535   8.890  17.764  0.00  0.00    +0.000 OA
ATOM      9  N   UNL     1       1.607   8.568  20.012  0.00  0.00    +0.000 N 
ATOM     10  H   UNL     1       2.150   8.172  20.771  0.00  0.00    +0.000 HD
BRANCH   9  11
ATOM     11  C   UNL     1       0.399   9.375  20.256  0.00  0.00    +0.000 C 
ATOM     12  C   UNL     1      -0.302   9.179  21.611  0.00  0.00    +0.000 C 
ATOM     13  N   UNL     1      -0.274  10.623  21.717  0.00  0.00    +0.000 N 
ATOM     14  C   UNL     1      -0.936  11.469  22.548  0.00  0.00    +0.000 C 
ATOM     15  C   UNL     1      -0.616  12.932  22.374  0.00  0.00    +0.000 C 
ATOM     16  O   UNL     1      -1.731  11.082  23.398  0.00  0.00    +0.000 OA
ATOM     17  C   UNL     1       0.716  10.814  20.684  0.00  0.00    +0.000 C 
ENDBRANCH   9  11
ENDBRANCH   6   7
BRANCH   1  18
ATOM     18  O   UNL     1       2.462   5.667  20.496  0.00  0.00    +0.000 OA
BRANCH  18  19
ATOM     19  C   UNL     1       2.169   4.292  20.726  0.00  0.00    +0.000 C 
BRANCH  19  20
ATOM     20  C   UNL     1       0.766   3.917  20.274  0.00  0.00    +0.000 C 
BRANCH  20  22
ATOM     21  C   UNL     1       2.277   2.163  19.262  0.00  0.00    +0.000 C 
ATOM     22  C   UNL     1       0.858   2.682  19.372  0.00  0.00    +0.000 C 
ENDBRANCH  20  22
ENDBRANCH  19  20
ENDBRANCH  18  19
ENDBRANCH   1  18
BRANCH   3  23
ATOM     23  O   UNL     1       6.013   4.416  17.780  0.00  0.00    +0.000 OA
BRANCH  23  24
ATOM     24  C   UNL     1       7.296   4.983  17.493  0.00  0.00    +0.000 C 
BRANCH  24  25
ATOM     25  C   UNL     1       7.827   5.651  18.757  0.00  0.00    +0.000 C 
ATOM     26  C   UNL     1       8.082   7.132  18.529  0.00  0.00    +0.000 C 
ENDBRANCH  24  25
ENDBRANCH  23  24
ENDBRANCH   3  23
TORSDOF 9
ENDMDL
MODEL 2
REMARK VINA RESULT:      -6.8      1.009      1.511
REMARK  Name = 
REMARK  12 active torsions:
REMARK  status: ('A' for Active; 'I' for Inactive)
REMARK    1  A    between atoms: C_1  and  C_2
REMARK    2  A    between atoms: C_2  and  C_3
REMARK    3  A    between atoms: C_3  and  C_4
REMARK    4  A    between atoms: C_4  and  O_5
REMARK    5  A    between atoms: O_5  and  C_6
REMARK    6  A    between atoms: C_8  and  O_9
REMARK    7  A    between atoms: O_9  and  C_10
REMARK    8  A    between atoms: C_10  and  C_11
REMARK    9  A    between atoms: C_11  and  C_12
REMARK   10  A    between atoms: C_15  and  C_16
REMARK   11  A    between atoms: N_18  and  C_19
REMARK   12  A    between atoms: C_22  and  C_23
REMARK                            x       y       z     vdW  Elec       q    Type
REMARK                         _______ _______ _______ _____ _____    ______ ____
ROOT
ATOM      1  C   UNL     1       2.986   6.135  19.335  0.00  0.00    +0.000 A 
ATOM      2  C   UNL     1       4.009   5.222  19.019  0.00  0.00    +0.000 A 
ATOM      3  C   UNL     1       4.854   5.412  17.921  0.00  0.00    +0.000 A 
ATOM      4  C   UNL     1       4.643   6.496  17.079  0.00  0.00    +0.000 A 
ATOM      5  C   UNL     1       3.653   7.425  17.389  0.00  0.00    +0.000 A 
ATOM      6  C   UNL     1       2.839   7.280  18.531  0.00  0.00    +0.000 A 
ENDROOT
BRANCH   6   7
ATOM      7  C   UNL     1       1.892   8.408  18.739  0.00  0.00    +0.000 C 
ATOM      8  O   UNL     1       1.492   9.075  17.787  0.00  0.00    +0.000 OA
ATOM      9  N   UNL     1       1.499   8.683  20.024  0.00  0.00    +0.000 N 
ATOM     10  H   UNL     1       2.012   8.250  20.784  0.00  0.00    +0.000 HD
BRANCH   9  11
ATOM     11  C   UNL     1       0.306   9.514  20.264  0.00  0.00    +0.000 C 
ATOM     12  C   UNL     1      -0.431   9.298  21.596  0.00  0.00    +0.000 C 
ATOM     13  N   UNL     1      -0.370  10.738  21.744  0.00  0.00    +0.000 N 
ATOM     14  C   UNL     1      -1.030  11.577  22.583  0.00  0.00    +0.000 C 
ATOM     15  C   UNL     1      -0.670  13.035  22.459  0.00  0.00    +0.000 C 
ATOM     16  O   UNL     1      -1.855  11.187  23.403  0.00  0.00    +0.000 OA
ATOM     17  C   UNL     1       0.649  10.931  20.740  0.00  0.00    +0.000 C 
ENDBRANCH   9  11
ENDBRANCH   6   7
BRANCH   1  18
ATOM     18  O   UNL     1       2.309   5.776  20.474  0.00  0.00    +0.000 OA
BRANCH  18  19
ATOM     19  C   UNL     1       1.267   4.808  20.383  0.00  0.00    +0.000 C 
BRANCH  19  20
ATOM     20  C   UNL     1       1.595   3.533  21.143  0.00  0.00    +0.000 C 
BRANCH  20  22
ATOM     21  C   UNL     1       1.072   2.784  18.788  0.00  0.00    +0.000 C 
ATOM     22  C   UNL     1       1.482   2.348  20.179  0.00  0.00    +0.000 C 
ENDBRANCH  20  22
ENDBRANCH  19  20
ENDBRANCH  18  19
ENDBRANCH   1  18
BRANCH   3  23
ATOM     23  O   UNL     1       5.847   4.483  17.762  0.00  0.00    +0.000 OA
BRANCH  23  24
ATOM     24  C   UNL     1       6.632   4.635  16.573  0.00  0.00    +0.000 C 
BRANCH  24  25
ATOM     25  C   UNL     1       6.156   3.617  15.543  0.00  0.00    +0.000 C 
ATOM     26  C   UNL     1       5.643   4.305  14.288  0.00  0.00    +0.000 C 
ENDBRANCH  24  25
ENDBRANCH  23  24
ENDBRANCH   3  23
TORSDOF 9
ENDMDL
MODEL 3
REMARK VINA RESULT:      -6.5      3.428      7.012
REMARK  Name = 
REMARK  12 active torsions:
REMARK  status: ('A' for Active; 'I' for Inactive)
REMARK    1  A    between atoms: C_1  and  C_2
REMARK    2  A    between atoms: C_2  and  C_3
REMARK    3  A    between atoms: C_3  and  C_4
REMARK    4  A    between atoms: C_4  and  O_5
REMARK    5  A    between atoms: O_5  and  C_6
REMARK    6  A    between atoms: C_8  and  O_9
REMARK    7  A    between atoms: O_9  and  C_10
REMARK    8  A    between atoms: C_10  and  C_11
REMARK    9  A    between atoms: C_11  and  C_12
REMARK   10  A    between atoms: C_15  and  C_16
REMARK   11  A    between atoms: N_18  and  C_19
REMARK   12  A    between atoms: C_22  and  C_23
REMARK                            x       y       z     vdW  Elec       q    Type
REMARK                         _______ _______ _______ _____ _____    ______ ____
ROOT
ATOM      1  C   UNL     1       3.862   6.163  17.506  0.00  0.00    +0.000 A 
ATOM      2  C   UNL     1       2.731   5.355  17.726  0.00  0.00    +0.000 A 
ATOM      3  C   UNL     1       2.773   3.968  17.563  0.00  0.00    +0.000 A 
ATOM      4  C   UNL     1       3.942   3.370  17.110  0.00  0.00    +0.000 A 
ATOM      5  C   UNL     1       5.079   4.148  16.913  0.00  0.00    +0.000 A 
ATOM      6  C   UNL     1       5.069   5.539  17.139  0.00  0.00    +0.000 A 
ENDROOT
BRANCH   6   7
ATOM      7  C   UNL     1       6.393   6.188  16.949  0.00  0.00    +0.000 C 
ATOM      8  O   UNL     1       7.098   5.903  15.982  0.00  0.00    +0.000 OA
ATOM      9  N   UNL     1       6.802   7.095  17.893  0.00  0.00    +0.000 N 
ATOM     10  H   UNL     1       6.291   7.137  18.768  0.00  0.00    +0.000 HD
BRANCH   9  11
ATOM     11  C   UNL     1       7.897   8.031  17.586  0.00  0.00    +0.000 C 
ATOM     12  C   UNL     1       7.512   9.507  17.394  0.00  0.00    +0.000 C 
ATOM     13  N   UNL     1       8.582   9.800  18.326  0.00  0.00    +0.000 N 
ATOM     14  C   UNL     1       9.209  10.966  18.627  0.00  0.00    +0.000 C 
ATOM     15  C   UNL     1      10.272  10.876  19.691  0.00  0.00    +0.000 C 
ATOM     16  O   UNL     1       8.928  12.032  18.088  0.00  0.00    +0.000 OA
ATOM     17  C   UNL     1       8.693   8.451  18.827  0.00  0.00    +0.000 C 
ENDBRANCH   9  11
ENDBRANCH   6   7
BRANCH   1  18
ATOM     18  O   UNL     1       3.609   7.487  17.766  0.00  0.00    +0.000 OA
BRANCH  18  19
ATOM     19  C   UNL     1       2.265   7.902  17.995  0.00  0.00    +0.000 C 
BRANCH  19  20
ATOM     20  C   UNL     1       2.098   9.409  17.876  0.00  0.00    +0.000 C 
BRANCH  20  22
ATOM     21  C   UNL     1      -0.246  10.192  18.400  0.00  0.00    +0.000 C 
ATOM     22  C   UNL     1       1.125   9.879  18.962  0.00  0.00    +0.000 C 
ENDBRANCH  20  22
ENDBRANCH  19  20
ENDBRANCH  18  19
ENDBRANCH   1  18
BRANCH   3  23
ATOM     23  O   UNL     1       1.621   3.294  17.870  0.00  0.00    +0.000 OA
BRANCH  23  24
ATOM     24  C   UNL     1       1.688   2.488  19.052  0.00  0.00    +0.000 C 
BRANCH  24  25
ATOM     25  C   UNL     1       1.016   3.242  20.194  0.00  0.00    +0.000 C 
ATOM     26  C   UNL     1       1.452   2.696  21.544  0.00  0.00    +0.000 C 
ENDBRANCH  24  25
ENDBRANCH  23  24
ENDBRANCH   3  23
TORSDOF 9
ENDMDL
MODEL 4
REMARK VINA RESULT:      -6.5      1.570      2.076
REMARK  Name = 
REMARK  12 active torsions:
REMARK  status: ('A' for Active; 'I' for Inactive)
REMARK    1  A    between atoms: C_1  and  C_2
REMARK    2  A    between atoms: C_2  and  C_3
REMARK    3  A    between atoms: C_3  and  C_4
REMARK    4  A    between atoms: C_4  and  O_5
REMARK    5  A    between atoms: O_5  and  C_6
REMARK    6  A    between atoms: C_8  and  O_9
REMARK    7  A    between atoms: O_9  and  C_10
REMARK    8  A    between atoms: C_10  and  C_11
REMARK    9  A    between atoms: C_11  and  C_12
REMARK   10  A    between atoms: C_15  and  C_16
REMARK   11  A    between atoms: N_18  and  C_19
REMARK   12  A    between atoms: C_22  and  C_23
REMARK                            x       y       z     vdW  Elec       q    Type
REMARK                         _______ _______ _______ _____ _____    ______ ____
ROOT
ATOM      1  C   UNL     1       2.943   5.831  18.059  0.00  0.00    +0.000 A 
ATOM      2  C   UNL     1       3.991   4.976  17.672  0.00  0.00    +0.000 A 
ATOM      3  C   UNL     1       5.155   5.462  17.068  0.00  0.00    +0.000 A 
ATOM      4  C   UNL     1       5.259   6.817  16.783  0.00  0.00    +0.000 A 
ATOM      5  C   UNL     1       4.244   7.683  17.182  0.00  0.00    +0.000 A 
ATOM      6  C   UNL     1       3.096   7.213  17.852  0.00  0.00    +0.000 A 
ENDROOT
BRANCH   6   7
ATOM      7  C   UNL     1       2.160   8.292  18.266  0.00  0.00    +0.000 C 
ATOM      8  O   UNL     1       1.768   9.129  17.455  0.00  0.00    +0.000 OA
ATOM      9  N   UNL     1       1.767   8.327  19.580  0.00  0.00    +0.000 N 
ATOM     10  H   UNL     1       2.274   7.755  20.245  0.00  0.00    +0.000 HD
BRANCH   9  11
ATOM     11  C   UNL     1       0.582   9.111  19.970  0.00  0.00    +0.000 C 
ATOM     12  C   UNL     1       0.142   9.015  21.440  0.00  0.00    +0.000 C 
ATOM     13  N   UNL     1       0.116  10.463  21.419  0.00  0.00    +0.000 N 
ATOM     14  C   UNL     1      -0.431  11.358  22.282  0.00  0.00    +0.000 C 
ATOM     15  C   UNL     1      -0.221  12.809  21.932  0.00  0.00    +0.000 C 
ATOM     16  O   UNL     1      -1.043  11.023  23.291  0.00  0.00    +0.000 OA
ATOM     17  C   UNL     1       0.897  10.593  20.212  0.00  0.00    +0.000 C 
ENDBRANCH   9  11
ENDBRANCH   6   7
BRANCH   1  18
ATOM     18  O   UNL     1       1.920   5.147  18.669  0.00  0.00    +0.000 OA
BRANCH  18  19
ATOM     19  C   UNL     1       1.469   3.922  18.098  0.00  0.00    +0.000 C 
BRANCH  19  20
ATOM     20  C   UNL     1       1.106   2.892  19.156  0.00  0.00    +0.000 C 
BRANCH  20  22
ATOM     21  C   UNL     1       1.557   2.651  21.630  0.00  0.00    +0.000 C 
ATOM     22  C   UNL     1       2.155   2.948  20.271  0.00  0.00    +0.000 C 
ENDBRANCH  20  22
ENDBRANCH  19  20
ENDBRANCH  18  19
ENDBRANCH   1  18
BRANCH   3  23
ATOM     23  O   UNL     1       6.123   4.533  16.798  0.00  0.00    +0.000 OA
BRANCH  23  24
ATOM     24  C   UNL     1       5.819   3.638  15.721  0.00  0.00    +0.000 C 
BRANCH  24  25
ATOM     25  C   UNL     1       5.625   4.456  14.449  0.00  0.00    +0.000 C 
ATOM     26  C   UNL     1       6.183   3.728  13.237  0.00  0.00    +0.000 C 
ENDBRANCH  24  25
ENDBRANCH  23  24
ENDBRANCH   3  23
TORSDOF 9
ENDMDL
MODEL 5
REMARK VINA RESULT:      -6.5      2.381      3.038
REMARK  Name = 
REMARK  12 active torsions:
REMARK  status: ('A' for Active; 'I' for Inactive)
REMARK    1  A    between atoms: C_1  and  C_2
REMARK    2  A    between atoms: C_2  and  C_3
REMARK    3  A    between atoms: C_3  and  C_4
REMARK    4  A    between atoms: C_4  and  O_5
REMARK    5  A    between atoms: O_5  and  C_6
REMARK    6  A    between atoms: C_8  and  O_9
REMARK    7  A    between atoms: O_9  and  C_10
REMARK    8  A    between atoms: C_10  and  C_11
REMARK    9  A    between atoms: C_11  and  C_12
REMARK   10  A    between atoms: C_15  and  C_16
REMARK   11  A    between atoms: N_18  and  C_19
REMARK   12  A    between atoms: C_22  and  C_23
REMARK                            x       y       z     vdW  Elec       q    Type
REMARK                         _______ _______ _______ _____ _____    ______ ____
ROOT
ATOM      1  C   UNL     1       3.951   5.325  18.600  0.00  0.00    +0.000 A 
ATOM      2  C   UNL     1       4.988   4.733  17.856  0.00  0.00    +0.000 A 
ATOM      3  C   UNL     1       5.550   5.365  16.743  0.00  0.00    +0.000 A 
ATOM      4  C   UNL     1       5.033   6.581  16.317  0.00  0.00    +0.000 A 
ATOM      5  C   UNL     1       4.025   7.196  17.055  0.00  0.00    +0.000 A 
ATOM      6  C   UNL     1       3.497   6.601  18.219  0.00  0.00    +0.000 A 
ENDROOT
BRANCH   6   7
ATOM      7  C   UNL     1       2.485   7.439  18.914  0.00  0.00    +0.000 C 
ATOM      8  O   UNL     1       2.063   7.122  20.025  0.00  0.00    +0.000 OA
ATOM      9  N   UNL     1       2.032   8.562  18.269  0.00  0.00    +0.000 N 
ATOM     10  H   UNL     1       2.246   8.664  17.283  0.00  0.00    +0.000 HD
BRANCH   9  11
ATOM     11  C   UNL     1       1.335   9.614  19.028  0.00  0.00    +0.000 C 
ATOM     12  C   UNL     1       1.541  11.062  18.553  0.00  0.00    +0.000 C 
ATOM     13  N   UNL     1       0.097  11.173  18.601  0.00  0.00    +0.000 N 
ATOM     14  C   UNL     1      -0.716  12.260  18.569  0.00  0.00    +0.000 C 
ATOM     15  C   UNL     1      -2.193  11.968  18.609  0.00  0.00    +0.000 C 
ATOM     16  O   UNL     1      -0.290  13.408  18.495  0.00  0.00    +0.000 OA
ATOM     17  C   UNL     1      -0.144   9.750  18.646  0.00  0.00    +0.000 C 
ENDBRANCH   9  11
ENDBRANCH   6   7
BRANCH   1  18
ATOM     18  O   UNL     1       3.581   4.552  19.673  0.00  0.00    +0.000 OA
BRANCH  18  19
ATOM     19  C   UNL     1       3.203   3.197  19.452  0.00  0.00    +0.000 C 
BRANCH  19  20
ATOM     20  C   UNL     1       1.719   3.053  19.154  0.00  0.00    +0.000 C 
BRANCH  20  22
ATOM     21  C   UNL     1       1.408   2.724  21.639  0.00  0.00    +0.000 C 
ATOM     22  C   UNL     1       0.929   3.456  20.403  0.00  0.00    +0.000 C 
ENDBRANCH  20  22
ENDBRANCH  19  20
ENDBRANCH  18  19
ENDBRANCH   1  18
BRANCH   3  23
ATOM     23  O   UNL     1       6.593   4.709  16.146  0.00  0.00    +0.000 OA
BRANCH  23  24
ATOM     24  C   UNL     1       6.214   3.744  15.157  0.00  0.00    +0.000 C 
BRANCH  24  25
ATOM     25  C   UNL     1       6.540   4.306  13.778  0.00  0.00    +0.000 C 
ATOM     26  C   UNL     1       5.867   3.495  12.682  0.00  0.00    +0.000 C 
ENDBRANCH  24  25
ENDBRANCH  23  24
ENDBRANCH   3  23
TORSDOF 9
ENDMDL
MODEL 6
REMARK VINA RESULT:      -6.4      1.541      1.986
REMARK  Name = 
REMARK  12 active torsions:
REMARK  status: ('A' for Active; 'I' for Inactive)
REMARK    1  A    between atoms: C_1  and  C_2
REMARK    2  A    between atoms: C_2  and  C_3
REMARK    3  A    between atoms: C_3  and  C_4
REMARK    4  A    between atoms: C_4  and  O_5
REMARK    5  A    between atoms: O_5  and  C_6
REMARK    6  A    between atoms: C_8  and  O_9
REMARK    7  A    between atoms: O_9  and  C_10
REMARK    8  A    between atoms: C_10  and  C_11
REMARK    9  A    between atoms: C_11  and  C_12
REMARK   10  A    between atoms: C_15  and  C_16
REMARK   11  A    between atoms: N_18  and  C_19
REMARK   12  A    between atoms: C_22  and  C_23
REMARK                            x       y       z     vdW  Elec       q    Type
REMARK                         _______ _______ _______ _____ _____    ______ ____
ROOT
ATOM      1  C   UNL     1       3.091   5.809  18.219  0.00  0.00    +0.000 A 
ATOM      2  C   UNL     1       4.073   4.900  17.787  0.00  0.00    +0.000 A 
ATOM      3  C   UNL     1       5.133   5.295  16.965  0.00  0.00    +0.000 A 
ATOM      4  C   UNL     1       5.188   6.605  16.507  0.00  0.00    +0.000 A 
ATOM      5  C   UNL     1       4.240   7.526  16.945  0.00  0.00    +0.000 A 
ATOM      6  C   UNL     1       3.205   7.155  17.828  0.00  0.00    +0.000 A 
ENDROOT
BRANCH   6   7
ATOM      7  C   UNL     1       2.337   8.288  18.244  0.00  0.00    +0.000 C 
ATOM      8  O   UNL     1       2.055   9.186  17.453  0.00  0.00    +0.000 OA
ATOM      9  N   UNL     1       1.879   8.301  19.538  0.00  0.00    +0.000 N 
ATOM     10  H   UNL     1       2.304   7.663  20.201  0.00  0.00    +0.000 HD
BRANCH   9  11
ATOM     11  C   UNL     1       0.741   9.162  19.904  0.00  0.00    +0.000 C 
ATOM     12  C   UNL     1       0.389   9.244  21.399  0.00  0.00    +0.000 C 
ATOM     13  N   UNL     1       0.398  10.681  21.216  0.00  0.00    +0.000 N 
ATOM     14  C   UNL     1      -0.072  11.683  22.002  0.00  0.00    +0.000 C 
ATOM     15  C   UNL     1       0.154  13.079  21.479  0.00  0.00    +0.000 C 
ATOM     16  O   UNL     1      -0.630  11.482  23.076  0.00  0.00    +0.000 OA
ATOM     17  C   UNL     1       1.108  10.650  19.959  0.00  0.00    +0.000 C 
ENDBRANCH   9  11
ENDBRANCH   6   7
BRANCH   1  18
ATOM     18  O   UNL     1       2.172   5.217  19.051  0.00  0.00    +0.000 OA
BRANCH  18  19
ATOM     19  C   UNL     1       2.576   4.820  20.358  0.00  0.00    +0.000 C 
BRANCH  19  20
ATOM     20  C   UNL     1       2.097   3.420  20.710  0.00  0.00    +0.000 C 
BRANCH  20  22
ATOM     21  C   UNL     1       0.877   2.251  18.833  0.00  0.00    +0.000 C 
ATOM     22  C   UNL     1       0.750   3.179  20.023  0.00  0.00    +0.000 C 
ENDBRANCH  20  22
ENDBRANCH  19  20
ENDBRANCH  18  19
ENDBRANCH   1  18
BRANCH   3  23
ATOM     23  O   UNL     1       6.054   4.327  16.668  0.00  0.00    +0.000 OA
BRANCH  23  24
ATOM     24  C   UNL     1       6.694   4.471  15.395  0.00  0.00    +0.000 C 
BRANCH  24  25
ATOM     25  C   UNL     1       5.705   4.074  14.304  0.00  0.00    +0.000 C 
ATOM     26  C   UNL     1       6.420   3.764  13.000  0.00  0.00    +0.000 C 
ENDBRANCH  24  25
ENDBRANCH  23  24
ENDBRANCH   3  23
TORSDOF 9
ENDMDL
MODEL 7
REMARK VINA RESULT:      -6.4      3.234      7.967
REMARK  Name = 
REMARK  12 active torsions:
REMARK  status: ('A' for Active; 'I' for Inactive)
REMARK    1  A    between atoms: C_1  and  C_2
REMARK    2  A    between atoms: C_2  and  C_3
REMARK    3  A    between atoms: C_3  and  C_4
REMARK    4  A    between atoms: C_4  and  O_5
REMARK    5  A    between atoms: O_5  and  C_6
REMARK    6  A    between atoms: C_8  and  O_9
REMARK    7  A    between atoms: O_9  and  C_10
REMARK    8  A    between atoms: C_10  and  C_11
REMARK    9  A    between atoms: C_11  and  C_12
REMARK   10  A    between atoms: C_15  and  C_16
REMARK   11  A    between atoms: N_18  and  C_19
REMARK   12  A    between atoms: C_22  and  C_23
REMARK                            x       y       z     vdW  Elec       q    Type
REMARK                         _______ _______ _______ _____ _____    ______ ____
ROOT
ATOM      1  C   UNL     1       3.122   5.733  19.495  0.00  0.00    +0.000 A 
ATOM      2  C   UNL     1       2.263   6.776  19.887  0.00  0.00    +0.000 A 
ATOM      3  C   UNL     1       2.094   7.925  19.109  0.00  0.00    +0.000 A 
ATOM      4  C   UNL     1       2.840   8.076  17.947  0.00  0.00    +0.000 A 
ATOM      5  C   UNL     1       3.676   7.044  17.528  0.00  0.00    +0.000 A 
ATOM      6  C   UNL     1       3.803   5.852  18.270  0.00  0.00    +0.000 A 
ENDROOT
BRANCH   6   7
ATOM      7  C   UNL     1       4.679   4.837  17.627  0.00  0.00    +0.000 C 
ATOM      8  O   UNL     1       4.534   3.640  17.868  0.00  0.00    +0.000 OA
ATOM      9  N   UNL     1       5.657   5.284  16.775  0.00  0.00    +0.000 N 
ATOM     10  H   UNL     1       5.872   6.275  16.773  0.00  0.00    +0.000 HD
BRANCH   9  11
ATOM     11  C   UNL     1       6.297   4.346  15.837  0.00  0.00    +0.000 C 
ATOM     12  C   UNL     1       5.366   3.577  14.884  0.00  0.00    +0.000 C 
ATOM     13  N   UNL     1       6.260   4.008  13.829  0.00  0.00    +0.000 N 
ATOM     14  C   UNL     1       6.393   3.586  12.545  0.00  0.00    +0.000 C 
ATOM     15  C   UNL     1       7.432   4.311  11.728  0.00  0.00    +0.000 C 
ATOM     16  O   UNL     1       5.710   2.688  12.064  0.00  0.00    +0.000 OA
ATOM     17  C   UNL     1       6.897   5.043  14.609  0.00  0.00    +0.000 C 
ENDBRANCH   9  11
ENDBRANCH   6   7
BRANCH   1  18
ATOM     18  O   UNL     1       3.102   4.687  20.384  0.00  0.00    +0.000 OA
BRANCH  18  19
ATOM     19  C   UNL     1       1.930   4.463  21.163  0.00  0.00    +0.000 C 
BRANCH  19  20
ATOM     20  C   UNL     1       1.548   2.993  21.222  0.00  0.00    +0.000 C 
BRANCH  20  22
ATOM     21  C   UNL     1       0.852   2.577  18.829  0.00  0.00    +0.000 C 
ATOM     22  C   UNL     1       1.913   2.341  19.885  0.00  0.00    +0.000 C 
ENDBRANCH  20  22
ENDBRANCH  19  20
ENDBRANCH  18  19
ENDBRANCH   1  18
BRANCH   3  23
ATOM     23  O   UNL     1       1.183   8.835  19.573  0.00  0.00    +0.000 OA
BRANCH  23  24
ATOM     24  C   UNL     1       1.117  10.058  18.832  0.00  0.00    +0.000 C 
BRANCH  24  25
ATOM     25  C   UNL     1       0.062  10.957  19.466  0.00  0.00    +0.000 C 
ATOM     26  C   UNL     1       0.373  11.220  20.930  0.00  0.00    +0.000 C 
ENDBRANCH  24  25
ENDBRANCH  23  24
ENDBRANCH   3  23
TORSDOF 9
ENDMDL
MODEL 8
REMARK VINA RESULT:      -6.4      2.648      3.487
REMARK  Name = 
REMARK  12 active torsions:
REMARK  status: ('A' for Active; 'I' for Inactive)
REMARK    1  A    between atoms: C_1  and  C_2
REMARK    2  A    between atoms: C_2  and  C_3
REMARK    3  A    between atoms: C_3  and  C_4
REMARK    4  A    between atoms: C_4  and  O_5
REMARK    5  A    between atoms: O_5  and  C_6
REMARK    6  A    between atoms: C_8  and  O_9
REMARK    7  A    between atoms: O_9  and  C_10
REMARK    8  A    between atoms: C_10  and  C_11
REMARK    9  A    between atoms: C_11  and  C_12
REMARK   10  A    between atoms: C_15  and  C_16
REMARK   11  A    between atoms: N_18  and  C_19
REMARK   12  A    between atoms: C_22  and  C_23
REMARK                            x       y       z     vdW  Elec       q    Type
REMARK                         _______ _______ _______ _____ _____    ______ ____
ROOT
ATOM      1  C   UNL     1       3.763   4.725  17.640  0.00  0.00    +0.000 A 
ATOM      2  C   UNL     1       4.683   4.084  16.790  0.00  0.00    +0.000 A 
ATOM      3  C   UNL     1       5.467   4.799  15.880  0.00  0.00    +0.000 A 
ATOM      4  C   UNL     1       5.293   6.172  15.761  0.00  0.00    +0.000 A 
ATOM      5  C   UNL     1       4.407   6.828  16.611  0.00  0.00    +0.000 A 
ATOM      6  C   UNL     1       3.659   6.127  17.580  0.00  0.00    +0.000 A 
ENDROOT
BRANCH   6   7
ATOM      7  C   UNL     1       2.826   7.004  18.444  0.00  0.00    +0.000 C 
ATOM      8  O   UNL     1       2.669   6.744  19.635  0.00  0.00    +0.000 OA
ATOM      9  N   UNL     1       2.232   8.095  17.863  0.00  0.00    +0.000 N 
ATOM     10  H   UNL     1       2.217   8.148  16.851  0.00  0.00    +0.000 HD
BRANCH   9  11
ATOM     11  C   UNL     1       1.719   9.188  18.708  0.00  0.00    +0.000 C 
ATOM     12  C   UNL     1       2.099  10.619  18.294  0.00  0.00    +0.000 C 
ATOM     13  N   UNL     1       0.687  10.919  18.421  0.00  0.00    +0.000 N 
ATOM     14  C   UNL     1       0.030  12.106  18.483  0.00  0.00    +0.000 C 
ATOM     15  C   UNL     1      -1.471  12.012  18.583  0.00  0.00    +0.000 C 
ATOM     16  O   UNL     1       0.605  13.189  18.445  0.00  0.00    +0.000 OA
ATOM     17  C   UNL     1       0.257   9.542  18.408  0.00  0.00    +0.000 C 
ENDBRANCH   9  11
ENDBRANCH   6   7
BRANCH   1  18
ATOM     18  O   UNL     1       3.134   3.839  18.480  0.00  0.00    +0.000 OA
BRANCH  18  19
ATOM     19  C   UNL     1       1.850   3.337  18.120  0.00  0.00    +0.000 C 
BRANCH  19  20
ATOM     20  C   UNL     1       0.883   3.331  19.293  0.00  0.00    +0.000 C 
BRANCH  20  22
ATOM     21  C   UNL     1       1.861   3.048  21.605  0.00  0.00    +0.000 C 
ATOM     22  C   UNL     1       1.401   2.345  20.346  0.00  0.00    +0.000 C 
ENDBRANCH  20  22
ENDBRANCH  19  20
ENDBRANCH  18  19
ENDBRANCH   1  18
BRANCH   3  23
ATOM     23  O   UNL     1       6.367   4.062  15.157  0.00  0.00    +0.000 OA
BRANCH  23  24
ATOM     24  C   UNL     1       6.473   4.424  13.775  0.00  0.00    +0.000 C 
BRANCH  24  25
ATOM     25  C   UNL     1       6.050   3.231  12.926  0.00  0.00    +0.000 C 
ATOM     26  C   UNL     1       4.889   3.590  12.013  0.00  0.00    +0.000 C 
ENDBRANCH  24  25
ENDBRANCH  23  24
ENDBRANCH   3  23
TORSDOF 9
ENDMDL
MODEL 9
REMARK VINA RESULT:      -6.4      2.266      4.163
REMARK  Name = 
REMARK  12 active torsions:
REMARK  status: ('A' for Active; 'I' for Inactive)
REMARK    1  A    between atoms: C_1  and  C_2
REMARK    2  A    between atoms: C_2  and  C_3
REMARK    3  A    between atoms: C_3  and  C_4
REMARK    4  A    between atoms: C_4  and  O_5
REMARK    5  A    between atoms: O_5  and  C_6
REMARK    6  A    between atoms: C_8  and  O_9
REMARK    7  A    between atoms: O_9  and  C_10
REMARK    8  A    between atoms: C_10  and  C_11
REMARK    9  A    between atoms: C_11  and  C_12
REMARK   10  A    between atoms: C_15  and  C_16
REMARK   11  A    between atoms: N_18  and  C_19
REMARK   12  A    between atoms: C_22  and  C_23
REMARK                            x       y       z     vdW  Elec       q    Type
REMARK                         _______ _______ _______ _____ _____    ______ ____
ROOT
ATOM      1  C   UNL     1       3.396   6.736  18.226  0.00  0.00    +0.000 A 
ATOM      2  C   UNL     1       3.685   5.459  18.740  0.00  0.00    +0.000 A 
ATOM      3  C   UNL     1       3.028   4.950  19.864  0.00  0.00    +0.000 A 
ATOM      4  C   UNL     1       2.109   5.748  20.535  0.00  0.00    +0.000 A 
ATOM      5  C   UNL     1       1.791   7.004  20.026  0.00  0.00    +0.000 A 
ATOM      6  C   UNL     1       2.397   7.501  18.855  0.00  0.00    +0.000 A 
ENDROOT
BRANCH   6   7
ATOM      7  C   UNL     1       1.875   8.825  18.424  0.00  0.00    +0.000 C 
ATOM      8  O   UNL     1       2.149   9.276  17.314  0.00  0.00    +0.000 OA
ATOM      9  N   UNL     1       1.097   9.525  19.312  0.00  0.00    +0.000 N 
ATOM     10  H   UNL     1       1.076   9.214  20.277  0.00  0.00    +0.000 HD
BRANCH   9  11
ATOM     11  C   UNL     1       0.257  10.635  18.833  0.00  0.00    +0.000 C 
ATOM     12  C   UNL     1      -1.057  10.256  18.130  0.00  0.00    +0.000 C 
ATOM     13  N   UNL     1      -1.689  11.206  19.023  0.00  0.00    +0.000 N 
ATOM     14  C   UNL     1      -2.920  11.778  18.991  0.00  0.00    +0.000 C 
ATOM     15  C   UNL     1      -3.232  12.711  20.133  0.00  0.00    +0.000 C 
ATOM     16  O   UNL     1      -3.739  11.548  18.108  0.00  0.00    +0.000 OA
ATOM     17  C   UNL     1      -0.581  11.276  19.947  0.00  0.00    +0.000 C 
ENDBRANCH   9  11
ENDBRANCH   6   7
BRANCH   1  18
ATOM     18  O   UNL     1       4.126   7.014  17.096  0.00  0.00    +0.000 OA
BRANCH  18  19
ATOM     19  C   UNL     1       5.389   6.380  16.914  0.00  0.00    +0.000 C 
BRANCH  19  20
ATOM     20  C   UNL     1       5.519   5.733  15.545  0.00  0.00    +0.000 C 
BRANCH  20  22
ATOM     21  C   UNL     1       7.239   4.577  16.989  0.00  0.00    +0.000 C 
ATOM     22  C   UNL     1       6.611   4.661  15.613  0.00  0.00    +0.000 C 
ENDBRANCH  20  22
ENDBRANCH  19  20
ENDBRANCH  18  19
ENDBRANCH   1  18
BRANCH   3  23
ATOM     23  O   UNL     1       3.357   3.671  20.223  0.00  0.00    +0.000 OA
BRANCH  23  24
ATOM     24  C   UNL     1       4.232   2.994  19.314  0.00  0.00    +0.000 C 
BRANCH  24  25
ATOM     25  C   UNL     1       3.499   1.786  18.741  0.00  0.00    +0.000 C 
ATOM     26  C   UNL     1       2.677   2.169  17.521  0.00  0.00    +0.000 C 
ENDBRANCH  24  25
ENDBRANCH  23  24
ENDBRANCH   3  23
TORSDOF 9
ENDMDL
