MODEL 1
REMARK VINA RESULT:      -7.2      0.000      0.000
REMARK  Name = 
REMARK  9 active torsions:
REMARK  status: ('A' for Active; 'I' for Inactive)
REMARK    1  A    between atoms: C_1  and  O_2
REMARK    2  A    between atoms: O_2  and  C_3
REMARK    3  A    between atoms: C_4  and  O_5
REMARK    4  A    between atoms: C_7  and  O_8
REMARK    5  A    between atoms: C_9  and  C_10
REMARK    6  A    between atoms: C_10  and  C_12
REMARK    7  A    between atoms: C_12  and  C_13
REMARK    8  A    between atoms: C_16  and  O_17
REMARK    9  A    between atoms: C_20  and  O_21
REMARK                            x       y       z     vdW  Elec       q    Type
REMARK                         _______ _______ _______ _____ _____    ______ ____
ROOT
ATOM      1  C   UNL     1       7.065   7.022  17.464  0.00  0.00    +0.000 A 
ATOM      2  C   UNL     1       7.687   6.486  18.595  0.00  0.00    +0.000 A 
ATOM      3  C   UNL     1       7.201   5.353  19.225  0.00  0.00    +0.000 A 
ATOM      4  C   UNL     1       6.053   4.741  18.722  0.00  0.00    +0.000 A 
ATOM      5  C   UNL     1       5.393   5.234  17.575  0.00  0.00    +0.000 A 
ATOM      6  C   UNL     1       5.944   6.364  16.933  0.00  0.00    +0.000 A 
ENDROOT
BRANCH   5   7
ATOM      7  C   UNL     1       4.142   4.542  17.084  0.00  0.00    +0.000 C 
ATOM      8  N   UNL     1       4.185   3.553  16.240  0.00  0.00    +0.000 NA
ATOM      9  H   UNL     1       5.166   3.312  16.030  0.00  0.00    +0.000 HD
BRANCH   7  10
ATOM     10  C   UNL     1       2.762   4.954  17.592  0.00  0.00    +0.000 C 
BRANCH  10  11
ATOM     11  C   UNL     1       2.332   4.320  18.902  0.00  0.00    +0.000 A 
ATOM     12  C   UNL     1       2.527   4.947  20.142  0.00  0.00    +0.000 A 
ATOM     13  C   UNL     1       2.144   4.318  21.330  0.00  0.00    +0.000 A 
ATOM     14  C   UNL     1       1.541   3.067  21.280  0.00  0.00    +0.000 A 
ATOM     15  C   UNL     1       1.311   2.439  20.063  0.00  0.00    +0.000 A 
ATOM     16  C   UNL     1       1.699   3.066  18.877  0.00  0.00    +0.000 A 
BRANCH  14  17
ATOM     17  O   UNL     1       1.153   2.419  22.414  0.00  0.00    +0.000 OA
ATOM     18  H   UNL     1       1.859   2.504  23.075  0.00  0.00    +0.000 HD
ENDBRANCH  14  17
ENDBRANCH  10  11
ENDBRANCH   7  10
ENDBRANCH   5   7
BRANCH   1  20
ATOM     19  C   UNL     1       7.687   9.298  17.794  0.00  0.00    +0.000 C 
ATOM     20  O   UNL     1       7.690   8.140  16.965  0.00  0.00    +0.000 OA
ENDBRANCH   1  20
BRANCH   2  21
ATOM     21  O   UNL     1       8.807   7.076  19.115  0.00  0.00    +0.000 OA
ATOM     22  H   UNL     1       8.516   7.488  19.953  0.00  0.00    +0.000 HD
ENDBRANCH   2  21
BRANCH   4  23
ATOM     23  O   UNL     1       5.577   3.634  19.377  0.00  0.00    +0.000 OA
ATOM     24  H   UNL     1       6.100   3.487  20.185  0.00  0.00    +0.000 HD
ENDBRANCH   4  23
BRANCH   6  25
ATOM     25  O   UNL     1       5.442   6.827  15.748  0.00  0.00    +0.000 OA
ATOM     26  H   UNL     1       4.538   6.477  15.639  0.00  0.00    +0.000 HD
ENDBRANCH   6  25
TORSDOF 8
ENDMDL
MODEL 2
REMARK VINA RESULT:      -7.0      2.249      2.689
REMARK  Name = 
REMARK  9 active torsions:
REMARK  status: ('A' for Active; 'I' for Inactive)
REMARK    1  A    between atoms: C_1  and  O_2
REMARK    2  A    between atoms: O_2  and  C_3
REMARK    3  A    between atoms: C_4  and  O_5
REMARK    4  A    between atoms: C_7  and  O_8
REMARK    5  A    between atoms: C_9  and  C_10
REMARK    6  A    between atoms: C_10  and  C_12
REMARK    7  A    between atoms: C_12  and  C_13
REMARK    8  A    between atoms: C_16  and  O_17
REMARK    9  A    between atoms: C_20  and  O_21
REMARK                            x       y       z     vdW  Elec       q    Type
REMARK                         _______ _______ _______ _____ _____    ______ ____
ROOT
ATOM      1  C   UNL     1       6.651   5.569  16.276  0.00  0.00    +0.000 A 
ATOM      2  C   UNL     1       7.161   4.824  17.342  0.00  0.00    +0.000 A 
ATOM      3  C   UNL     1       6.540   4.802  18.580  0.00  0.00    +0.000 A 
ATOM      4  C   UNL     1       5.382   5.557  18.766  0.00  0.00    +0.000 A 
ATOM      5  C   UNL     1       4.818   6.319  17.719  0.00  0.00    +0.000 A 
ATOM      6  C   UNL     1       5.454   6.280  16.459  0.00  0.00    +0.000 A 
ENDROOT
BRANCH   5   7
ATOM      7  C   UNL     1       3.571   7.134  17.982  0.00  0.00    +0.000 C 
ATOM      8  N   UNL     1       3.235   8.144  17.235  0.00  0.00    +0.000 NA
ATOM      9  H   UNL     1       3.902   8.240  16.453  0.00  0.00    +0.000 HD
BRANCH   7  10
ATOM     10  C   UNL     1       2.624   6.777  19.126  0.00  0.00    +0.000 C 
BRANCH  10  11
ATOM     11  C   UNL     1       2.012   5.390  19.059  0.00  0.00    +0.000 A 
ATOM     12  C   UNL     1       1.528   4.724  20.196  0.00  0.00    +0.000 A 
ATOM     13  C   UNL     1       0.999   3.435  20.099  0.00  0.00    +0.000 A 
ATOM     14  C   UNL     1       0.927   2.815  18.856  0.00  0.00    +0.000 A 
ATOM     15  C   UNL     1       1.371   3.464  17.713  0.00  0.00    +0.000 A 
ATOM     16  C   UNL     1       1.907   4.751  17.812  0.00  0.00    +0.000 A 
BRANCH  14  17
ATOM     17  O   UNL     1       0.417   1.559  18.718  0.00  0.00    +0.000 OA
ATOM     18  H   UNL     1       1.108   0.918  18.952  0.00  0.00    +0.000 HD
ENDBRANCH  14  17
ENDBRANCH  10  11
ENDBRANCH   7  10
ENDBRANCH   5   7
BRANCH   1  20
ATOM     19  C   UNL     1       6.883   4.595  14.114  0.00  0.00    +0.000 C 
ATOM     20  O   UNL     1       7.391   5.464  15.122  0.00  0.00    +0.000 OA
ENDBRANCH   1  20
BRANCH   2  21
ATOM     21  O   UNL     1       8.303   4.085  17.188  0.00  0.00    +0.000 OA
ATOM     22  H   UNL     1       9.029   4.738  17.146  0.00  0.00    +0.000 HD
ENDBRANCH   2  21
BRANCH   4  23
ATOM     23  O   UNL     1       4.797   5.539  20.007  0.00  0.00    +0.000 OA
ATOM     24  H   UNL     1       4.993   6.374  20.467  0.00  0.00    +0.000 HD
ENDBRANCH   4  23
BRANCH   6  25
ATOM     25  O   UNL     1       4.904   6.885  15.364  0.00  0.00    +0.000 OA
ATOM     26  H   UNL     1       4.598   7.774  15.624  0.00  0.00    +0.000 HD
ENDBRANCH   6  25
TORSDOF 8
ENDMDL
MODEL 3
REMARK VINA RESULT:      -7.0      2.189      2.956
REMARK  Name = 
REMARK  9 active torsions:
REMARK  status: ('A' for Active; 'I' for Inactive)
REMARK    1  A    between atoms: C_1  and  O_2
REMARK    2  A    between atoms: O_2  and  C_3
REMARK    3  A    between atoms: C_4  and  O_5
REMARK    4  A    between atoms: C_7  and  O_8
REMARK    5  A    between atoms: C_9  and  C_10
REMARK    6  A    between atoms: C_10  and  C_12
REMARK    7  A    between atoms: C_12  and  C_13
REMARK    8  A    between atoms: C_16  and  O_17
REMARK    9  A    between atoms: C_20  and  O_21
REMARK                            x       y       z     vdW  Elec       q    Type
REMARK                         _______ _______ _______ _____ _____    ______ ____
ROOT
ATOM      1  C   UNL     1       6.182   5.274  15.747  0.00  0.00    +0.000 A 
ATOM      2  C   UNL     1       6.970   5.746  16.800  0.00  0.00    +0.000 A 
ATOM      3  C   UNL     1       6.765   5.333  18.106  0.00  0.00    +0.000 A 
ATOM      4  C   UNL     1       5.734   4.433  18.374  0.00  0.00    +0.000 A 
ATOM      5  C   UNL     1       4.916   3.916  17.345  0.00  0.00    +0.000 A 
ATOM      6  C   UNL     1       5.184   4.325  16.021  0.00  0.00    +0.000 A 
ENDROOT
BRANCH   5   7
ATOM      7  C   UNL     1       3.801   2.956  17.696  0.00  0.00    +0.000 C 
ATOM      8  N   UNL     1       4.017   1.690  17.900  0.00  0.00    +0.000 NA
ATOM      9  H   UNL     1       5.029   1.492  17.839  0.00  0.00    +0.000 HD
BRANCH   7  10
ATOM     10  C   UNL     1       2.364   3.446  17.864  0.00  0.00    +0.000 C 
BRANCH  10  11
ATOM     11  C   UNL     1       2.195   4.706  18.691  0.00  0.00    +0.000 A 
ATOM     12  C   UNL     1       2.439   5.987  18.172  0.00  0.00    +0.000 A 
ATOM     13  C   UNL     1       2.302   7.122  18.975  0.00  0.00    +0.000 A 
ATOM     14  C   UNL     1       1.894   6.983  20.297  0.00  0.00    +0.000 A 
ATOM     15  C   UNL     1       1.618   5.729  20.825  0.00  0.00    +0.000 A 
ATOM     16  C   UNL     1       1.762   4.594  20.024  0.00  0.00    +0.000 A 
BRANCH  14  17
ATOM     17  O   UNL     1       1.747   8.064  21.113  0.00  0.00    +0.000 OA
ATOM     18  H   UNL     1       2.418   8.724  20.874  0.00  0.00    +0.000 HD
ENDBRANCH  14  17
ENDBRANCH  10  11
ENDBRANCH   7  10
ENDBRANCH   5   7
BRANCH   1  20
ATOM     19  C   UNL     1       7.334   4.948  13.687  0.00  0.00    +0.000 C 
ATOM     20  O   UNL     1       6.535   5.783  14.519  0.00  0.00    +0.000 OA
ENDBRANCH   1  20
BRANCH   2  21
ATOM     21  O   UNL     1       7.979   6.640  16.564  0.00  0.00    +0.000 OA
ATOM     22  H   UNL     1       8.806   6.148  16.736  0.00  0.00    +0.000 HD
ENDBRANCH   2  21
BRANCH   4  23
ATOM     23  O   UNL     1       5.535   4.056  19.678  0.00  0.00    +0.000 OA
ATOM     24  H   UNL     1       5.246   4.828  20.196  0.00  0.00    +0.000 HD
ENDBRANCH   4  23
BRANCH   6  25
ATOM     25  O   UNL     1       4.524   3.777  14.957  0.00  0.00    +0.000 OA
ATOM     26  H   UNL     1       3.592   3.640  15.210  0.00  0.00    +0.000 HD
ENDBRANCH   6  25
TORSDOF 8
ENDMDL
MODEL 4
REMARK VINA RESULT:      -6.9      2.255      2.793
REMARK  Name = 
REMARK  9 active torsions:
REMARK  status: ('A' for Active; 'I' for Inactive)
REMARK    1  A    between atoms: C_1  and  O_2
REMARK    2  A    between atoms: O_2  and  C_3
REMARK    3  A    between atoms: C_4  and  O_5
REMARK    4  A    between atoms: C_7  and  O_8
REMARK    5  A    between atoms: C_9  and  C_10
REMARK    6  A    between atoms: C_10  and  C_12
REMARK    7  A    between atoms: C_12  and  C_13
REMARK    8  A    between atoms: C_16  and  O_17
REMARK    9  A    between atoms: C_20  and  O_21
REMARK                            x       y       z     vdW  Elec       q    Type
REMARK                         _______ _______ _______ _____ _____    ______ ____
ROOT
ATOM      1  C   UNL     1       6.636   5.581  16.257  0.00  0.00    +0.000 A 
ATOM      2  C   UNL     1       7.148   4.832  17.319  0.00  0.00    +0.000 A 
ATOM      3  C   UNL     1       6.535   4.816  18.561  0.00  0.00    +0.000 A 
ATOM      4  C   UNL     1       5.384   5.578  18.755  0.00  0.00    +0.000 A 
ATOM      5  C   UNL     1       4.818   6.343  17.711  0.00  0.00    +0.000 A 
ATOM      6  C   UNL     1       5.445   6.300  16.447  0.00  0.00    +0.000 A 
ENDROOT
BRANCH   5   7
ATOM      7  C   UNL     1       3.578   7.166  17.982  0.00  0.00    +0.000 C 
ATOM      8  N   UNL     1       3.282   8.221  17.283  0.00  0.00    +0.000 NA
ATOM      9  H   UNL     1       3.973   8.347  16.527  0.00  0.00    +0.000 HD
BRANCH   7  10
ATOM     10  C   UNL     1       2.590   6.765  19.077  0.00  0.00    +0.000 C 
BRANCH  10  11
ATOM     11  C   UNL     1       2.023   5.363  18.964  0.00  0.00    +0.000 A 
ATOM     12  C   UNL     1       1.963   4.670  17.744  0.00  0.00    +0.000 A 
ATOM     13  C   UNL     1       1.405   3.391  17.675  0.00  0.00    +0.000 A 
ATOM     14  C   UNL     1       0.928   2.787  18.832  0.00  0.00    +0.000 A 
ATOM     15  C   UNL     1       1.003   3.439  20.055  0.00  0.00    +0.000 A 
ATOM     16  C   UNL     1       1.555   4.721  20.123  0.00  0.00    +0.000 A 
BRANCH  14  17
ATOM     17  O   UNL     1       0.378   1.541  18.808  0.00  0.00    +0.000 OA
ATOM     18  H   UNL     1      -0.013   1.359  19.678  0.00  0.00    +0.000 HD
ENDBRANCH  14  17
ENDBRANCH  10  11
ENDBRANCH   7  10
ENDBRANCH   5   7
BRANCH   1  20
ATOM     19  C   UNL     1       6.868   4.574  14.109  0.00  0.00    +0.000 C 
ATOM     20  O   UNL     1       7.367   5.471  15.097  0.00  0.00    +0.000 OA
ENDBRANCH   1  20
BRANCH   2  21
ATOM     21  O   UNL     1       8.284   4.086  17.158  0.00  0.00    +0.000 OA
ATOM     22  H   UNL     1       7.983   3.237  16.778  0.00  0.00    +0.000 HD
ENDBRANCH   2  21
BRANCH   4  23
ATOM     23  O   UNL     1       4.807   5.564  19.999  0.00  0.00    +0.000 OA
ATOM     24  H   UNL     1       4.199   4.806  20.064  0.00  0.00    +0.000 HD
ENDBRANCH   4  23
BRANCH   6  25
ATOM     25  O   UNL     1       4.892   6.908  15.355  0.00  0.00    +0.000 OA
ATOM     26  H   UNL     1       5.224   7.823  15.311  0.00  0.00    +0.000 HD
ENDBRANCH   6  25
TORSDOF 8
ENDMDL
MODEL 5
REMARK VINA RESULT:      -6.9      2.049      2.515
REMARK  Name = 
REMARK  9 active torsions:
REMARK  status: ('A' for Active; 'I' for Inactive)
REMARK    1  A    between atoms: C_1  and  O_2
REMARK    2  A    between atoms: O_2  and  C_3
REMARK    3  A    between atoms: C_4  and  O_5
REMARK    4  A    between atoms: C_7  and  O_8
REMARK    5  A    between atoms: C_9  and  C_10
REMARK    6  A    between atoms: C_10  and  C_12
REMARK    7  A    between atoms: C_12  and  C_13
REMARK    8  A    between atoms: C_16  and  O_17
REMARK    9  A    between atoms: C_20  and  O_21
REMARK                            x       y       z     vdW  Elec       q    Type
REMARK                         _______ _______ _______ _____ _____    ______ ____
ROOT
ATOM      1  C   UNL     1       6.722   5.440  16.270  0.00  0.00    +0.000 A 
ATOM      2  C   UNL     1       7.250   4.763  17.373  0.00  0.00    +0.000 A 
ATOM      3  C   UNL     1       6.585   4.719  18.587  0.00  0.00    +0.000 A 
ATOM      4  C   UNL     1       5.364   5.381  18.712  0.00  0.00    +0.000 A 
ATOM      5  C   UNL     1       4.781   6.069  17.626  0.00  0.00    +0.000 A 
ATOM      6  C   UNL     1       5.465   6.054  16.391  0.00  0.00    +0.000 A 
ENDROOT
BRANCH   5   7
ATOM      7  C   UNL     1       3.463   6.785  17.822  0.00  0.00    +0.000 C 
ATOM      8  N   UNL     1       3.393   8.073  17.986  0.00  0.00    +0.000 NA
ATOM      9  H   UNL     1       4.334   8.489  17.904  0.00  0.00    +0.000 HD
BRANCH   7  10
ATOM     10  C   UNL     1       2.140   6.020  17.799  0.00  0.00    +0.000 C 
BRANCH  10  11
ATOM     11  C   UNL     1       1.965   4.983  18.891  0.00  0.00    +0.000 A 
ATOM     12  C   UNL     1       1.928   3.605  18.623  0.00  0.00    +0.000 A 
ATOM     13  C   UNL     1       1.735   2.681  19.653  0.00  0.00    +0.000 A 
ATOM     14  C   UNL     1       1.604   3.130  20.962  0.00  0.00    +0.000 A 
ATOM     15  C   UNL     1       1.667   4.485  21.256  0.00  0.00    +0.000 A 
ATOM     16  C   UNL     1       1.853   5.409  20.225  0.00  0.00    +0.000 A 
BRANCH  14  17
ATOM     17  O   UNL     1       1.415   2.262  21.995  0.00  0.00    +0.000 OA
ATOM     18  H   UNL     1       1.924   1.455  21.817  0.00  0.00    +0.000 HD
ENDBRANCH  14  17
ENDBRANCH  10  11
ENDBRANCH   7  10
ENDBRANCH   5   7
BRANCH   1  20
ATOM     19  C   UNL     1       7.039   4.549  14.083  0.00  0.00    +0.000 C 
ATOM     20  O   UNL     1       7.511   5.370  15.146  0.00  0.00    +0.000 OA
ENDBRANCH   1  20
BRANCH   2  21
ATOM     21  O   UNL     1       8.453   4.118  17.279  0.00  0.00    +0.000 OA
ATOM     22  H   UNL     1       8.949   4.595  16.585  0.00  0.00    +0.000 HD
ENDBRANCH   2  21
BRANCH   4  23
ATOM     23  O   UNL     1       4.735   5.342  19.930  0.00  0.00    +0.000 OA
ATOM     24  H   UNL     1       3.979   4.731  19.883  0.00  0.00    +0.000 HD
ENDBRANCH   4  23
BRANCH   6  25
ATOM     25  O   UNL     1       4.910   6.587  15.261  0.00  0.00    +0.000 OA
ATOM     26  H   UNL     1       4.161   7.154  15.523  0.00  0.00    +0.000 HD
ENDBRANCH   6  25
TORSDOF 8
ENDMDL
MODEL 6
REMARK VINA RESULT:      -6.9      2.364      3.335
REMARK  Name = 
REMARK  9 active torsions:
REMARK  status: ('A' for Active; 'I' for Inactive)
REMARK    1  A    between atoms: C_1  and  O_2
REMARK    2  A    between atoms: O_2  and  C_3
REMARK    3  A    between atoms: C_4  and  O_5
REMARK    4  A    between atoms: C_7  and  O_8
REMARK    5  A    between atoms: C_9  and  C_10
REMARK    6  A    between atoms: C_10  and  C_12
REMARK    7  A    between atoms: C_12  and  C_13
REMARK    8  A    between atoms: C_16  and  O_17
REMARK    9  A    between atoms: C_20  and  O_21
REMARK                            x       y       z     vdW  Elec       q    Type
REMARK                         _______ _______ _______ _____ _____    ______ ____
ROOT
ATOM      1  C   UNL     1       6.217   5.467  16.141  0.00  0.00    +0.000 A 
ATOM      2  C   UNL     1       7.164   6.168  16.893  0.00  0.00    +0.000 A 
ATOM      3  C   UNL     1       7.270   6.006  18.264  0.00  0.00    +0.000 A 
ATOM      4  C   UNL     1       6.398   5.130  18.909  0.00  0.00    +0.000 A 
ATOM      5  C   UNL     1       5.431   4.388  18.196  0.00  0.00    +0.000 A 
ATOM      6  C   UNL     1       5.382   4.545  16.794  0.00  0.00    +0.000 A 
ENDROOT
BRANCH   5   7
ATOM      7  C   UNL     1       4.499   3.465  18.949  0.00  0.00    +0.000 C 
ATOM      8  N   UNL     1       4.936   2.448  19.632  0.00  0.00    +0.000 NA
ATOM      9  H   UNL     1       5.968   2.427  19.610  0.00  0.00    +0.000 HD
BRANCH   7  10
ATOM     10  C   UNL     1       2.992   3.714  18.972  0.00  0.00    +0.000 C 
BRANCH  10  11
ATOM     11  C   UNL     1       2.571   5.152  19.209  0.00  0.00    +0.000 A 
ATOM     12  C   UNL     1       2.658   6.136  18.212  0.00  0.00    +0.000 A 
ATOM     13  C   UNL     1       2.288   7.457  18.478  0.00  0.00    +0.000 A 
ATOM     14  C   UNL     1       1.804   7.795  19.737  0.00  0.00    +0.000 A 
ATOM     15  C   UNL     1       1.681   6.832  20.730  0.00  0.00    +0.000 A 
ATOM     16  C   UNL     1       2.057   5.513  20.466  0.00  0.00    +0.000 A 
BRANCH  14  17
ATOM     17  O   UNL     1       1.432   9.071  20.037  0.00  0.00    +0.000 OA
ATOM     18  H   UNL     1       1.998   9.682  19.538  0.00  0.00    +0.000 HD
ENDBRANCH  14  17
ENDBRANCH  10  11
ENDBRANCH   7  10
ENDBRANCH   5   7
BRANCH   1  20
ATOM     19  C   UNL     1       6.943   4.803  13.971  0.00  0.00    +0.000 C 
ATOM     20  O   UNL     1       6.262   5.744  14.795  0.00  0.00    +0.000 OA
ENDBRANCH   1  20
BRANCH   2  21
ATOM     21  O   UNL     1       8.022   7.044  16.284  0.00  0.00    +0.000 OA
ATOM     22  H   UNL     1       8.871   6.565  16.213  0.00  0.00    +0.000 HD
ENDBRANCH   2  21
BRANCH   4  23
ATOM     23  O   UNL     1       6.507   5.003  20.271  0.00  0.00    +0.000 OA
ATOM     24  H   UNL     1       6.729   5.868  20.658  0.00  0.00    +0.000 HD
ENDBRANCH   4  23
BRANCH   6  25
ATOM     25  O   UNL     1       4.564   3.773  16.017  0.00  0.00    +0.000 OA
ATOM     26  H   UNL     1       4.878   2.850  16.063  0.00  0.00    +0.000 HD
ENDBRANCH   6  25
TORSDOF 8
ENDMDL
MODEL 7
REMARK VINA RESULT:      -6.9      2.055      2.311
REMARK  Name = 
REMARK  9 active torsions:
REMARK  status: ('A' for Active; 'I' for Inactive)
REMARK    1  A    between atoms: C_1  and  O_2
REMARK    2  A    between atoms: O_2  and  C_3
REMARK    3  A    between atoms: C_4  and  O_5
REMARK    4  A    between atoms: C_7  and  O_8
REMARK    5  A    between atoms: C_9  and  C_10
REMARK    6  A    between atoms: C_10  and  C_12
REMARK    7  A    between atoms: C_12  and  C_13
REMARK    8  A    between atoms: C_16  and  O_17
REMARK    9  A    between atoms: C_20  and  O_21
REMARK                            x       y       z     vdW  Elec       q    Type
REMARK                         _______ _______ _______ _____ _____    ______ ____
ROOT
ATOM      1  C   UNL     1       6.737   5.450  16.249  0.00  0.00    +0.000 A 
ATOM      2  C   UNL     1       7.264   4.771  17.350  0.00  0.00    +0.000 A 
ATOM      3  C   UNL     1       6.603   4.729  18.567  0.00  0.00    +0.000 A 
ATOM      4  C   UNL     1       5.385   5.396  18.695  0.00  0.00    +0.000 A 
ATOM      5  C   UNL     1       4.802   6.087  17.610  0.00  0.00    +0.000 A 
ATOM      6  C   UNL     1       5.483   6.070  16.374  0.00  0.00    +0.000 A 
ENDROOT
BRANCH   5   7
ATOM      7  C   UNL     1       3.487   6.808  17.811  0.00  0.00    +0.000 C 
ATOM      8  N   UNL     1       3.422   8.098  17.962  0.00  0.00    +0.000 NA
ATOM      9  H   UNL     1       4.364   8.511  17.868  0.00  0.00    +0.000 HD
BRANCH   7  10
ATOM     10  C   UNL     1       2.163   6.047  17.806  0.00  0.00    +0.000 C 
BRANCH  10  11
ATOM     11  C   UNL     1       1.970   5.064  18.944  0.00  0.00    +0.000 A 
ATOM     12  C   UNL     1       1.837   5.473  20.280  0.00  0.00    +0.000 A 
ATOM     13  C   UNL     1       1.691   4.535  21.305  0.00  0.00    +0.000 A 
ATOM     14  C   UNL     1       1.651   3.181  20.995  0.00  0.00    +0.000 A 
ATOM     15  C   UNL     1       1.751   2.752  19.678  0.00  0.00    +0.000 A 
ATOM     16  C   UNL     1       1.903   3.690  18.654  0.00  0.00    +0.000 A 
BRANCH  14  17
ATOM     17  O   UNL     1       1.510   2.234  21.964  0.00  0.00    +0.000 OA
ATOM     18  H   UNL     1       2.387   2.029  22.326  0.00  0.00    +0.000 HD
ENDBRANCH  14  17
ENDBRANCH  10  11
ENDBRANCH   7  10
ENDBRANCH   5   7
BRANCH   1  20
ATOM     19  C   UNL     1       7.047   4.552  14.064  0.00  0.00    +0.000 C 
ATOM     20  O   UNL     1       7.523   5.377  15.123  0.00  0.00    +0.000 OA
ENDBRANCH   1  20
BRANCH   2  21
ATOM     21  O   UNL     1       8.465   4.120  17.254  0.00  0.00    +0.000 OA
ATOM     22  H   UNL     1       8.976   4.620  16.587  0.00  0.00    +0.000 HD
ENDBRANCH   2  21
BRANCH   4  23
ATOM     23  O   UNL     1       4.759   5.360  19.915  0.00  0.00    +0.000 OA
ATOM     24  H   UNL     1       4.551   4.437  20.143  0.00  0.00    +0.000 HD
ENDBRANCH   4  23
BRANCH   6  25
ATOM     25  O   UNL     1       4.927   6.605  15.246  0.00  0.00    +0.000 OA
ATOM     26  H   UNL     1       5.283   6.129  14.472  0.00  0.00    +0.000 HD
ENDBRANCH   6  25
TORSDOF 8
ENDMDL
MODEL 8
REMARK VINA RESULT:      -6.8      2.194      2.978
REMARK  Name = 
REMARK  9 active torsions:
REMARK  status: ('A' for Active; 'I' for Inactive)
REMARK    1  A    between atoms: C_1  and  O_2
REMARK    2  A    between atoms: O_2  and  C_3
REMARK    3  A    between atoms: C_4  and  O_5
REMARK    4  A    between atoms: C_7  and  O_8
REMARK    5  A    between atoms: C_9  and  C_10
REMARK    6  A    between atoms: C_10  and  C_12
REMARK    7  A    between atoms: C_12  and  C_13
REMARK    8  A    between atoms: C_16  and  O_17
REMARK    9  A    between atoms: C_20  and  O_21
REMARK                            x       y       z     vdW  Elec       q    Type
REMARK                         _______ _______ _______ _____ _____    ______ ____
ROOT
ATOM      1  C   UNL     1       6.179   5.274  15.798  0.00  0.00    +0.000 A 
ATOM      2  C   UNL     1       6.965   5.733  16.858  0.00  0.00    +0.000 A 
ATOM      3  C   UNL     1       6.750   5.312  18.160  0.00  0.00    +0.000 A 
ATOM      4  C   UNL     1       5.712   4.417  18.416  0.00  0.00    +0.000 A 
ATOM      5  C   UNL     1       4.896   3.913  17.379  0.00  0.00    +0.000 A 
ATOM      6  C   UNL     1       5.174   4.330  16.060  0.00  0.00    +0.000 A 
ENDROOT
BRANCH   5   7
ATOM      7  C   UNL     1       3.772   2.958  17.717  0.00  0.00    +0.000 C 
ATOM      8  N   UNL     1       3.978   1.688  17.903  0.00  0.00    +0.000 NA
ATOM      9  H   UNL     1       4.987   1.481  17.838  0.00  0.00    +0.000 HD
BRANCH   7  10
ATOM     10  C   UNL     1       2.340   3.458  17.893  0.00  0.00    +0.000 C 
BRANCH  10  11
ATOM     11  C   UNL     1       2.179   4.686  18.768  0.00  0.00    +0.000 A 
ATOM     12  C   UNL     1       1.771   4.608  20.109  0.00  0.00    +0.000 A 
ATOM     13  C   UNL     1       1.605   5.765  20.875  0.00  0.00    +0.000 A 
ATOM     14  C   UNL     1       1.872   7.007  20.309  0.00  0.00    +0.000 A 
ATOM     15  C   UNL     1       2.304   7.108  18.995  0.00  0.00    +0.000 A 
ATOM     16  C   UNL     1       2.464   5.952  18.227  0.00  0.00    +0.000 A 
BRANCH  14  17
ATOM     17  O   UNL     1       1.723   8.158  21.022  0.00  0.00    +0.000 OA
ATOM     18  H   UNL     1       1.132   8.752  20.530  0.00  0.00    +0.000 HD
ENDBRANCH  14  17
ENDBRANCH  10  11
ENDBRANCH   7  10
ENDBRANCH   5   7
BRANCH   1  20
ATOM     19  C   UNL     1       7.323   4.947  13.733  0.00  0.00    +0.000 C 
ATOM     20  O   UNL     1       6.542   5.789  14.575  0.00  0.00    +0.000 OA
ENDBRANCH   1  20
BRANCH   2  21
ATOM     21  O   UNL     1       7.982   6.622  16.634  0.00  0.00    +0.000 OA
ATOM     22  H   UNL     1       8.321   6.854  17.521  0.00  0.00    +0.000 HD
ENDBRANCH   2  21
BRANCH   4  23
ATOM     23  O   UNL     1       5.503   4.032  19.716  0.00  0.00    +0.000 OA
ATOM     24  H   UNL     1       5.547   3.061  19.775  0.00  0.00    +0.000 HD
ENDBRANCH   4  23
BRANCH   6  25
ATOM     25  O   UNL     1       4.515   3.794  14.988  0.00  0.00    +0.000 OA
ATOM     26  H   UNL     1       3.639   4.217  14.922  0.00  0.00    +0.000 HD
ENDBRANCH   6  25
TORSDOF 8
ENDMDL
MODEL 9
REMARK VINA RESULT:      -6.8      3.390      4.036
REMARK  Name = 
REMARK  9 active torsions:
REMARK  status: ('A' for Active; 'I' for Inactive)
REMARK    1  A    between atoms: C_1  and  O_2
REMARK    2  A    between atoms: O_2  and  C_3
REMARK    3  A    between atoms: C_4  and  O_5
REMARK    4  A    between atoms: C_7  and  O_8
REMARK    5  A    between atoms: C_9  and  C_10
REMARK    6  A    between atoms: C_10  and  C_12
REMARK    7  A    between atoms: C_12  and  C_13
REMARK    8  A    between atoms: C_16  and  O_17
REMARK    9  A    between atoms: C_20  and  O_21
REMARK                            x       y       z     vdW  Elec       q    Type
REMARK                         _______ _______ _______ _____ _____    ______ ____
ROOT
ATOM      1  C   UNL     1       6.585   5.518  16.567  0.00  0.00    +0.000 A 
ATOM      2  C   UNL     1       6.982   4.695  17.624  0.00  0.00    +0.000 A 
ATOM      3  C   UNL     1       6.148   4.435  18.698  0.00  0.00    +0.000 A 
ATOM      4  C   UNL     1       4.884   5.023  18.728  0.00  0.00    +0.000 A 
ATOM      5  C   UNL     1       4.428   5.853  17.680  0.00  0.00    +0.000 A 
ATOM      6  C   UNL     1       5.289   6.059  16.581  0.00  0.00    +0.000 A 
ENDROOT
BRANCH   5   7
ATOM      7  C   UNL     1       3.055   6.479  17.773  0.00  0.00    +0.000 C 
ATOM      8  N   UNL     1       1.970   5.764  17.807  0.00  0.00    +0.000 NA
ATOM      9  H   UNL     1       2.210   4.760  17.815  0.00  0.00    +0.000 HD
BRANCH   7  10
ATOM     10  C   UNL     1       2.885   7.994  17.872  0.00  0.00    +0.000 C 
BRANCH  10  11
ATOM     11  C   UNL     1       1.966   8.478  18.977  0.00  0.00    +0.000 A 
ATOM     12  C   UNL     1       1.920   7.868  20.241  0.00  0.00    +0.000 A 
ATOM     13  C   UNL     1       1.038   8.323  21.224  0.00  0.00    +0.000 A 
ATOM     14  C   UNL     1       0.214   9.410  20.956  0.00  0.00    +0.000 A 
ATOM     15  C   UNL     1       0.262  10.049  19.725  0.00  0.00    +0.000 A 
ATOM     16  C   UNL     1       1.139   9.589  18.740  0.00  0.00    +0.000 A 
BRANCH  14  17
ATOM     17  O   UNL     1      -0.659   9.886  21.887  0.00  0.00    +0.000 OA
ATOM     18  H   UNL     1      -0.249  10.643  22.336  0.00  0.00    +0.000 HD
ENDBRANCH  14  17
ENDBRANCH  10  11
ENDBRANCH   7  10
ENDBRANCH   5   7
BRANCH   1  20
ATOM     19  C   UNL     1       7.321   4.926  14.379  0.00  0.00    +0.000 C 
ATOM     20  O   UNL     1       7.536   5.655  15.583  0.00  0.00    +0.000 OA
ENDBRANCH   1  20
BRANCH   2  21
ATOM     21  O   UNL     1       8.223   4.117  17.624  0.00  0.00    +0.000 OA
ATOM     22  H   UNL     1       8.321   3.717  18.511  0.00  0.00    +0.000 HD
ENDBRANCH   2  21
BRANCH   4  23
ATOM     23  O   UNL     1       4.084   4.769  19.813  0.00  0.00    +0.000 OA
ATOM     24  H   UNL     1       3.436   4.080  19.581  0.00  0.00    +0.000 HD
ENDBRANCH   4  23
BRANCH   6  25
ATOM     25  O   UNL     1       4.878   6.743  15.471  0.00  0.00    +0.000 OA
ATOM     26  H   UNL     1       3.971   6.459  15.252  0.00  0.00    +0.000 HD
ENDBRANCH   6  25
TORSDOF 8
ENDMDL
