MODEL 1
REMARK VINA RESULT:      -7.5      0.000      0.000
REMARK  Name = 
REMARK  5 active torsions:
REMARK  status: ('A' for Active; 'I' for Inactive)
REMARK    1  A    between atoms: C_1  and  O_2
REMARK    2  A    between atoms: O_2  and  C_3
REMARK    3  A    between atoms: C_6  and  C_7
REMARK    4  A    between atoms: C_7  and  C_9
REMARK    5  A    between atoms: C_9  and  N_10
REMARK                            x       y       z     vdW  Elec       q    Type
REMARK                         _______ _______ _______ _____ _____    ______ ____
ROOT
ATOM      1  N   UNL     1       5.179   5.048  18.820  0.00  0.00    +0.000 N 
ATOM      2  C   UNL     1       6.466   5.497  19.054  0.00  0.00    +0.000 C 
ATOM      3  O   UNL     1       7.164   5.441  20.047  0.00  0.00    +0.000 OA
ATOM      4  C   UNL     1       7.001   5.974  17.723  0.00  0.00    +0.000 C 
ATOM      5  O   UNL     1       7.948   6.705  17.546  0.00  0.00    +0.000 OA
ATOM      6  C   UNL     1       6.154   5.335  16.743  0.00  0.00    +0.000 A 
ATOM      7  C   UNL     1       6.511   5.217  15.412  0.00  0.00    +0.000 A 
ATOM      8  C   UNL     1       5.808   4.289  14.679  0.00  0.00    +0.000 A 
ATOM      9 BR   UNL     1       6.410   3.881  12.935  0.00  0.00    +0.000 Br
ATOM     10  C   UNL     1       4.740   3.586  15.275  0.00  0.00    +0.000 A 
ATOM     11  C   UNL     1       4.350   3.810  16.635  0.00  0.00    +0.000 A 
ATOM     12 BR   UNL     1       2.995   2.684  17.307  0.00  0.00    +0.000 Br
ATOM     13  C   UNL     1       5.087   4.705  17.410  0.00  0.00    +0.000 A 
ENDROOT
BRANCH   1  14
ATOM     14  C   UNL     1       4.326   4.850  19.982  0.00  0.00    +0.000 C 
BRANCH  14  15
ATOM     15  C   UNL     1       2.847   5.361  19.819  0.00  0.00    +0.000 C 
ATOM     16  O   UNL     1       1.922   4.567  20.027  0.00  0.00    +0.000 OA
BRANCH  15  20
ATOM     17  C   UNL     1       1.538   9.418  18.686  0.00  0.00    +0.000 A 
ATOM     18  C   UNL     1       1.323   8.900  19.961  0.00  0.00    +0.000 A 
ATOM     19  C   UNL     1       1.774   7.606  20.312  0.00  0.00    +0.000 A 
ATOM     20  C   UNL     1       2.457   6.784  19.390  0.00  0.00    +0.000 A 
ATOM     21  C   UNL     1       2.698   7.350  18.135  0.00  0.00    +0.000 A 
ATOM     22  C   UNL     1       2.215   8.630  17.769  0.00  0.00    +0.000 A 
BRANCH  17  24
ATOM     23  C   UNL     1      -0.025  11.117  19.312  0.00  0.00    +0.000 C 
ATOM     24  O   UNL     1       1.033  10.667  18.459  0.00  0.00    +0.000 OA
ENDBRANCH  17  24
ENDBRANCH  15  20
ENDBRANCH  14  15
ENDBRANCH   1  14
TORSDOF 4
ENDMDL
MODEL 2
REMARK VINA RESULT:      -6.9      2.861      6.981
REMARK  Name = 
REMARK  5 active torsions:
REMARK  status: ('A' for Active; 'I' for Inactive)
REMARK    1  A    between atoms: C_1  and  O_2
REMARK    2  A    between atoms: O_2  and  C_3
REMARK    3  A    between atoms: C_6  and  C_7
REMARK    4  A    between atoms: C_7  and  C_9
REMARK    5  A    between atoms: C_9  and  N_10
REMARK                            x       y       z     vdW  Elec       q    Type
REMARK                         _______ _______ _______ _____ _____    ______ ____
ROOT
ATOM      1  N   UNL     1       3.272   3.966  19.054  0.00  0.00    +0.000 N 
ATOM      2  C   UNL     1       3.248   3.244  20.234  0.00  0.00    +0.000 C 
ATOM      3  O   UNL     1       3.992   2.382  20.659  0.00  0.00    +0.000 OA
ATOM      4  C   UNL     1       2.150   3.846  21.081  0.00  0.00    +0.000 C 
ATOM      5  O   UNL     1       1.609   3.332  22.032  0.00  0.00    +0.000 OA
ATOM      6  C   UNL     1       1.939   5.160  20.518  0.00  0.00    +0.000 A 
ATOM      7  C   UNL     1       1.284   6.168  21.203  0.00  0.00    +0.000 A 
ATOM      8  C   UNL     1       1.470   7.443  20.721  0.00  0.00    +0.000 A 
ATOM      9 BR   UNL     1       0.828   8.893  21.750  0.00  0.00    +0.000 Br
ATOM     10  C   UNL     1       2.224   7.647  19.546  0.00  0.00    +0.000 A 
ATOM     11  C   UNL     1       2.808   6.559  18.823  0.00  0.00    +0.000 A 
ATOM     12 BR   UNL     1       3.900   7.027  17.357  0.00  0.00    +0.000 Br
ATOM     13  C   UNL     1       2.679   5.265  19.327  0.00  0.00    +0.000 A 
ENDROOT
BRANCH   1  14
ATOM     14  C   UNL     1       4.001   3.384  17.938  0.00  0.00    +0.000 C 
BRANCH  14  15
ATOM     15  C   UNL     1       5.448   3.959  17.714  0.00  0.00    +0.000 C 
ATOM     16  O   UNL     1       6.160   4.168  18.704  0.00  0.00    +0.000 OA
BRANCH  15  20
ATOM     17  C   UNL     1       7.157   4.758  13.728  0.00  0.00    +0.000 A 
ATOM     18  C   UNL     1       6.088   3.884  13.913  0.00  0.00    +0.000 A 
ATOM     19  C   UNL     1       5.538   3.662  15.197  0.00  0.00    +0.000 A 
ATOM     20  C   UNL     1       6.046   4.310  16.344  0.00  0.00    +0.000 A 
ATOM     21  C   UNL     1       7.086   5.216  16.118  0.00  0.00    +0.000 A 
ATOM     22  C   UNL     1       7.663   5.413  14.839  0.00  0.00    +0.000 A 
BRANCH  17  24
ATOM     23  C   UNL     1       7.092   3.961  11.473  0.00  0.00    +0.000 C 
ATOM     24  O   UNL     1       7.618   4.870  12.446  0.00  0.00    +0.000 OA
ENDBRANCH  17  24
ENDBRANCH  15  20
ENDBRANCH  14  15
ENDBRANCH   1  14
TORSDOF 4
ENDMDL
MODEL 3
REMARK VINA RESULT:      -6.8      2.854      6.222
REMARK  Name = 
REMARK  5 active torsions:
REMARK  status: ('A' for Active; 'I' for Inactive)
REMARK    1  A    between atoms: C_1  and  O_2
REMARK    2  A    between atoms: O_2  and  C_3
REMARK    3  A    between atoms: C_6  and  C_7
REMARK    4  A    between atoms: C_7  and  C_9
REMARK    5  A    between atoms: C_9  and  N_10
REMARK                            x       y       z     vdW  Elec       q    Type
REMARK                         _______ _______ _______ _____ _____    ______ ____
ROOT
ATOM      1  N   UNL     1       2.900   4.366  18.413  0.00  0.00    +0.000 N 
ATOM      2  C   UNL     1       3.057   3.495  19.476  0.00  0.00    +0.000 C 
ATOM      3  O   UNL     1       3.829   2.573  19.647  0.00  0.00    +0.000 OA
ATOM      4  C   UNL     1       2.150   3.998  20.576  0.00  0.00    +0.000 C 
ATOM      5  O   UNL     1       1.764   3.370  21.536  0.00  0.00    +0.000 OA
ATOM      6  C   UNL     1       1.894   5.377  20.232  0.00  0.00    +0.000 A 
ATOM      7  C   UNL     1       1.409   6.296  21.145  0.00  0.00    +0.000 A 
ATOM      8  C   UNL     1       1.556   7.620  20.805  0.00  0.00    +0.000 A 
ATOM      9 BR   UNL     1       1.163   8.931  22.108  0.00  0.00    +0.000 Br
ATOM     10  C   UNL     1       2.100   7.966  19.549  0.00  0.00    +0.000 A 
ATOM     11  C   UNL     1       2.505   6.974  18.600  0.00  0.00    +0.000 A 
ATOM     12 BR   UNL     1       3.339   7.614  17.034  0.00  0.00    +0.000 Br
ATOM     13  C   UNL     1       2.416   5.628  18.950  0.00  0.00    +0.000 A 
ENDROOT
BRANCH   1  14
ATOM     14  C   UNL     1       3.399   3.926  17.119  0.00  0.00    +0.000 C 
BRANCH  14  15
ATOM     15  C   UNL     1       4.966   3.911  16.977  0.00  0.00    +0.000 C 
ATOM     16  O   UNL     1       5.496   2.960  16.390  0.00  0.00    +0.000 OA
BRANCH  15  20
ATOM     17  C   UNL     1       7.770   6.997  18.414  0.00  0.00    +0.000 A 
ATOM     18  C   UNL     1       7.249   7.015  17.122  0.00  0.00    +0.000 A 
ATOM     19  C   UNL     1       6.331   6.029  16.690  0.00  0.00    +0.000 A 
ATOM     20  C   UNL     1       5.904   4.988  17.542  0.00  0.00    +0.000 A 
ATOM     21  C   UNL     1       6.408   5.025  18.845  0.00  0.00    +0.000 A 
ATOM     22  C   UNL     1       7.356   5.989  19.269  0.00  0.00    +0.000 A 
BRANCH  17  24
ATOM     23  C   UNL     1       8.417   9.286  18.165  0.00  0.00    +0.000 C 
ATOM     24  O   UNL     1       8.667   7.985  18.706  0.00  0.00    +0.000 OA
ENDBRANCH  17  24
ENDBRANCH  15  20
ENDBRANCH  14  15
ENDBRANCH   1  14
TORSDOF 4
ENDMDL
MODEL 4
REMARK VINA RESULT:      -6.3      4.345      8.534
REMARK  Name = 
REMARK  5 active torsions:
REMARK  status: ('A' for Active; 'I' for Inactive)
REMARK    1  A    between atoms: C_1  and  O_2
REMARK    2  A    between atoms: O_2  and  C_3
REMARK    3  A    between atoms: C_6  and  C_7
REMARK    4  A    between atoms: C_7  and  C_9
REMARK    5  A    between atoms: C_9  and  N_10
REMARK                            x       y       z     vdW  Elec       q    Type
REMARK                         _______ _______ _______ _____ _____    ______ ____
ROOT
ATOM      1  N   UNL     1      -0.439   9.899  21.408  0.00  0.00    +0.000 N 
ATOM      2  C   UNL     1      -0.507  10.427  22.684  0.00  0.00    +0.000 C 
ATOM      3  O   UNL     1      -0.093  10.007  23.747  0.00  0.00    +0.000 OA
ATOM      4  C   UNL     1      -1.087  11.816  22.541  0.00  0.00    +0.000 C 
ATOM      5  O   UNL     1      -1.585  12.484  23.418  0.00  0.00    +0.000 OA
ATOM      6  C   UNL     1      -0.874  12.155  21.154  0.00  0.00    +0.000 A 
ATOM      7  C   UNL     1      -0.930  13.456  20.686  0.00  0.00    +0.000 A 
ATOM      8  C   UNL     1      -0.359  13.679  19.455  0.00  0.00    +0.000 A 
ATOM      9 BR   UNL     1      -0.160  15.465  18.869  0.00  0.00    +0.000 Br
ATOM     10  C   UNL     1       0.163  12.597  18.716  0.00  0.00    +0.000 A 
ATOM     11  C   UNL     1       0.117  11.252  19.206  0.00  0.00    +0.000 A 
ATOM     12 BR   UNL     1       0.987   9.953  18.151  0.00  0.00    +0.000 Br
ATOM     13  C   UNL     1      -0.406  11.014  20.476  0.00  0.00    +0.000 A 
ENDROOT
BRANCH   1  14
ATOM     14  C   UNL     1      -0.235   8.462  21.298  0.00  0.00    +0.000 C 
BRANCH  14  15
ATOM     15  C   UNL     1       1.268   8.006  21.206  0.00  0.00    +0.000 C 
ATOM     16  O   UNL     1       2.120   8.654  21.826  0.00  0.00    +0.000 OA
BRANCH  15  20
ATOM     17  C   UNL     1       2.752   4.486  19.003  0.00  0.00    +0.000 A 
ATOM     18  C   UNL     1       1.915   4.366  20.111  0.00  0.00    +0.000 A 
ATOM     19  C   UNL     1       1.430   5.510  20.787  0.00  0.00    +0.000 A 
ATOM     20  C   UNL     1       1.770   6.816  20.375  0.00  0.00    +0.000 A 
ATOM     21  C   UNL     1       2.571   6.902  19.233  0.00  0.00    +0.000 A 
ATOM     22  C   UNL     1       3.089   5.759  18.575  0.00  0.00    +0.000 A 
BRANCH  17  24
ATOM     23  C   UNL     1       2.176   2.380  18.024  0.00  0.00    +0.000 C 
ATOM     24  O   UNL     1       3.176   3.310  18.451  0.00  0.00    +0.000 OA
ENDBRANCH  17  24
ENDBRANCH  15  20
ENDBRANCH  14  15
ENDBRANCH   1  14
TORSDOF 4
ENDMDL
MODEL 5
REMARK VINA RESULT:      -6.3      4.948      9.720
REMARK  Name = 
REMARK  5 active torsions:
REMARK  status: ('A' for Active; 'I' for Inactive)
REMARK    1  A    between atoms: C_1  and  O_2
REMARK    2  A    between atoms: O_2  and  C_3
REMARK    3  A    between atoms: C_6  and  C_7
REMARK    4  A    between atoms: C_7  and  C_9
REMARK    5  A    between atoms: C_9  and  N_10
REMARK                            x       y       z     vdW  Elec       q    Type
REMARK                         _______ _______ _______ _____ _____    ______ ____
ROOT
ATOM      1  N   UNL     1      -1.209  12.240  19.668  0.00  0.00    +0.000 N 
ATOM      2  C   UNL     1      -1.315  13.479  20.273  0.00  0.00    +0.000 C 
ATOM      3  O   UNL     1      -0.524  14.397  20.359  0.00  0.00    +0.000 OA
ATOM      4  C   UNL     1      -2.752  13.612  20.725  0.00  0.00    +0.000 C 
ATOM      5  O   UNL     1      -3.181  14.389  21.546  0.00  0.00    +0.000 OA
ATOM      6  C   UNL     1      -3.470  12.640  19.934  0.00  0.00    +0.000 A 
ATOM      7  C   UNL     1      -4.844  12.677  19.774  0.00  0.00    +0.000 A 
ATOM      8  C   UNL     1      -5.349  11.940  18.729  0.00  0.00    +0.000 A 
ATOM      9 BR   UNL     1      -7.175  12.149  18.284  0.00  0.00    +0.000 Br
ATOM     10  C   UNL     1      -4.485  11.144  17.948  0.00  0.00    +0.000 A 
ATOM     11  C   UNL     1      -3.080  11.070  18.210  0.00  0.00    +0.000 A 
ATOM     12 BR   UNL     1      -2.057  10.070  16.981  0.00  0.00    +0.000 Br
ATOM     13  C   UNL     1      -2.541  11.854  19.229  0.00  0.00    +0.000 A 
ENDROOT
BRANCH   1  14
ATOM     14  C   UNL     1       0.134  11.725  19.447  0.00  0.00    +0.000 C 
BRANCH  14  15
ATOM     15  C   UNL     1       0.499  10.437  20.273  0.00  0.00    +0.000 C 
ATOM     16  O   UNL     1       0.167  10.385  21.463  0.00  0.00    +0.000 OA
BRANCH  15  20
ATOM     17  C   UNL     1       2.590   6.988  18.488  0.00  0.00    +0.000 A 
ATOM     18  C   UNL     1       2.310   8.141  17.759  0.00  0.00    +0.000 A 
ATOM     19  C   UNL     1       1.661   9.246  18.358  0.00  0.00    +0.000 A 
ATOM     20  C   UNL     1       1.268   9.230  19.714  0.00  0.00    +0.000 A 
ATOM     21  C   UNL     1       1.605   8.078  20.429  0.00  0.00    +0.000 A 
ATOM     22  C   UNL     1       2.221   6.955  19.823  0.00  0.00    +0.000 A 
BRANCH  17  24
ATOM     23  C   UNL     1       2.596   4.681  17.856  0.00  0.00    +0.000 C 
ATOM     24  O   UNL     1       3.196   5.979  17.794  0.00  0.00    +0.000 OA
ENDBRANCH  17  24
ENDBRANCH  15  20
ENDBRANCH  14  15
ENDBRANCH   1  14
TORSDOF 4
ENDMDL
MODEL 6
REMARK VINA RESULT:      -6.3      4.220      8.651
REMARK  Name = 
REMARK  5 active torsions:
REMARK  status: ('A' for Active; 'I' for Inactive)
REMARK    1  A    between atoms: C_1  and  O_2
REMARK    2  A    between atoms: O_2  and  C_3
REMARK    3  A    between atoms: C_6  and  C_7
REMARK    4  A    between atoms: C_7  and  C_9
REMARK    5  A    between atoms: C_9  and  N_10
REMARK                            x       y       z     vdW  Elec       q    Type
REMARK                         _______ _______ _______ _____ _____    ______ ____
ROOT
ATOM      1  N   UNL     1       0.547  10.879  18.886  0.00  0.00    +0.000 N 
ATOM      2  C   UNL     1       1.279  11.883  19.492  0.00  0.00    +0.000 C 
ATOM      3  O   UNL     1       2.362  12.360  19.218  0.00  0.00    +0.000 OA
ATOM      4  C   UNL     1       0.387  12.479  20.558  0.00  0.00    +0.000 C 
ATOM      5  O   UNL     1       0.737  13.156  21.497  0.00  0.00    +0.000 OA
ATOM      6  C   UNL     1      -0.948  12.085  20.173  0.00  0.00    +0.000 A 
ATOM      7  C   UNL     1      -2.081  12.707  20.666  0.00  0.00    +0.000 A 
ATOM      8  C   UNL     1      -3.242  12.493  19.960  0.00  0.00    +0.000 A 
ATOM      9 BR   UNL     1      -4.767  13.515  20.411  0.00  0.00    +0.000 Br
ATOM     10  C   UNL     1      -3.242  11.615  18.856  0.00  0.00    +0.000 A 
ATOM     11  C   UNL     1      -2.059  10.924  18.439  0.00  0.00    +0.000 A 
ATOM     12 BR   UNL     1      -2.208   9.901  16.861  0.00  0.00    +0.000 Br
ATOM     13  C   UNL     1      -0.861  11.172  19.106  0.00  0.00    +0.000 A 
ENDROOT
BRANCH   1  14
ATOM     14  C   UNL     1       1.281   9.930  18.063  0.00  0.00    +0.000 C 
BRANCH  14  15
ATOM     15  C   UNL     1       1.763   8.632  18.808  0.00  0.00    +0.000 C 
ATOM     16  O   UNL     1       1.456   8.486  19.997  0.00  0.00    +0.000 OA
BRANCH  15  20
ATOM     17  C   UNL     1       4.196   5.343  17.161  0.00  0.00    +0.000 A 
ATOM     18  C   UNL     1       3.004   5.111  17.845  0.00  0.00    +0.000 A 
ATOM     19  C   UNL     1       2.226   6.182  18.343  0.00  0.00    +0.000 A 
ATOM     20  C   UNL     1       2.619   7.527  18.172  0.00  0.00    +0.000 A 
ATOM     21  C   UNL     1       3.794   7.727  17.441  0.00  0.00    +0.000 A 
ATOM     22  C   UNL     1       4.594   6.656  16.973  0.00  0.00    +0.000 A 
BRANCH  17  24
ATOM     23  C   UNL     1       5.424   4.237  15.431  0.00  0.00    +0.000 C 
ATOM     24  O   UNL     1       4.872   4.228  16.752  0.00  0.00    +0.000 OA
ENDBRANCH  17  24
ENDBRANCH  15  20
ENDBRANCH  14  15
ENDBRANCH   1  14
TORSDOF 4
ENDMDL
MODEL 7
REMARK VINA RESULT:      -6.3      2.455      3.617
REMARK  Name = 
REMARK  5 active torsions:
REMARK  status: ('A' for Active; 'I' for Inactive)
REMARK    1  A    between atoms: C_1  and  O_2
REMARK    2  A    between atoms: O_2  and  C_3
REMARK    3  A    between atoms: C_6  and  C_7
REMARK    4  A    between atoms: C_7  and  C_9
REMARK    5  A    between atoms: C_9  and  N_10
REMARK                            x       y       z     vdW  Elec       q    Type
REMARK                         _______ _______ _______ _____ _____    ______ ____
ROOT
ATOM      1  N   UNL     1       3.322   5.226  18.588  0.00  0.00    +0.000 N 
ATOM      2  C   UNL     1       2.386   4.227  18.398  0.00  0.00    +0.000 C 
ATOM      3  O   UNL     1       1.207   4.169  18.689  0.00  0.00    +0.000 OA
ATOM      4  C   UNL     1       3.056   3.169  17.550  0.00  0.00    +0.000 C 
ATOM      5  O   UNL     1       2.702   2.021  17.415  0.00  0.00    +0.000 OA
ATOM      6  C   UNL     1       4.166   3.854  16.931  0.00  0.00    +0.000 A 
ATOM      7  C   UNL     1       4.821   3.359  15.816  0.00  0.00    +0.000 A 
ATOM      8  C   UNL     1       5.594   4.260  15.122  0.00  0.00    +0.000 A 
ATOM      9 BR   UNL     1       6.302   3.732  13.450  0.00  0.00    +0.000 Br
ATOM     10  C   UNL     1       5.746   5.576  15.606  0.00  0.00    +0.000 A 
ATOM     11  C   UNL     1       5.119   6.015  16.816  0.00  0.00    +0.000 A 
ATOM     12 BR   UNL     1       5.316   7.843  17.238  0.00  0.00    +0.000 Br
ATOM     13  C   UNL     1       4.285   5.134  17.503  0.00  0.00    +0.000 A 
ENDROOT
BRANCH   1  14
ATOM     14  C   UNL     1       3.050   6.195  19.640  0.00  0.00    +0.000 C 
BRANCH  14  15
ATOM     15  C   UNL     1       2.171   7.424  19.204  0.00  0.00    +0.000 C 
ATOM     16  O   UNL     1       2.028   7.649  17.997  0.00  0.00    +0.000 OA
BRANCH  15  20
ATOM     17  C   UNL     1       0.327  10.373  21.916  0.00  0.00    +0.000 A 
ATOM     18  C   UNL     1       0.560  10.650  20.571  0.00  0.00    +0.000 A 
ATOM     19  C   UNL     1       1.129   9.680  19.712  0.00  0.00    +0.000 A 
ATOM     20  C   UNL     1       1.486   8.396  20.177  0.00  0.00    +0.000 A 
ATOM     21  C   UNL     1       1.196   8.134  21.519  0.00  0.00    +0.000 A 
ATOM     22  C   UNL     1       0.661   9.115  22.390  0.00  0.00    +0.000 A 
BRANCH  17  24
ATOM     23  C   UNL     1      -1.533  11.235  23.149  0.00  0.00    +0.000 C 
ATOM     24  O   UNL     1      -0.202  11.398  22.649  0.00  0.00    +0.000 OA
ENDBRANCH  17  24
ENDBRANCH  15  20
ENDBRANCH  14  15
ENDBRANCH   1  14
TORSDOF 4
ENDMDL
MODEL 8
REMARK VINA RESULT:      -6.3      4.458      8.969
REMARK  Name = 
REMARK  5 active torsions:
REMARK  status: ('A' for Active; 'I' for Inactive)
REMARK    1  A    between atoms: C_1  and  O_2
REMARK    2  A    between atoms: O_2  and  C_3
REMARK    3  A    between atoms: C_6  and  C_7
REMARK    4  A    between atoms: C_7  and  C_9
REMARK    5  A    between atoms: C_9  and  N_10
REMARK                            x       y       z     vdW  Elec       q    Type
REMARK                         _______ _______ _______ _____ _____    ______ ____
ROOT
ATOM      1  N   UNL     1       0.116  10.877  20.171  0.00  0.00    +0.000 N 
ATOM      2  C   UNL     1       0.664  11.793  21.050  0.00  0.00    +0.000 C 
ATOM      3  O   UNL     1       1.799  12.212  21.163  0.00  0.00    +0.000 OA
ATOM      4  C   UNL     1      -0.490  12.382  21.828  0.00  0.00    +0.000 C 
ATOM      5  O   UNL     1      -0.424  12.977  22.879  0.00  0.00    +0.000 OA
ATOM      6  C   UNL     1      -1.652  12.101  21.017  0.00  0.00    +0.000 A 
ATOM      7  C   UNL     1      -2.854  12.767  21.180  0.00  0.00    +0.000 A 
ATOM      8  C   UNL     1      -3.742  12.674  20.134  0.00  0.00    +0.000 A 
ATOM      9 BR   UNL     1      -5.284  13.766  20.166  0.00  0.00    +0.000 Br
ATOM     10  C   UNL     1      -3.432  11.865  19.020  0.00  0.00    +0.000 A 
ATOM     11  C   UNL     1      -2.211  11.122  18.939  0.00  0.00    +0.000 A 
ATOM     12 BR   UNL     1      -1.900  10.207  17.319  0.00  0.00    +0.000 Br
ATOM     13  C   UNL     1      -1.274  11.250  19.964  0.00  0.00    +0.000 A 
ENDROOT
BRANCH   1  14
ATOM     14  C   UNL     1       1.030   9.932  19.545  0.00  0.00    +0.000 C 
BRANCH  14  15
ATOM     15  C   UNL     1       1.359   8.655  20.402  0.00  0.00    +0.000 C 
ATOM     16  O   UNL     1       1.147   8.691  21.620  0.00  0.00    +0.000 OA
BRANCH  15  20
ATOM     17  C   UNL     1       3.006   4.987  18.591  0.00  0.00    +0.000 A 
ATOM     18  C   UNL     1       3.159   6.238  17.997  0.00  0.00    +0.000 A 
ATOM     19  C   UNL     1       2.645   7.405  18.608  0.00  0.00    +0.000 A 
ATOM     20  C   UNL     1       1.956   7.356  19.840  0.00  0.00    +0.000 A 
ATOM     21  C   UNL     1       1.861   6.094  20.432  0.00  0.00    +0.000 A 
ATOM     22  C   UNL     1       2.342   4.918  19.805  0.00  0.00    +0.000 A 
BRANCH  17  24
ATOM     23  C   UNL     1       4.401   4.226  16.803  0.00  0.00    +0.000 C 
ATOM     24  O   UNL     1       3.522   3.932  17.893  0.00  0.00    +0.000 OA
ENDBRANCH  17  24
ENDBRANCH  15  20
ENDBRANCH  14  15
ENDBRANCH   1  14
TORSDOF 4
ENDMDL
MODEL 9
REMARK VINA RESULT:      -6.2      5.169      9.871
REMARK  Name = 
REMARK  5 active torsions:
REMARK  status: ('A' for Active; 'I' for Inactive)
REMARK    1  A    between atoms: C_1  and  O_2
REMARK    2  A    between atoms: O_2  and  C_3
REMARK    3  A    between atoms: C_6  and  C_7
REMARK    4  A    between atoms: C_7  and  C_9
REMARK    5  A    between atoms: C_9  and  N_10
REMARK                            x       y       z     vdW  Elec       q    Type
REMARK                         _______ _______ _______ _____ _____    ______ ____
ROOT
ATOM      1  N   UNL     1      -1.416  11.655  18.965  0.00  0.00    +0.000 N 
ATOM      2  C   UNL     1      -1.924  10.832  17.976  0.00  0.00    +0.000 C 
ATOM      3  O   UNL     1      -1.453   9.855  17.428  0.00  0.00    +0.000 OA
ATOM      4  C   UNL     1      -3.357  11.262  17.757  0.00  0.00    +0.000 C 
ATOM      5  O   UNL     1      -4.045  11.015  16.793  0.00  0.00    +0.000 OA
ATOM      6  C   UNL     1      -3.704  11.987  18.957  0.00  0.00    +0.000 A 
ATOM      7  C   UNL     1      -5.014  12.242  19.322  0.00  0.00    +0.000 A 
ATOM      8  C   UNL     1      -5.215  12.603  20.634  0.00  0.00    +0.000 A 
ATOM      9 BR   UNL     1      -6.991  12.708  21.273  0.00  0.00    +0.000 Br
ATOM     10  C   UNL     1      -4.109  12.771  21.493  0.00  0.00    +0.000 A 
ATOM     11  C   UNL     1      -2.764  12.582  21.043  0.00  0.00    +0.000 A 
ATOM     12 BR   UNL     1      -1.420  12.712  22.360  0.00  0.00    +0.000 Br
ATOM     13  C   UNL     1      -2.543  12.160  19.732  0.00  0.00    +0.000 A 
ENDROOT
BRANCH   1  14
ATOM     14  C   UNL     1       0.029  11.677  19.128  0.00  0.00    +0.000 C 
BRANCH  14  15
ATOM     15  C   UNL     1       0.625  10.488  19.969  0.00  0.00    +0.000 C 
ATOM     16  O   UNL     1       0.527  10.529  21.201  0.00  0.00    +0.000 OA
BRANCH  15  20
ATOM     17  C   UNL     1       2.820   6.983  18.437  0.00  0.00    +0.000 A 
ATOM     18  C   UNL     1       2.287   7.018  19.724  0.00  0.00    +0.000 A 
ATOM     19  C   UNL     1       1.564   8.142  20.187  0.00  0.00    +0.000 A 
ATOM     20  C   UNL     1       1.352   9.275  19.371  0.00  0.00    +0.000 A 
ATOM     21  C   UNL     1       1.857   9.188  18.071  0.00  0.00    +0.000 A 
ATOM     22  C   UNL     1       2.614   8.080  17.617  0.00  0.00    +0.000 A 
BRANCH  17  24
ATOM     23  C   UNL     1       3.206   4.655  18.830  0.00  0.00    +0.000 C 
ATOM     24  O   UNL     1       3.520   5.855  18.115  0.00  0.00    +0.000 OA
ENDBRANCH  17  24
ENDBRANCH  15  20
ENDBRANCH  14  15
ENDBRANCH   1  14
TORSDOF 4
ENDMDL
