MODEL 1
REMARK VINA RESULT:      -8.9      0.000      0.000
REMARK  Name = 
REMARK  14 active torsions:
REMARK  status: ('A' for Active; 'I' for Inactive)
REMARK    1  A    between atoms: C_1  and  C_2
REMARK    2  A    between atoms: C_7  and  C_8
REMARK    3  A    between atoms: C_8  and  C_9
REMARK    4  A    between atoms: N_11  and  C_12
REMARK    5  A    between atoms: C_12  and  C_13
REMARK    6  A    between atoms: C_13  and  C_14
REMARK    7  A    between atoms: C_14  and  C_15
REMARK    8  A    between atoms: C_15  and  C_16
REMARK    9  A    between atoms: C_16  and  C_17
REMARK   10  A    between atoms: C_17  and  C_18
REMARK   11  A    between atoms: N_20  and  O_21
REMARK   12  A    between atoms: C_25  and  C_26
REMARK   13  A    between atoms: C_27  and  C_28
REMARK   14  A    between atoms: C_31  and  C_32
REMARK                            x       y       z     vdW  Elec       q    Type
REMARK                         _______ _______ _______ _____ _____    ______ ____
ROOT
ATOM      1  C   UNL     1       3.425   7.201  17.857  0.00  0.00    +0.000 A 
ATOM      2  C   UNL     1       3.573   6.094  18.674  0.00  0.00    +0.000 A 
ATOM      3  N   UNL     1       2.731   6.212  19.749  0.00  0.00    +0.000 N 
ATOM      4  C   UNL     1       2.077   7.424  19.701  0.00  0.00    +0.000 A 
ATOM      5  C   UNL     1       1.148   8.012  20.573  0.00  0.00    +0.000 A 
ATOM      6  C   UNL     1       0.641   9.279  20.256  0.00  0.00    +0.000 A 
ATOM      7  C   UNL     1       0.992   9.941  19.074  0.00  0.00    +0.000 A 
ATOM      8  C   UNL     1       1.875   9.291  18.187  0.00  0.00    +0.000 A 
ATOM      9  C   UNL     1       2.471   8.051  18.514  0.00  0.00    +0.000 A 
ENDROOT
BRANCH   7  10
ATOM     10  C   UNL     1       0.489  11.284  18.797  0.00  0.00    +0.000 A 
ATOM     11  C   UNL     1       1.121  12.571  18.773  0.00  0.00    +0.000 A 
ATOM     12  C   UNL     1       2.513  12.981  19.080  0.00  0.00    +0.000 C 
ATOM     13  N   UNL     1       0.263  13.530  18.402  0.00  0.00    +0.000 NA
ATOM     14  O   UNL     1      -0.935  12.899  18.171  0.00  0.00    +0.000 OA
ATOM     15  C   UNL     1      -0.806  11.566  18.395  0.00  0.00    +0.000 A 
ATOM     16  C   UNL     1      -2.027  10.773  18.140  0.00  0.00    +0.000 C 
ENDBRANCH   7  10
BRANCH   1  17
ATOM     17  C   UNL     1       4.030   7.346  16.496  0.00  0.00    +0.000 C 
BRANCH  17  24
ATOM     18  C   UNL     1       6.935   7.700  17.527  0.00  0.00    +0.000 C 
ATOM     19  C   UNL     1       6.461   6.482  16.783  0.00  0.00    +0.000 A 
ATOM     20  C   UNL     1       7.387   5.435  16.597  0.00  0.00    +0.000 A 
ATOM     21  C   UNL     1       7.022   4.249  15.964  0.00  0.00    +0.000 A 
ATOM     22  C   UNL     1       5.726   4.094  15.493  0.00  0.00    +0.000 A 
ATOM     23  C   UNL     1       4.805   5.132  15.642  0.00  0.00    +0.000 A 
ATOM     24  C   UNL     1       5.148   6.346  16.273  0.00  0.00    +0.000 A 
ENDBRANCH  17  24
ENDBRANCH   1  17
BRANCH   3  25
ATOM     25  C   UNL     1       2.457   5.127  20.674  0.00  0.00    +0.000 C 
BRANCH  25  26
ATOM     26  C   UNL     1       1.110   4.432  20.479  0.00  0.00    +0.000 C 
BRANCH  26  27
ATOM     27  C   UNL     1       1.219   2.910  20.384  0.00  0.00    +0.000 C 
BRANCH  27  28
ATOM     28  C   UNL     1       1.019   2.458  18.936  0.00  0.00    +0.000 C 
BRANCH  28  29
ATOM     29  C   UNL     1       2.316   2.534  18.136  0.00  0.00    +0.000 C 
BRANCH  29  30
ATOM     30  C   UNL     1       3.349   1.542  18.665  0.00  0.00    +0.000 C 
BRANCH  30  31
ATOM     31  C   UNL     1       4.449   2.240  19.435  0.00  0.00    +0.000 C 
ATOM     32  O   UNL     1       4.795   1.955  20.578  0.00  0.00    +0.000 OA
ATOM     33  N   UNL     1       5.047   3.262  18.734  0.00  0.00    +0.000 N 
ATOM     34  H   UNL     1       5.041   3.306  17.721  0.00  0.00    +0.000 HD
BRANCH  33  35
ATOM     35  O   UNL     1       6.157   3.858  19.382  0.00  0.00    +0.000 OA
ATOM     36  H   UNL     1       5.833   3.953  20.306  0.00  0.00    +0.000 HD
ENDBRANCH  33  35
ENDBRANCH  30  31
ENDBRANCH  29  30
ENDBRANCH  28  29
ENDBRANCH  27  28
ENDBRANCH  26  27
ENDBRANCH  25  26
ENDBRANCH   3  25
TORSDOF 11
ENDMDL
MODEL 2
REMARK VINA RESULT:      -8.4      0.991      1.521
REMARK  Name = 
REMARK  14 active torsions:
REMARK  status: ('A' for Active; 'I' for Inactive)
REMARK    1  A    between atoms: C_1  and  C_2
REMARK    2  A    between atoms: C_7  and  C_8
REMARK    3  A    between atoms: C_8  and  C_9
REMARK    4  A    between atoms: N_11  and  C_12
REMARK    5  A    between atoms: C_12  and  C_13
REMARK    6  A    between atoms: C_13  and  C_14
REMARK    7  A    between atoms: C_14  and  C_15
REMARK    8  A    between atoms: C_15  and  C_16
REMARK    9  A    between atoms: C_16  and  C_17
REMARK   10  A    between atoms: C_17  and  C_18
REMARK   11  A    between atoms: N_20  and  O_21
REMARK   12  A    between atoms: C_25  and  C_26
REMARK   13  A    between atoms: C_27  and  C_28
REMARK   14  A    between atoms: C_31  and  C_32
REMARK                            x       y       z     vdW  Elec       q    Type
REMARK                         _______ _______ _______ _____ _____    ______ ____
ROOT
ATOM      1  C   UNL     1       3.349   6.889  18.559  0.00  0.00    +0.000 A 
ATOM      2  C   UNL     1       3.413   5.853  19.473  0.00  0.00    +0.000 A 
ATOM      3  N   UNL     1       2.453   6.039  20.432  0.00  0.00    +0.000 N 
ATOM      4  C   UNL     1       1.797   7.231  20.214  0.00  0.00    +0.000 A 
ATOM      5  C   UNL     1       0.769   7.867  20.926  0.00  0.00    +0.000 A 
ATOM      6  C   UNL     1       0.289   9.096  20.454  0.00  0.00    +0.000 A 
ATOM      7  C   UNL     1       0.766   9.670  19.270  0.00  0.00    +0.000 A 
ATOM      8  C   UNL     1       1.751   8.969  18.542  0.00  0.00    +0.000 A 
ATOM      9  C   UNL     1       2.318   7.770  19.033  0.00  0.00    +0.000 A 
ENDROOT
BRANCH   7  10
ATOM     10  C   UNL     1       0.285  10.977  18.831  0.00  0.00    +0.000 A 
ATOM     11  C   UNL     1       0.880  12.282  18.836  0.00  0.00    +0.000 A 
ATOM     12  C   UNL     1       2.189  12.755  19.347  0.00  0.00    +0.000 C 
ATOM     13  N   UNL     1       0.074  13.188  18.268  0.00  0.00    +0.000 NA
ATOM     14  O   UNL     1      -1.051  12.506  17.877  0.00  0.00    +0.000 OA
ATOM     15  C   UNL     1      -0.930  11.192  18.200  0.00  0.00    +0.000 A 
ATOM     16  C   UNL     1      -2.070  10.344  17.791  0.00  0.00    +0.000 C 
ENDBRANCH   7  10
BRANCH   1  17
ATOM     17  C   UNL     1       4.104   6.939  17.267  0.00  0.00    +0.000 C 
BRANCH  17  24
ATOM     18  C   UNL     1       5.027   5.152  14.904  0.00  0.00    +0.000 C 
ATOM     19  C   UNL     1       5.772   5.256  16.206  0.00  0.00    +0.000 A 
ATOM     20  C   UNL     1       6.978   4.535  16.321  0.00  0.00    +0.000 A 
ATOM     21  C   UNL     1       7.760   4.612  17.471  0.00  0.00    +0.000 A 
ATOM     22  C   UNL     1       7.343   5.401  18.533  0.00  0.00    +0.000 A 
ATOM     23  C   UNL     1       6.137   6.098  18.447  0.00  0.00    +0.000 A 
ATOM     24  C   UNL     1       5.321   6.035  17.298  0.00  0.00    +0.000 A 
ENDBRANCH  17  24
ENDBRANCH   1  17
BRANCH   3  25
ATOM     25  C   UNL     1       2.086   5.025  21.405  0.00  0.00    +0.000 C 
BRANCH  25  26
ATOM     26  C   UNL     1       1.940   3.610  20.843  0.00  0.00    +0.000 C 
BRANCH  26  27
ATOM     27  C   UNL     1       0.655   3.404  20.042  0.00  0.00    +0.000 C 
BRANCH  27  28
ATOM     28  C   UNL     1       0.971   2.723  18.708  0.00  0.00    +0.000 C 
BRANCH  28  29
ATOM     29  C   UNL     1       1.683   3.670  17.746  0.00  0.00    +0.000 C 
BRANCH  29  30
ATOM     30  C   UNL     1       2.925   3.015  17.148  0.00  0.00    +0.000 C 
BRANCH  30  31
ATOM     31  C   UNL     1       3.645   2.153  18.163  0.00  0.00    +0.000 C 
ATOM     32  O   UNL     1       3.465   0.948  18.312  0.00  0.00    +0.000 OA
ATOM     33  N   UNL     1       4.540   2.852  18.940  0.00  0.00    +0.000 N 
ATOM     34  H   UNL     1       4.959   3.724  18.641  0.00  0.00    +0.000 HD
BRANCH  33  35
ATOM     35  O   UNL     1       5.312   2.053  19.821  0.00  0.00    +0.000 OA
ATOM     36  H   UNL     1       5.042   1.142  19.568  0.00  0.00    +0.000 HD
ENDBRANCH  33  35
ENDBRANCH  30  31
ENDBRANCH  29  30
ENDBRANCH  28  29
ENDBRANCH  27  28
ENDBRANCH  26  27
ENDBRANCH  25  26
ENDBRANCH   3  25
TORSDOF 11
ENDMDL
MODEL 3
REMARK VINA RESULT:      -8.4      0.794      1.619
REMARK  Name = 
REMARK  14 active torsions:
REMARK  status: ('A' for Active; 'I' for Inactive)
REMARK    1  A    between atoms: C_1  and  C_2
REMARK    2  A    between atoms: C_7  and  C_8
REMARK    3  A    between atoms: C_8  and  C_9
REMARK    4  A    between atoms: N_11  and  C_12
REMARK    5  A    between atoms: C_12  and  C_13
REMARK    6  A    between atoms: C_13  and  C_14
REMARK    7  A    between atoms: C_14  and  C_15
REMARK    8  A    between atoms: C_15  and  C_16
REMARK    9  A    between atoms: C_16  and  C_17
REMARK   10  A    between atoms: C_17  and  C_18
REMARK   11  A    between atoms: N_20  and  O_21
REMARK   12  A    between atoms: C_25  and  C_26
REMARK   13  A    between atoms: C_27  and  C_28
REMARK   14  A    between atoms: C_31  and  C_32
REMARK                            x       y       z     vdW  Elec       q    Type
REMARK                         _______ _______ _______ _____ _____    ______ ____
ROOT
ATOM      1  C   UNL     1       3.509   7.184  17.846  0.00  0.00    +0.000 A 
ATOM      2  C   UNL     1       3.685   6.109  18.698  0.00  0.00    +0.000 A 
ATOM      3  N   UNL     1       2.841   6.241  19.769  0.00  0.00    +0.000 N 
ATOM      4  C   UNL     1       2.156   7.434  19.682  0.00  0.00    +0.000 A 
ATOM      5  C   UNL     1       1.213   8.026  20.536  0.00  0.00    +0.000 A 
ATOM      6  C   UNL     1       0.674   9.269  20.179  0.00  0.00    +0.000 A 
ATOM      7  C   UNL     1       1.008   9.900  18.975  0.00  0.00    +0.000 A 
ATOM      8  C   UNL     1       1.907   9.245  18.109  0.00  0.00    +0.000 A 
ATOM      9  C   UNL     1       2.534   8.031  18.475  0.00  0.00    +0.000 A 
ENDROOT
BRANCH   7  10
ATOM     10  C   UNL     1       0.470  11.220  18.655  0.00  0.00    +0.000 A 
ATOM     11  C   UNL     1      -0.867  11.706  18.476  0.00  0.00    +0.000 A 
ATOM     12  C   UNL     1      -2.172  11.003  18.504  0.00  0.00    +0.000 C 
ATOM     13  N   UNL     1      -0.881  13.026  18.250  0.00  0.00    +0.000 NA
ATOM     14  O   UNL     1       0.430  13.431  18.281  0.00  0.00    +0.000 OA
ATOM     15  C   UNL     1       1.237  12.367  18.530  0.00  0.00    +0.000 A 
ATOM     16  C   UNL     1       2.677  12.689  18.626  0.00  0.00    +0.000 C 
ENDBRANCH   7  10
BRANCH   1  17
ATOM     17  C   UNL     1       4.109   7.300  16.480  0.00  0.00    +0.000 C 
BRANCH  17  24
ATOM     18  C   UNL     1       6.993   7.559  17.596  0.00  0.00    +0.000 C 
ATOM     19  C   UNL     1       6.510   6.369  16.813  0.00  0.00    +0.000 A 
ATOM     20  C   UNL     1       7.415   5.304  16.629  0.00  0.00    +0.000 A 
ATOM     21  C   UNL     1       7.038   4.141  15.961  0.00  0.00    +0.000 A 
ATOM     22  C   UNL     1       5.752   4.029  15.451  0.00  0.00    +0.000 A 
ATOM     23  C   UNL     1       4.853   5.086  15.598  0.00  0.00    +0.000 A 
ATOM     24  C   UNL     1       5.208   6.278  16.265  0.00  0.00    +0.000 A 
ENDBRANCH  17  24
ENDBRANCH   1  17
BRANCH   3  25
ATOM     25  C   UNL     1       2.595   5.180  20.730  0.00  0.00    +0.000 C 
BRANCH  25  26
ATOM     26  C   UNL     1       1.250   4.470  20.582  0.00  0.00    +0.000 C 
BRANCH  26  27
ATOM     27  C   UNL     1       1.348   3.122  19.867  0.00  0.00    +0.000 C 
BRANCH  27  28
ATOM     28  C   UNL     1       1.118   3.307  18.365  0.00  0.00    +0.000 C 
BRANCH  28  29
ATOM     29  C   UNL     1       2.234   2.672  17.540  0.00  0.00    +0.000 C 
BRANCH  29  30
ATOM     30  C   UNL     1       3.605   2.982  18.137  0.00  0.00    +0.000 C 
BRANCH  30  31
ATOM     31  C   UNL     1       4.144   1.813  18.932  0.00  0.00    +0.000 C 
ATOM     32  O   UNL     1       3.924   0.632  18.679  0.00  0.00    +0.000 OA
ATOM     33  N   UNL     1       4.919   2.190  20.005  0.00  0.00    +0.000 N 
ATOM     34  H   UNL     1       5.393   3.084  20.050  0.00  0.00    +0.000 HD
BRANCH  33  35
ATOM     35  O   UNL     1       5.532   1.118  20.701  0.00  0.00    +0.000 OA
ATOM     36  H   UNL     1       4.765   0.691  21.144  0.00  0.00    +0.000 HD
ENDBRANCH  33  35
ENDBRANCH  30  31
ENDBRANCH  29  30
ENDBRANCH  28  29
ENDBRANCH  27  28
ENDBRANCH  26  27
ENDBRANCH  25  26
ENDBRANCH   3  25
TORSDOF 11
ENDMDL
MODEL 4
REMARK VINA RESULT:      -7.8      2.064      8.154
REMARK  Name = 
REMARK  14 active torsions:
REMARK  status: ('A' for Active; 'I' for Inactive)
REMARK    1  A    between atoms: C_1  and  C_2
REMARK    2  A    between atoms: C_7  and  C_8
REMARK    3  A    between atoms: C_8  and  C_9
REMARK    4  A    between atoms: N_11  and  C_12
REMARK    5  A    between atoms: C_12  and  C_13
REMARK    6  A    between atoms: C_13  and  C_14
REMARK    7  A    between atoms: C_14  and  C_15
REMARK    8  A    between atoms: C_15  and  C_16
REMARK    9  A    between atoms: C_16  and  C_17
REMARK   10  A    between atoms: C_17  and  C_18
REMARK   11  A    between atoms: N_20  and  O_21
REMARK   12  A    between atoms: C_25  and  C_26
REMARK   13  A    between atoms: C_27  and  C_28
REMARK   14  A    between atoms: C_31  and  C_32
REMARK                            x       y       z     vdW  Elec       q    Type
REMARK                         _______ _______ _______ _____ _____    ______ ____
ROOT
ATOM      1  C   UNL     1       2.224   5.748  20.461  0.00  0.00    +0.000 A 
ATOM      2  C   UNL     1       1.408   6.851  20.636  0.00  0.00    +0.000 A 
ATOM      3  N   UNL     1       1.703   7.786  19.678  0.00  0.00    +0.000 N 
ATOM      4  C   UNL     1       2.761   7.352  18.909  0.00  0.00    +0.000 A 
ATOM      5  C   UNL     1       3.437   7.954  17.838  0.00  0.00    +0.000 A 
ATOM      6  C   UNL     1       4.496   7.259  17.237  0.00  0.00    +0.000 A 
ATOM      7  C   UNL     1       4.852   5.967  17.641  0.00  0.00    +0.000 A 
ATOM      8  C   UNL     1       4.107   5.364  18.675  0.00  0.00    +0.000 A 
ATOM      9  C   UNL     1       3.090   6.068  19.359  0.00  0.00    +0.000 A 
ENDROOT
BRANCH   7  10
ATOM     10  C   UNL     1       5.994   5.288  17.032  0.00  0.00    +0.000 A 
ATOM     11  C   UNL     1       6.194   4.694  15.743  0.00  0.00    +0.000 A 
ATOM     12  C   UNL     1       5.273   4.520  14.594  0.00  0.00    +0.000 C 
ATOM     13  N   UNL     1       7.445   4.235  15.605  0.00  0.00    +0.000 NA
ATOM     14  O   UNL     1       8.087   4.521  16.785  0.00  0.00    +0.000 OA
ATOM     15  C   UNL     1       7.235   5.153  17.633  0.00  0.00    +0.000 A 
ATOM     16  C   UNL     1       7.827   5.548  18.928  0.00  0.00    +0.000 C 
ENDBRANCH   7  10
BRANCH   1  17
ATOM     17  C   UNL     1       2.073   4.448  21.187  0.00  0.00    +0.000 C 
BRANCH  17  24
ATOM     18  C   UNL     1       0.414   3.177  18.894  0.00  0.00    +0.000 C 
ATOM     19  C   UNL     1       1.801   2.729  19.262  0.00  0.00    +0.000 A 
ATOM     20  C   UNL     1       2.380   1.708  18.480  0.00  0.00    +0.000 A 
ATOM     21  C   UNL     1       3.679   1.265  18.716  0.00  0.00    +0.000 A 
ATOM     22  C   UNL     1       4.419   1.824  19.748  0.00  0.00    +0.000 A 
ATOM     23  C   UNL     1       3.850   2.814  20.551  0.00  0.00    +0.000 A 
ATOM     24  C   UNL     1       2.535   3.279  20.340  0.00  0.00    +0.000 A 
ENDBRANCH  17  24
ENDBRANCH   1  17
BRANCH   3  25
ATOM     25  C   UNL     1       0.882   8.956  19.422  0.00  0.00    +0.000 C 
BRANCH  25  26
ATOM     26  C   UNL     1       0.000   9.398  20.590  0.00  0.00    +0.000 C 
BRANCH  26  27
ATOM     27  C   UNL     1       0.310  10.810  21.087  0.00  0.00    +0.000 C 
BRANCH  27  28
ATOM     28  C   UNL     1      -0.510  11.836  20.300  0.00  0.00    +0.000 C 
BRANCH  28  29
ATOM     29  C   UNL     1      -1.266  11.187  19.144  0.00  0.00    +0.000 C 
BRANCH  29  30
ATOM     30  C   UNL     1      -2.623  11.854  18.930  0.00  0.00    +0.000 C 
BRANCH  30  31
ATOM     31  C   UNL     1      -3.238  11.456  17.606  0.00  0.00    +0.000 C 
ATOM     32  O   UNL     1      -4.371  11.004  17.467  0.00  0.00    +0.000 OA
ATOM     33  N   UNL     1      -2.394  11.635  16.534  0.00  0.00    +0.000 N 
ATOM     34  H   UNL     1      -1.624  12.294  16.548  0.00  0.00    +0.000 HD
BRANCH  33  35
ATOM     35  O   UNL     1      -2.980  11.380  15.268  0.00  0.00    +0.000 OA
ATOM     36  H   UNL     1      -2.205  11.436  14.665  0.00  0.00    +0.000 HD
ENDBRANCH  33  35
ENDBRANCH  30  31
ENDBRANCH  29  30
ENDBRANCH  28  29
ENDBRANCH  27  28
ENDBRANCH  26  27
ENDBRANCH  25  26
ENDBRANCH   3  25
TORSDOF 11
ENDMDL
MODEL 5
REMARK VINA RESULT:      -7.7      2.293      8.450
REMARK  Name = 
REMARK  14 active torsions:
REMARK  status: ('A' for Active; 'I' for Inactive)
REMARK    1  A    between atoms: C_1  and  C_2
REMARK    2  A    between atoms: C_7  and  C_8
REMARK    3  A    between atoms: C_8  and  C_9
REMARK    4  A    between atoms: N_11  and  C_12
REMARK    5  A    between atoms: C_12  and  C_13
REMARK    6  A    between atoms: C_13  and  C_14
REMARK    7  A    between atoms: C_14  and  C_15
REMARK    8  A    between atoms: C_15  and  C_16
REMARK    9  A    between atoms: C_16  and  C_17
REMARK   10  A    between atoms: C_17  and  C_18
REMARK   11  A    between atoms: N_20  and  O_21
REMARK   12  A    between atoms: C_25  and  C_26
REMARK   13  A    between atoms: C_27  and  C_28
REMARK   14  A    between atoms: C_31  and  C_32
REMARK                            x       y       z     vdW  Elec       q    Type
REMARK                         _______ _______ _______ _____ _____    ______ ____
ROOT
ATOM      1  C   UNL     1       2.179   5.948  20.294  0.00  0.00    +0.000 A 
ATOM      2  C   UNL     1       1.393   7.079  20.417  0.00  0.00    +0.000 A 
ATOM      3  N   UNL     1       1.744   7.979  19.444  0.00  0.00    +0.000 N 
ATOM      4  C   UNL     1       2.810   7.493  18.719  0.00  0.00    +0.000 A 
ATOM      5  C   UNL     1       3.536   8.046  17.653  0.00  0.00    +0.000 A 
ATOM      6  C   UNL     1       4.589   7.303  17.102  0.00  0.00    +0.000 A 
ATOM      7  C   UNL     1       4.893   6.012  17.548  0.00  0.00    +0.000 A 
ATOM      8  C   UNL     1       4.100   5.459  18.575  0.00  0.00    +0.000 A 
ATOM      9  C   UNL     1       3.086   6.212  19.211  0.00  0.00    +0.000 A 
ENDROOT
BRANCH   7  10
ATOM     10  C   UNL     1       6.030   5.283  16.991  0.00  0.00    +0.000 A 
ATOM     11  C   UNL     1       6.250   4.652  15.722  0.00  0.00    +0.000 A 
ATOM     12  C   UNL     1       5.359   4.481  14.550  0.00  0.00    +0.000 C 
ATOM     13  N   UNL     1       7.489   4.151  15.634  0.00  0.00    +0.000 NA
ATOM     14  O   UNL     1       8.103   4.443  16.827  0.00  0.00    +0.000 OA
ATOM     15  C   UNL     1       7.247   5.123  17.633  0.00  0.00    +0.000 A 
ATOM     16  C   UNL     1       7.812   5.529  18.938  0.00  0.00    +0.000 C 
ENDBRANCH   7  10
BRANCH   1  17
ATOM     17  C   UNL     1       1.966   4.673  21.048  0.00  0.00    +0.000 C 
BRANCH  17  24
ATOM     18  C   UNL     1       0.466   3.292  18.709  0.00  0.00    +0.000 C 
ATOM     19  C   UNL     1       1.831   2.875  19.181  0.00  0.00    +0.000 A 
ATOM     20  C   UNL     1       2.467   1.830  18.478  0.00  0.00    +0.000 A 
ATOM     21  C   UNL     1       3.753   1.412  18.813  0.00  0.00    +0.000 A 
ATOM     22  C   UNL     1       4.421   2.020  19.866  0.00  0.00    +0.000 A 
ATOM     23  C   UNL     1       3.794   3.035  20.590  0.00  0.00    +0.000 A 
ATOM     24  C   UNL     1       2.491   3.476  20.279  0.00  0.00    +0.000 A 
ENDBRANCH  17  24
ENDBRANCH   1  17
BRANCH   3  25
ATOM     25  C   UNL     1       0.968   9.167  19.135  0.00  0.00    +0.000 C 
BRANCH  25  26
ATOM     26  C   UNL     1      -0.060   9.564  20.194  0.00  0.00    +0.000 C 
BRANCH  26  27
ATOM     27  C   UNL     1      -0.952  10.731  19.769  0.00  0.00    +0.000 C 
BRANCH  27  28
ATOM     28  C   UNL     1      -1.313  10.603  18.287  0.00  0.00    +0.000 C 
BRANCH  28  29
ATOM     29  C   UNL     1      -2.808  10.367  18.088  0.00  0.00    +0.000 C 
BRANCH  29  30
ATOM     30  C   UNL     1      -3.420  11.441  17.192  0.00  0.00    +0.000 C 
BRANCH  30  31
ATOM     31  C   UNL     1      -4.912  11.565  17.409  0.00  0.00    +0.000 C 
ATOM     32  O   UNL     1      -5.628  12.418  16.891  0.00  0.00    +0.000 OA
ATOM     33  N   UNL     1      -5.422  10.623  18.273  0.00  0.00    +0.000 N 
ATOM     34  H   UNL     1      -4.965   9.734  18.442  0.00  0.00    +0.000 HD
BRANCH  33  35
ATOM     35  O   UNL     1      -6.832  10.641  18.408  0.00  0.00    +0.000 OA
ATOM     36  H   UNL     1      -7.077  11.465  17.932  0.00  0.00    +0.000 HD
ENDBRANCH  33  35
ENDBRANCH  30  31
ENDBRANCH  29  30
ENDBRANCH  28  29
ENDBRANCH  27  28
ENDBRANCH  26  27
ENDBRANCH  25  26
ENDBRANCH   3  25
TORSDOF 11
ENDMDL
MODEL 6
REMARK VINA RESULT:      -7.7      1.043      2.130
REMARK  Name = 
REMARK  14 active torsions:
REMARK  status: ('A' for Active; 'I' for Inactive)
REMARK    1  A    between atoms: C_1  and  C_2
REMARK    2  A    between atoms: C_7  and  C_8
REMARK    3  A    between atoms: C_8  and  C_9
REMARK    4  A    between atoms: N_11  and  C_12
REMARK    5  A    between atoms: C_12  and  C_13
REMARK    6  A    between atoms: C_13  and  C_14
REMARK    7  A    between atoms: C_14  and  C_15
REMARK    8  A    between atoms: C_15  and  C_16
REMARK    9  A    between atoms: C_16  and  C_17
REMARK   10  A    between atoms: C_17  and  C_18
REMARK   11  A    between atoms: N_20  and  O_21
REMARK   12  A    between atoms: C_25  and  C_26
REMARK   13  A    between atoms: C_27  and  C_28
REMARK   14  A    between atoms: C_31  and  C_32
REMARK                            x       y       z     vdW  Elec       q    Type
REMARK                         _______ _______ _______ _____ _____    ______ ____
ROOT
ATOM      1  C   UNL     1       3.339   7.095  18.360  0.00  0.00    +0.000 A 
ATOM      2  C   UNL     1       3.319   6.038  19.253  0.00  0.00    +0.000 A 
ATOM      3  N   UNL     1       2.344   6.259  20.190  0.00  0.00    +0.000 N 
ATOM      4  C   UNL     1       1.761   7.491  19.980  0.00  0.00    +0.000 A 
ATOM      5  C   UNL     1       0.751   8.170  20.678  0.00  0.00    +0.000 A 
ATOM      6  C   UNL     1       0.354   9.433  20.220  0.00  0.00    +0.000 A 
ATOM      7  C   UNL     1       0.896  10.002  19.062  0.00  0.00    +0.000 A 
ATOM      8  C   UNL     1       1.861   9.263  18.347  0.00  0.00    +0.000 A 
ATOM      9  C   UNL     1       2.345   8.024  18.826  0.00  0.00    +0.000 A 
ENDROOT
BRANCH   7  10
ATOM     10  C   UNL     1       0.501  11.344  18.639  0.00  0.00    +0.000 A 
ATOM     11  C   UNL     1      -0.773  11.934  18.351  0.00  0.00    +0.000 A 
ATOM     12  C   UNL     1      -2.137  11.351  18.333  0.00  0.00    +0.000 C 
ATOM     13  N   UNL     1      -0.654  13.234  18.054  0.00  0.00    +0.000 NA
ATOM     14  O   UNL     1       0.685  13.524  18.146  0.00  0.00    +0.000 OA
ATOM     15  C   UNL     1       1.375  12.410  18.502  0.00  0.00    +0.000 A 
ATOM     16  C   UNL     1       2.830  12.608  18.672  0.00  0.00    +0.000 C 
ENDBRANCH   7  10
BRANCH   1  17
ATOM     17  C   UNL     1       4.131   7.128  17.091  0.00  0.00    +0.000 C 
BRANCH  17  24
ATOM     18  C   UNL     1       4.616   4.712  15.205  0.00  0.00    +0.000 C 
ATOM     19  C   UNL     1       5.584   5.138  16.274  0.00  0.00    +0.000 A 
ATOM     20  C   UNL     1       6.793   4.420  16.376  0.00  0.00    +0.000 A 
ATOM     21  C   UNL     1       7.770   4.775  17.303  0.00  0.00    +0.000 A 
ATOM     22  C   UNL     1       7.550   5.848  18.154  0.00  0.00    +0.000 A 
ATOM     23  C   UNL     1       6.347   6.552  18.087  0.00  0.00    +0.000 A 
ATOM     24  C   UNL     1       5.336   6.211  17.163  0.00  0.00    +0.000 A 
ENDBRANCH  17  24
ENDBRANCH   1  17
BRANCH   3  25
ATOM     25  C   UNL     1       1.893   5.247  21.130  0.00  0.00    +0.000 C 
BRANCH  25  26
ATOM     26  C   UNL     1       2.245   3.809  20.752  0.00  0.00    +0.000 C 
BRANCH  26  27
ATOM     27  C   UNL     1       1.023   2.902  20.606  0.00  0.00    +0.000 C 
BRANCH  27  28
ATOM     28  C   UNL     1       0.587   2.840  19.140  0.00  0.00    +0.000 C 
BRANCH  28  29
ATOM     29  C   UNL     1       1.663   3.389  18.207  0.00  0.00    +0.000 C 
BRANCH  29  30
ATOM     30  C   UNL     1       2.446   2.259  17.544  0.00  0.00    +0.000 C 
BRANCH  30  31
ATOM     31  C   UNL     1       3.736   1.967  18.280  0.00  0.00    +0.000 C 
ATOM     32  O   UNL     1       4.592   2.804  18.552  0.00  0.00    +0.000 OA
ATOM     33  N   UNL     1       3.885   0.643  18.623  0.00  0.00    +0.000 N 
ATOM     34  H   UNL     1       3.098   0.014  18.728  0.00  0.00    +0.000 HD
BRANCH  33  35
ATOM     35  O   UNL     1       5.027   0.358  19.413  0.00  0.00    +0.000 OA
ATOM     36  H   UNL     1       4.626   0.045  20.254  0.00  0.00    +0.000 HD
ENDBRANCH  33  35
ENDBRANCH  30  31
ENDBRANCH  29  30
ENDBRANCH  28  29
ENDBRANCH  27  28
ENDBRANCH  26  27
ENDBRANCH  25  26
ENDBRANCH   3  25
TORSDOF 11
ENDMDL
MODEL 7
REMARK VINA RESULT:      -7.7      3.148      8.441
REMARK  Name = 
REMARK  14 active torsions:
REMARK  status: ('A' for Active; 'I' for Inactive)
REMARK    1  A    between atoms: C_1  and  C_2
REMARK    2  A    between atoms: C_7  and  C_8
REMARK    3  A    between atoms: C_8  and  C_9
REMARK    4  A    between atoms: N_11  and  C_12
REMARK    5  A    between atoms: C_12  and  C_13
REMARK    6  A    between atoms: C_13  and  C_14
REMARK    7  A    between atoms: C_14  and  C_15
REMARK    8  A    between atoms: C_15  and  C_16
REMARK    9  A    between atoms: C_16  and  C_17
REMARK   10  A    between atoms: C_17  and  C_18
REMARK   11  A    between atoms: N_20  and  O_21
REMARK   12  A    between atoms: C_25  and  C_26
REMARK   13  A    between atoms: C_27  and  C_28
REMARK   14  A    between atoms: C_31  and  C_32
REMARK                            x       y       z     vdW  Elec       q    Type
REMARK                         _______ _______ _______ _____ _____    ______ ____
ROOT
ATOM      1  C   UNL     1       2.227   6.047  20.509  0.00  0.00    +0.000 A 
ATOM      2  C   UNL     1       1.311   7.028  20.842  0.00  0.00    +0.000 A 
ATOM      3  N   UNL     1       1.391   8.048  19.931  0.00  0.00    +0.000 N 
ATOM      4  C   UNL     1       2.406   7.796  19.033  0.00  0.00    +0.000 A 
ATOM      5  C   UNL     1       2.891   8.541  17.948  0.00  0.00    +0.000 A 
ATOM      6  C   UNL     1       3.954   8.020  17.199  0.00  0.00    +0.000 A 
ATOM      7  C   UNL     1       4.500   6.760  17.470  0.00  0.00    +0.000 A 
ATOM      8  C   UNL     1       3.944   6.008  18.525  0.00  0.00    +0.000 A 
ATOM      9  C   UNL     1       2.928   6.538  19.355  0.00  0.00    +0.000 A 
ENDROOT
BRANCH   7  10
ATOM     10  C   UNL     1       5.643   6.266  16.705  0.00  0.00    +0.000 A 
ATOM     11  C   UNL     1       5.762   5.290  15.662  0.00  0.00    +0.000 A 
ATOM     12  C   UNL     1       4.754   4.401  15.037  0.00  0.00    +0.000 C 
ATOM     13  N   UNL     1       7.021   5.209  15.210  0.00  0.00    +0.000 NA
ATOM     14  O   UNL     1       7.744   6.125  15.935  0.00  0.00    +0.000 OA
ATOM     15  C   UNL     1       6.932   6.762  16.817  0.00  0.00    +0.000 A 
ATOM     16  C   UNL     1       7.594   7.803  17.630  0.00  0.00    +0.000 C 
ENDBRANCH   7  10
BRANCH   1  17
ATOM     17  C   UNL     1       2.306   4.697  21.150  0.00  0.00    +0.000 C 
BRANCH  17  24
ATOM     18  C   UNL     1       4.583   2.837  20.156  0.00  0.00    +0.000 C 
ATOM     19  C   UNL     1       3.152   2.706  19.715  0.00  0.00    +0.000 A 
ATOM     20  C   UNL     1       2.839   1.644  18.841  0.00  0.00    +0.000 A 
ATOM     21  C   UNL     1       1.531   1.415  18.420  0.00  0.00    +0.000 A 
ATOM     22  C   UNL     1       0.514   2.253  18.854  0.00  0.00    +0.000 A 
ATOM     23  C   UNL     1       0.811   3.326  19.695  0.00  0.00    +0.000 A 
ATOM     24  C   UNL     1       2.126   3.586  20.133  0.00  0.00    +0.000 A 
ENDBRANCH  17  24
ENDBRANCH   1  17
BRANCH   3  25
ATOM     25  C   UNL     1       0.417   9.122  19.842  0.00  0.00    +0.000 C 
BRANCH  25  26
ATOM     26  C   UNL     1      -0.362   9.398  21.128  0.00  0.00    +0.000 C 
BRANCH  26  27
ATOM     27  C   UNL     1       0.145  10.619  21.896  0.00  0.00    +0.000 C 
BRANCH  27  28
ATOM     28  C   UNL     1      -0.947  11.141  22.833  0.00  0.00    +0.000 C 
BRANCH  28  29
ATOM     29  C   UNL     1      -1.539  12.456  22.334  0.00  0.00    +0.000 C 
BRANCH  29  30
ATOM     30  C   UNL     1      -3.062  12.449  22.437  0.00  0.00    +0.000 C 
BRANCH  30  31
ATOM     31  C   UNL     1      -3.528  12.792  23.836  0.00  0.00    +0.000 C 
ATOM     32  O   UNL     1      -3.139  13.757  24.488  0.00  0.00    +0.000 OA
ATOM     33  N   UNL     1      -4.445  11.900  24.342  0.00  0.00    +0.000 N 
ATOM     34  H   UNL     1      -5.029  11.321  23.750  0.00  0.00    +0.000 HD
BRANCH  33  35
ATOM     35  O   UNL     1      -4.986  12.256  25.603  0.00  0.00    +0.000 OA
ATOM     36  H   UNL     1      -4.275  11.976  26.222  0.00  0.00    +0.000 HD
ENDBRANCH  33  35
ENDBRANCH  30  31
ENDBRANCH  29  30
ENDBRANCH  28  29
ENDBRANCH  27  28
ENDBRANCH  26  27
ENDBRANCH  25  26
ENDBRANCH   3  25
TORSDOF 11
ENDMDL
MODEL 8
REMARK VINA RESULT:      -7.7      2.859      8.636
REMARK  Name = 
REMARK  14 active torsions:
REMARK  status: ('A' for Active; 'I' for Inactive)
REMARK    1  A    between atoms: C_1  and  C_2
REMARK    2  A    between atoms: C_7  and  C_8
REMARK    3  A    between atoms: C_8  and  C_9
REMARK    4  A    between atoms: N_11  and  C_12
REMARK    5  A    between atoms: C_12  and  C_13
REMARK    6  A    between atoms: C_13  and  C_14
REMARK    7  A    between atoms: C_14  and  C_15
REMARK    8  A    between atoms: C_15  and  C_16
REMARK    9  A    between atoms: C_16  and  C_17
REMARK   10  A    between atoms: C_17  and  C_18
REMARK   11  A    between atoms: N_20  and  O_21
REMARK   12  A    between atoms: C_25  and  C_26
REMARK   13  A    between atoms: C_27  and  C_28
REMARK   14  A    between atoms: C_31  and  C_32
REMARK                            x       y       z     vdW  Elec       q    Type
REMARK                         _______ _______ _______ _____ _____    ______ ____
ROOT
ATOM      1  C   UNL     1       2.201   5.717  20.498  0.00  0.00    +0.000 A 
ATOM      2  C   UNL     1       1.376   6.807  20.707  0.00  0.00    +0.000 A 
ATOM      3  N   UNL     1       1.638   7.758  19.755  0.00  0.00    +0.000 N 
ATOM      4  C   UNL     1       2.684   7.348  18.958  0.00  0.00    +0.000 A 
ATOM      5  C   UNL     1       3.329   7.973  17.880  0.00  0.00    +0.000 A 
ATOM      6  C   UNL     1       4.382   7.299  17.247  0.00  0.00    +0.000 A 
ATOM      7  C   UNL     1       4.763   6.006  17.624  0.00  0.00    +0.000 A 
ATOM      8  C   UNL     1       4.049   5.380  18.666  0.00  0.00    +0.000 A 
ATOM      9  C   UNL     1       3.038   6.062  19.382  0.00  0.00    +0.000 A 
ENDROOT
BRANCH   7  10
ATOM     10  C   UNL     1       5.899   5.350  16.981  0.00  0.00    +0.000 A 
ATOM     11  C   UNL     1       6.074   4.765  15.684  0.00  0.00    +0.000 A 
ATOM     12  C   UNL     1       5.124   4.579  14.560  0.00  0.00    +0.000 C 
ATOM     13  N   UNL     1       7.328   4.329  15.509  0.00  0.00    +0.000 NA
ATOM     14  O   UNL     1       7.997   4.620  16.672  0.00  0.00    +0.000 OA
ATOM     15  C   UNL     1       7.158   5.234  17.546  0.00  0.00    +0.000 A 
ATOM     16  C   UNL     1       7.780   5.634  18.826  0.00  0.00    +0.000 C 
ENDBRANCH   7  10
BRANCH   1  17
ATOM     17  C   UNL     1       2.082   4.405  21.209  0.00  0.00    +0.000 C 
BRANCH  17  24
ATOM     18  C   UNL     1       0.382   3.129  18.949  0.00  0.00    +0.000 C 
ATOM     19  C   UNL     1       1.786   2.702  19.273  0.00  0.00    +0.000 A 
ATOM     20  C   UNL     1       2.361   1.700  18.463  0.00  0.00    +0.000 A 
ATOM     21  C   UNL     1       3.674   1.278  18.658  0.00  0.00    +0.000 A 
ATOM     22  C   UNL     1       4.432   1.839  19.676  0.00  0.00    +0.000 A 
ATOM     23  C   UNL     1       3.869   2.810  20.505  0.00  0.00    +0.000 A 
ATOM     24  C   UNL     1       2.540   3.254  20.336  0.00  0.00    +0.000 A 
ENDBRANCH  17  24
ENDBRANCH   1  17
BRANCH   3  25
ATOM     25  C   UNL     1       0.798   8.922  19.535  0.00  0.00    +0.000 C 
BRANCH  25  26
ATOM     26  C   UNL     1       0.051   9.426  20.769  0.00  0.00    +0.000 C 
BRANCH  26  27
ATOM     27  C   UNL     1       0.664  10.687  21.379  0.00  0.00    +0.000 C 
BRANCH  27  28
ATOM     28  C   UNL     1      -0.331  11.847  21.298  0.00  0.00    +0.000 C 
BRANCH  28  29
ATOM     29  C   UNL     1      -1.348  11.800  22.434  0.00  0.00    +0.000 C 
BRANCH  29  30
ATOM     30  C   UNL     1      -2.636  12.524  22.051  0.00  0.00    +0.000 C 
BRANCH  30  31
ATOM     31  C   UNL     1      -3.549  12.707  23.243  0.00  0.00    +0.000 C 
ATOM     32  O   UNL     1      -3.762  11.854  24.101  0.00  0.00    +0.000 OA
ATOM     33  N   UNL     1      -4.153  13.943  23.288  0.00  0.00    +0.000 N 
ATOM     34  H   UNL     1      -3.764  14.758  22.828  0.00  0.00    +0.000 HD
BRANCH  33  35
ATOM     35  O   UNL     1      -4.924  14.186  24.452  0.00  0.00    +0.000 OA
ATOM     36  H   UNL     1      -4.276  14.013  25.171  0.00  0.00    +0.000 HD
ENDBRANCH  33  35
ENDBRANCH  30  31
ENDBRANCH  29  30
ENDBRANCH  28  29
ENDBRANCH  27  28
ENDBRANCH  26  27
ENDBRANCH  25  26
ENDBRANCH   3  25
TORSDOF 11
ENDMDL
MODEL 9
REMARK VINA RESULT:      -7.6      2.530      8.124
REMARK  Name = 
REMARK  14 active torsions:
REMARK  status: ('A' for Active; 'I' for Inactive)
REMARK    1  A    between atoms: C_1  and  C_2
REMARK    2  A    between atoms: C_7  and  C_8
REMARK    3  A    between atoms: C_8  and  C_9
REMARK    4  A    between atoms: N_11  and  C_12
REMARK    5  A    between atoms: C_12  and  C_13
REMARK    6  A    between atoms: C_13  and  C_14
REMARK    7  A    between atoms: C_14  and  C_15
REMARK    8  A    between atoms: C_15  and  C_16
REMARK    9  A    between atoms: C_16  and  C_17
REMARK   10  A    between atoms: C_17  and  C_18
REMARK   11  A    between atoms: N_20  and  O_21
REMARK   12  A    between atoms: C_25  and  C_26
REMARK   13  A    between atoms: C_27  and  C_28
REMARK   14  A    between atoms: C_31  and  C_32
REMARK                            x       y       z     vdW  Elec       q    Type
REMARK                         _______ _______ _______ _____ _____    ______ ____
ROOT
ATOM      1  C   UNL     1       2.126   5.797  20.376  0.00  0.00    +0.000 A 
ATOM      2  C   UNL     1       1.399   6.946  20.632  0.00  0.00    +0.000 A 
ATOM      3  N   UNL     1       1.777   7.923  19.749  0.00  0.00    +0.000 N 
ATOM      4  C   UNL     1       2.805   7.465  18.954  0.00  0.00    +0.000 A 
ATOM      5  C   UNL     1       3.538   8.091  17.934  0.00  0.00    +0.000 A 
ATOM      6  C   UNL     1       4.543   7.360  17.286  0.00  0.00    +0.000 A 
ATOM      7  C   UNL     1       4.791   6.017  17.591  0.00  0.00    +0.000 A 
ATOM      8  C   UNL     1       3.989   5.399  18.573  0.00  0.00    +0.000 A 
ATOM      9  C   UNL     1       3.025   6.129  19.305  0.00  0.00    +0.000 A 
ENDROOT
BRANCH   7  10
ATOM     10  C   UNL     1       5.880   5.296  16.936  0.00  0.00    +0.000 A 
ATOM     11  C   UNL     1       6.012   4.711  15.634  0.00  0.00    +0.000 A 
ATOM     12  C   UNL     1       5.046   4.595  14.514  0.00  0.00    +0.000 C 
ATOM     13  N   UNL     1       7.235   4.200  15.449  0.00  0.00    +0.000 NA
ATOM     14  O   UNL     1       7.927   4.440  16.611  0.00  0.00    +0.000 OA
ATOM     15  C   UNL     1       7.133   5.098  17.494  0.00  0.00    +0.000 A 
ATOM     16  C   UNL     1       7.784   5.448  18.774  0.00  0.00    +0.000 C 
ENDBRANCH   7  10
BRANCH   1  17
ATOM     17  C   UNL     1       1.864   4.462  21.000  0.00  0.00    +0.000 C 
BRANCH  17  24
ATOM     18  C   UNL     1       0.515   3.227  18.493  0.00  0.00    +0.000 C 
ATOM     19  C   UNL     1       1.864   2.803  19.004  0.00  0.00    +0.000 A 
ATOM     20  C   UNL     1       2.559   1.826  18.262  0.00  0.00    +0.000 A 
ATOM     21  C   UNL     1       3.835   1.409  18.631  0.00  0.00    +0.000 A 
ATOM     22  C   UNL     1       4.435   1.952  19.758  0.00  0.00    +0.000 A 
ATOM     23  C   UNL     1       3.750   2.898  20.521  0.00  0.00    +0.000 A 
ATOM     24  C   UNL     1       2.454   3.336  20.175  0.00  0.00    +0.000 A 
ENDBRANCH  17  24
ENDBRANCH   1  17
BRANCH   3  25
ATOM     25  C   UNL     1       1.055   9.172  19.581  0.00  0.00    +0.000 C 
BRANCH  25  26
ATOM     26  C   UNL     1       0.536   9.437  18.167  0.00  0.00    +0.000 C 
BRANCH  26  27
ATOM     27  C   UNL     1      -0.604  10.454  18.118  0.00  0.00    +0.000 C 
BRANCH  27  28
ATOM     28  C   UNL     1      -1.952   9.729  18.069  0.00  0.00    +0.000 C 
BRANCH  28  29
ATOM     29  C   UNL     1      -2.844  10.271  16.955  0.00  0.00    +0.000 C 
BRANCH  29  30
ATOM     30  C   UNL     1      -2.399   9.750  15.591  0.00  0.00    +0.000 C 
BRANCH  30  31
ATOM     31  C   UNL     1      -3.368  10.147  14.499  0.00  0.00    +0.000 C 
ATOM     32  O   UNL     1      -4.419  10.754  14.681  0.00  0.00    +0.000 OA
ATOM     33  N   UNL     1      -2.971   9.750  13.242  0.00  0.00    +0.000 N 
ATOM     34  H   UNL     1      -2.002   9.568  13.007  0.00  0.00    +0.000 HD
BRANCH  33  35
ATOM     35  O   UNL     1      -3.799  10.206  12.186  0.00  0.00    +0.000 OA
ATOM     36  H   UNL     1      -4.695  10.159  12.588  0.00  0.00    +0.000 HD
ENDBRANCH  33  35
ENDBRANCH  30  31
ENDBRANCH  29  30
ENDBRANCH  28  29
ENDBRANCH  27  28
ENDBRANCH  26  27
ENDBRANCH  25  26
ENDBRANCH   3  25
TORSDOF 11
ENDMDL
