MODEL 1
REMARK VINA RESULT:      -6.8      0.000      0.000
REMARK  Name = 
REMARK  3 active torsions:
REMARK  status: ('A' for Active; 'I' for Inactive)
REMARK    1  A    between atoms: C_1  and  N_2
REMARK    2  A    between atoms: C_5  and  C_6
REMARK    3  A    between atoms: C_9  and  N_10
REMARK                            x       y       z     vdW  Elec       q    Type
REMARK                         _______ _______ _______ _____ _____    ______ ____
ROOT
ATOM      1  C   UNL     1       4.093   5.060  17.483  0.00  0.00    +0.000 A 
ATOM      2  C   UNL     1       4.585   3.820  17.044  0.00  0.00    +0.000 A 
ATOM      3  C   UNL     1       5.482   3.745  15.975  0.00  0.00    +0.000 A 
ATOM      4  C   UNL     1       5.892   4.920  15.334  0.00  0.00    +0.000 A 
ATOM      5  C   UNL     1       5.414   6.165  15.758  0.00  0.00    +0.000 A 
ATOM      6  C   UNL     1       4.519   6.228  16.832  0.00  0.00    +0.000 A 
ENDROOT
BRANCH   1  11
ATOM      7  C   UNL     1       1.405   8.534  20.375  0.00  0.00    +0.000 C 
ATOM      8  N   UNL     1       1.641   7.252  21.000  0.00  0.00    +0.000 N 
ATOM      9  C   UNL     1       2.110   6.246  20.228  0.00  0.00    +0.000 A 
ATOM     10  N   UNL     1       2.836   6.394  19.146  0.00  0.00    +0.000 NA
ATOM     11  C   UNL     1       3.196   5.160  18.630  0.00  0.00    +0.000 A 
ATOM     12  C   UNL     1       2.645   4.078  19.286  0.00  0.00    +0.000 A 
ATOM     13  S   UNL     1       1.752   4.613  20.644  0.00  0.00    +0.000 S 
ATOM     14  H   UNL     1       0.958   6.991  21.702  0.00  0.00    +0.000 HD
ENDBRANCH   1  11
BRANCH   4  15
ATOM     15  N   UNL     1       6.838   4.844  14.214  0.00  0.00    +0.000 N 
ATOM     16  O   UNL     1       7.864   5.539  14.277  0.00  0.00    +0.000 OA
ATOM     17  O   UNL     1       6.559   4.088  13.273  0.00  0.00    +0.000 OA
ENDBRANCH   4  15
TORSDOF 2
ENDMDL
MODEL 2
REMARK VINA RESULT:      -6.8      0.094      1.215
REMARK  Name = 
REMARK  3 active torsions:
REMARK  status: ('A' for Active; 'I' for Inactive)
REMARK    1  A    between atoms: C_1  and  N_2
REMARK    2  A    between atoms: C_5  and  C_6
REMARK    3  A    between atoms: C_9  and  N_10
REMARK                            x       y       z     vdW  Elec       q    Type
REMARK                         _______ _______ _______ _____ _____    ______ ____
ROOT
ATOM      1  C   UNL     1       4.167   5.140  17.529  0.00  0.00    +0.000 A 
ATOM      2  C   UNL     1       4.638   6.286  16.870  0.00  0.00    +0.000 A 
ATOM      3  C   UNL     1       5.497   6.178  15.772  0.00  0.00    +0.000 A 
ATOM      4  C   UNL     1       5.891   4.910  15.326  0.00  0.00    +0.000 A 
ATOM      5  C   UNL     1       5.430   3.756  15.970  0.00  0.00    +0.000 A 
ATOM      6  C   UNL     1       4.569   3.877  17.066  0.00  0.00    +0.000 A 
ENDROOT
BRANCH   1  11
ATOM      7  C   UNL     1       1.377   8.599  20.341  0.00  0.00    +0.000 C 
ATOM      8  N   UNL     1       1.593   7.315  20.968  0.00  0.00    +0.000 N 
ATOM      9  C   UNL     1       2.090   6.313  20.209  0.00  0.00    +0.000 A 
ATOM     10  N   UNL     1       2.852   6.465  19.154  0.00  0.00    +0.000 NA
ATOM     11  C   UNL     1       3.231   5.234  18.645  0.00  0.00    +0.000 A 
ATOM     12  C   UNL     1       2.660   4.149  19.278  0.00  0.00    +0.000 A 
ATOM     13  S   UNL     1       1.720   4.677  20.606  0.00  0.00    +0.000 S 
ATOM     14  H   UNL     1       0.887   7.050  21.646  0.00  0.00    +0.000 HD
ENDBRANCH   1  11
BRANCH   4  15
ATOM     15  N   UNL     1       6.788   4.793  14.170  0.00  0.00    +0.000 N 
ATOM     16  O   UNL     1       7.789   5.526  14.140  0.00  0.00    +0.000 OA
ATOM     17  O   UNL     1       6.497   3.967  13.295  0.00  0.00    +0.000 OA
ENDBRANCH   4  15
TORSDOF 2
ENDMDL
MODEL 3
REMARK VINA RESULT:      -6.7      1.395      2.034
REMARK  Name = 
REMARK  3 active torsions:
REMARK  status: ('A' for Active; 'I' for Inactive)
REMARK    1  A    between atoms: C_1  and  N_2
REMARK    2  A    between atoms: C_5  and  C_6
REMARK    3  A    between atoms: C_9  and  N_10
REMARK                            x       y       z     vdW  Elec       q    Type
REMARK                         _______ _______ _______ _____ _____    ______ ____
ROOT
ATOM      1  C   UNL     1       4.203   5.207  17.473  0.00  0.00    +0.000 A 
ATOM      2  C   UNL     1       4.662   3.942  17.072  0.00  0.00    +0.000 A 
ATOM      3  C   UNL     1       5.514   3.807  15.973  0.00  0.00    +0.000 A 
ATOM      4  C   UNL     1       5.913   4.945  15.263  0.00  0.00    +0.000 A 
ATOM      5  C   UNL     1       5.467   6.215  15.649  0.00  0.00    +0.000 A 
ATOM      6  C   UNL     1       4.616   6.339  16.752  0.00  0.00    +0.000 A 
ENDROOT
BRANCH   1  11
ATOM      7  C   UNL     1       2.265   2.596  21.607  0.00  0.00    +0.000 C 
ATOM      8  N   UNL     1       1.565   3.810  21.251  0.00  0.00    +0.000 N 
ATOM      9  C   UNL     1       2.148   4.642  20.360  0.00  0.00    +0.000 A 
ATOM     10  N   UNL     1       2.990   4.281  19.422  0.00  0.00    +0.000 NA
ATOM     11  C   UNL     1       3.353   5.372  18.647  0.00  0.00    +0.000 A 
ATOM     12  C   UNL     1       2.845   6.580  19.081  0.00  0.00    +0.000 A 
ATOM     13  S   UNL     1       1.803   6.329  20.415  0.00  0.00    +0.000 S 
ATOM     14  H   UNL     1       1.072   4.255  22.017  0.00  0.00    +0.000 HD
ENDBRANCH   1  11
BRANCH   4  15
ATOM     15  N   UNL     1       6.813   4.806  14.112  0.00  0.00    +0.000 N 
ATOM     16  O   UNL     1       7.824   5.523  14.080  0.00  0.00    +0.000 OA
ATOM     17  O   UNL     1       6.513   3.977  13.241  0.00  0.00    +0.000 OA
ENDBRANCH   4  15
TORSDOF 2
ENDMDL
MODEL 4
REMARK VINA RESULT:      -6.7      1.401      2.374
REMARK  Name = 
REMARK  3 active torsions:
REMARK  status: ('A' for Active; 'I' for Inactive)
REMARK    1  A    between atoms: C_1  and  N_2
REMARK    2  A    between atoms: C_5  and  C_6
REMARK    3  A    between atoms: C_9  and  N_10
REMARK                            x       y       z     vdW  Elec       q    Type
REMARK                         _______ _______ _______ _____ _____    ______ ____
ROOT
ATOM      1  C   UNL     1       4.274   5.245  17.557  0.00  0.00    +0.000 A 
ATOM      2  C   UNL     1       4.690   6.358  16.809  0.00  0.00    +0.000 A 
ATOM      3  C   UNL     1       5.507   6.200  15.686  0.00  0.00    +0.000 A 
ATOM      4  C   UNL     1       5.916   4.917  15.305  0.00  0.00    +0.000 A 
ATOM      5  C   UNL     1       5.510   3.795  16.037  0.00  0.00    +0.000 A 
ATOM      6  C   UNL     1       4.690   3.965  17.158  0.00  0.00    +0.000 A 
ENDROOT
BRANCH   1  11
ATOM      7  C   UNL     1       2.218   2.572  21.592  0.00  0.00    +0.000 C 
ATOM      8  N   UNL     1       1.518   3.781  21.224  0.00  0.00    +0.000 N 
ATOM      9  C   UNL     1       2.124   4.629  20.362  0.00  0.00    +0.000 A 
ATOM     10  N   UNL     1       3.002   4.287  19.452  0.00  0.00    +0.000 NA
ATOM     11  C   UNL     1       3.381   5.389  18.702  0.00  0.00    +0.000 A 
ATOM     12  C   UNL     1       2.846   6.587  19.129  0.00  0.00    +0.000 A 
ATOM     13  S   UNL     1       1.759   6.312  20.422  0.00  0.00    +0.000 S 
ATOM     14  H   UNL     1       0.993   4.214  21.976  0.00  0.00    +0.000 HD
ENDBRANCH   1  11
BRANCH   4  15
ATOM     15  N   UNL     1       6.769   4.747  14.122  0.00  0.00    +0.000 N 
ATOM     16  O   UNL     1       7.760   5.486  14.016  0.00  0.00    +0.000 OA
ATOM     17  O   UNL     1       6.453   3.873  13.303  0.00  0.00    +0.000 OA
ENDBRANCH   4  15
TORSDOF 2
ENDMDL
MODEL 5
REMARK VINA RESULT:      -6.4      1.475      2.534
REMARK  Name = 
REMARK  3 active torsions:
REMARK  status: ('A' for Active; 'I' for Inactive)
REMARK    1  A    between atoms: C_1  and  N_2
REMARK    2  A    between atoms: C_5  and  C_6
REMARK    3  A    between atoms: C_9  and  N_10
REMARK                            x       y       z     vdW  Elec       q    Type
REMARK                         _______ _______ _______ _____ _____    ______ ____
ROOT
ATOM      1  C   UNL     1       4.296   5.136  17.318  0.00  0.00    +0.000 A 
ATOM      2  C   UNL     1       4.700   6.269  16.594  0.00  0.00    +0.000 A 
ATOM      3  C   UNL     1       5.551   6.147  15.492  0.00  0.00    +0.000 A 
ATOM      4  C   UNL     1       6.007   4.880  15.108  0.00  0.00    +0.000 A 
ATOM      5  C   UNL     1       5.613   3.739  15.817  0.00  0.00    +0.000 A 
ATOM      6  C   UNL     1       4.759   3.873  16.916  0.00  0.00    +0.000 A 
ENDROOT
BRANCH   1  11
ATOM      7  C   UNL     1       0.936   2.315  20.219  0.00  0.00    +0.000 C 
ATOM      8  N   UNL     1       0.753   3.748  20.270  0.00  0.00    +0.000 N 
ATOM      9  C   UNL     1       1.722   4.531  19.744  0.00  0.00    +0.000 A 
ATOM     10  N   UNL     1       2.537   4.185  18.777  0.00  0.00    +0.000 NA
ATOM     11  C   UNL     1       3.368   5.241  18.440  0.00  0.00    +0.000 A 
ATOM     12  C   UNL     1       3.232   6.359  19.238  0.00  0.00    +0.000 A 
ATOM     13  S   UNL     1       1.960   6.123  20.358  0.00  0.00    +0.000 S 
ATOM     14  H   UNL     1       0.319   4.091  21.119  0.00  0.00    +0.000 HD
ENDBRANCH   1  11
BRANCH   4  15
ATOM     15  N   UNL     1       6.897   4.748  13.948  0.00  0.00    +0.000 N 
ATOM     16  O   UNL     1       6.638   3.862  13.121  0.00  0.00    +0.000 OA
ATOM     17  O   UNL     1       7.852   5.533  13.861  0.00  0.00    +0.000 OA
ENDBRANCH   4  15
TORSDOF 2
ENDMDL
MODEL 6
REMARK VINA RESULT:      -6.3      1.468      2.032
REMARK  Name = 
REMARK  3 active torsions:
REMARK  status: ('A' for Active; 'I' for Inactive)
REMARK    1  A    between atoms: C_1  and  N_2
REMARK    2  A    between atoms: C_5  and  C_6
REMARK    3  A    between atoms: C_9  and  N_10
REMARK                            x       y       z     vdW  Elec       q    Type
REMARK                         _______ _______ _______ _____ _____    ______ ____
ROOT
ATOM      1  C   UNL     1       5.311   4.389  16.758  0.00  0.00    +0.000 A 
ATOM      2  C   UNL     1       6.631   4.855  16.859  0.00  0.00    +0.000 A 
ATOM      3  C   UNL     1       7.401   5.074  15.714  0.00  0.00    +0.000 A 
ATOM      4  C   UNL     1       6.849   4.824  14.452  0.00  0.00    +0.000 A 
ATOM      5  C   UNL     1       5.534   4.361  14.331  0.00  0.00    +0.000 A 
ATOM      6  C   UNL     1       4.771   4.148  15.484  0.00  0.00    +0.000 A 
ENDROOT
BRANCH   1  11
ATOM      7  C   UNL     1       2.127   6.970  20.054  0.00  0.00    +0.000 C 
ATOM      8  N   UNL     1       2.656   5.719  20.549  0.00  0.00    +0.000 N 
ATOM      9  C   UNL     1       3.280   4.901  19.671  0.00  0.00    +0.000 A 
ATOM     10  N   UNL     1       3.899   5.287  18.582  0.00  0.00    +0.000 NA
ATOM     11  C   UNL     1       4.477   4.203  17.941  0.00  0.00    +0.000 A 
ATOM     12  C   UNL     1       4.198   2.979  18.515  0.00  0.00    +0.000 A 
ATOM     13  S   UNL     1       3.290   3.201  19.948  0.00  0.00    +0.000 S 
ATOM     14  H   UNL     1       2.082   5.263  21.249  0.00  0.00    +0.000 HD
ENDBRANCH   1  11
BRANCH   4  15
ATOM     15  N   UNL     1       7.655   5.058  13.247  0.00  0.00    +0.000 N 
ATOM     16  O   UNL     1       7.348   4.436  12.219  0.00  0.00    +0.000 OA
ATOM     17  O   UNL     1       8.590   5.867  13.326  0.00  0.00    +0.000 OA
ENDBRANCH   4  15
TORSDOF 2
ENDMDL
MODEL 7
REMARK VINA RESULT:      -6.3      4.710      6.603
REMARK  Name = 
REMARK  3 active torsions:
REMARK  status: ('A' for Active; 'I' for Inactive)
REMARK    1  A    between atoms: C_1  and  N_2
REMARK    2  A    between atoms: C_5  and  C_6
REMARK    3  A    between atoms: C_9  and  N_10
REMARK                            x       y       z     vdW  Elec       q    Type
REMARK                         _______ _______ _______ _____ _____    ______ ____
ROOT
ATOM      1  C   UNL     1       2.807   7.152  18.608  0.00  0.00    +0.000 A 
ATOM      2  C   UNL     1       2.541   8.196  17.707  0.00  0.00    +0.000 A 
ATOM      3  C   UNL     1       1.726   9.269  18.078  0.00  0.00    +0.000 A 
ATOM      4  C   UNL     1       1.169   9.303  19.362  0.00  0.00    +0.000 A 
ATOM      5  C   UNL     1       1.425   8.273  20.274  0.00  0.00    +0.000 A 
ATOM      6  C   UNL     1       2.244   7.205  19.893  0.00  0.00    +0.000 A 
ENDROOT
BRANCH   1  11
ATOM      7  C   UNL     1       4.252   2.325  20.113  0.00  0.00    +0.000 C 
ATOM      8  N   UNL     1       5.178   3.009  19.239  0.00  0.00    +0.000 N 
ATOM      9  C   UNL     1       4.759   4.142  18.631  0.00  0.00    +0.000 A 
ATOM     10  N   UNL     1       3.843   4.958  19.094  0.00  0.00    +0.000 NA
ATOM     11  C   UNL     1       3.695   6.050  18.255  0.00  0.00    +0.000 A 
ATOM     12  C   UNL     1       4.446   5.993  17.098  0.00  0.00    +0.000 A 
ATOM     13  S   UNL     1       5.441   4.601  17.117  0.00  0.00    +0.000 S 
ATOM     14  H   UNL     1       5.766   2.399  18.682  0.00  0.00    +0.000 HD
ENDBRANCH   1  11
BRANCH   4  15
ATOM     15  N   UNL     1       0.318  10.433  19.755  0.00  0.00    +0.000 N 
ATOM     16  O   UNL     1      -0.908  10.306  19.616  0.00  0.00    +0.000 OA
ATOM     17  O   UNL     1       0.873  11.444  20.207  0.00  0.00    +0.000 OA
ENDBRANCH   4  15
TORSDOF 2
ENDMDL
MODEL 8
REMARK VINA RESULT:      -6.2      4.623      6.170
REMARK  Name = 
REMARK  3 active torsions:
REMARK  status: ('A' for Active; 'I' for Inactive)
REMARK    1  A    between atoms: C_1  and  N_2
REMARK    2  A    between atoms: C_5  and  C_6
REMARK    3  A    between atoms: C_9  and  N_10
REMARK                            x       y       z     vdW  Elec       q    Type
REMARK                         _______ _______ _______ _____ _____    ______ ____
ROOT
ATOM      1  C   UNL     1       4.290   4.137  17.928  0.00  0.00    +0.000 A 
ATOM      2  C   UNL     1       2.974   4.367  17.495  0.00  0.00    +0.000 A 
ATOM      3  C   UNL     1       1.885   3.917  18.246  0.00  0.00    +0.000 A 
ATOM      4  C   UNL     1       2.109   3.227  19.443  0.00  0.00    +0.000 A 
ATOM      5  C   UNL     1       3.414   2.990  19.892  0.00  0.00    +0.000 A 
ATOM      6  C   UNL     1       4.496   3.448  19.134  0.00  0.00    +0.000 A 
ENDROOT
BRANCH   1  11
ATOM      7  C   UNL     1       7.990   7.874  18.014  0.00  0.00    +0.000 C 
ATOM      8  N   UNL     1       7.752   7.261  16.726  0.00  0.00    +0.000 N 
ATOM      9  C   UNL     1       6.993   6.142  16.686  0.00  0.00    +0.000 A 
ATOM     10  N   UNL     1       6.057   5.827  17.548  0.00  0.00    +0.000 NA
ATOM     11  C   UNL     1       5.437   4.644  17.182  0.00  0.00    +0.000 A 
ATOM     12  C   UNL     1       5.989   4.021  16.082  0.00  0.00    +0.000 A 
ATOM     13  S   UNL     1       7.235   4.992  15.426  0.00  0.00    +0.000 S 
ATOM     14  H   UNL     1       8.542   7.283  16.093  0.00  0.00    +0.000 HD
ENDBRANCH   1  11
BRANCH   4  15
ATOM     15  N   UNL     1       0.967   2.758  20.237  0.00  0.00    +0.000 N 
ATOM     16  O   UNL     1       1.109   2.687  21.467  0.00  0.00    +0.000 OA
ATOM     17  O   UNL     1      -0.074   2.464  19.632  0.00  0.00    +0.000 OA
ENDBRANCH   4  15
TORSDOF 2
ENDMDL
MODEL 9
REMARK VINA RESULT:      -6.2      1.420      1.710
REMARK  Name = 
REMARK  3 active torsions:
REMARK  status: ('A' for Active; 'I' for Inactive)
REMARK    1  A    between atoms: C_1  and  N_2
REMARK    2  A    between atoms: C_5  and  C_6
REMARK    3  A    between atoms: C_9  and  N_10
REMARK                            x       y       z     vdW  Elec       q    Type
REMARK                         _______ _______ _______ _____ _____    ______ ____
ROOT
ATOM      1  C   UNL     1       5.229   4.561  16.714  0.00  0.00    +0.000 A 
ATOM      2  C   UNL     1       4.796   4.117  15.454  0.00  0.00    +0.000 A 
ATOM      3  C   UNL     1       5.597   4.290  14.321  0.00  0.00    +0.000 A 
ATOM      4  C   UNL     1       6.844   4.914  14.445  0.00  0.00    +0.000 A 
ATOM      5  C   UNL     1       7.293   5.361  15.693  0.00  0.00    +0.000 A 
ATOM      6  C   UNL     1       6.485   5.180  16.821  0.00  0.00    +0.000 A 
ENDROOT
BRANCH   1  11
ATOM      7  C   UNL     1       2.108   7.046  20.141  0.00  0.00    +0.000 C 
ATOM      8  N   UNL     1       2.661   5.791  20.597  0.00  0.00    +0.000 N 
ATOM      9  C   UNL     1       3.270   4.996  19.687  0.00  0.00    +0.000 A 
ATOM     10  N   UNL     1       3.857   5.409  18.591  0.00  0.00    +0.000 NA
ATOM     11  C   UNL     1       4.428   4.344  17.913  0.00  0.00    +0.000 A 
ATOM     12  C   UNL     1       4.175   3.106  18.469  0.00  0.00    +0.000 A 
ATOM     13  S   UNL     1       3.302   3.291  19.929  0.00  0.00    +0.000 S 
ATOM     14  H   UNL     1       2.109   5.315  21.302  0.00  0.00    +0.000 HD
ENDBRANCH   1  11
BRANCH   4  15
ATOM     15  N   UNL     1       7.690   5.091  13.258  0.00  0.00    +0.000 N 
ATOM     16  O   UNL     1       8.647   5.875  13.345  0.00  0.00    +0.000 OA
ATOM     17  O   UNL     1       7.401   4.445  12.242  0.00  0.00    +0.000 OA
ENDBRANCH   4  15
TORSDOF 2
ENDMDL
