MODEL 1
REMARK VINA RESULT:      -7.4      0.000      0.000
REMARK  Name = 
REMARK  5 active torsions:
REMARK  status: ('A' for Active; 'I' for Inactive)
REMARK    1  A    between atoms: C_1  and  C_2
REMARK    2  A    between atoms: C_2  and  N_3
REMARK    3  A    between atoms: C_5  and  C_6
REMARK    4  A    between atoms: C_11  and  C_12
REMARK    5  A    between atoms: C_11  and  C_13
REMARK                            x       y       z     vdW  Elec       q    Type
REMARK                         _______ _______ _______ _____ _____    ______ ____
ROOT
ATOM      1  N   UNL     1       1.206   9.321  19.413  0.00  0.00    +0.000 N 
ATOM      2  C   UNL     1       1.718   8.032  19.641  0.00  0.00    +0.000 C 
ATOM      3  C   UNL     1       2.415   7.268  18.771  0.00  0.00    +0.000 C 
ATOM      4  S   UNL     1       1.403   7.434  21.304  0.00  0.00    +0.000 S 
ATOM      5  C   UNL     1       0.533   8.945  21.651  0.00  0.00    +0.000 A 
ATOM      6  C   UNL     1      -0.099   9.251  22.851  0.00  0.00    +0.000 A 
ATOM      7  C   UNL     1      -0.736  10.481  22.970  0.00  0.00    +0.000 A 
ATOM      8  C   UNL     1      -0.725  11.383  21.899  0.00  0.00    +0.000 A 
ATOM      9  C   UNL     1      -0.090  11.059  20.692  0.00  0.00    +0.000 A 
ATOM     10  C   UNL     1       0.538   9.826  20.550  0.00  0.00    +0.000 A 
ENDROOT
BRANCH   3  11
ATOM     11  C   UNL     1       2.976   5.943  19.016  0.00  0.00    +0.000 C 
ATOM     12  C   UNL     1       4.302   5.737  19.075  0.00  0.00    +0.000 C 
ATOM     13  C   UNL     1       4.861   4.373  19.207  0.00  0.00    +0.000 C 
ATOM     14  O   UNL     1       6.075   4.236  19.347  0.00  0.00    +0.000 OA
ATOM     15  C   UNL     1       3.924   3.184  19.217  0.00  0.00    +0.000 C 
ATOM     16  C   UNL     1       2.537   3.471  18.607  0.00  0.00    +0.000 C 
ATOM     17  C   UNL     1       1.582   2.325  18.987  0.00  0.00    +0.000 C 
ATOM     18  C   UNL     1       2.623   3.521  17.067  0.00  0.00    +0.000 C 
ATOM     19  C   UNL     1       1.988   4.808  19.159  0.00  0.00    +0.000 C 
ENDBRANCH   3  11
BRANCH   1  21
ATOM     20  C   UNL     1       2.258  10.986  17.935  0.00  0.00    +0.000 C 
ATOM     21  C   UNL     1       1.102  10.013  18.133  0.00  0.00    +0.000 C 
ENDBRANCH   1  21
TORSDOF 2
ENDMDL
MODEL 2
REMARK VINA RESULT:      -7.0      1.407      1.765
REMARK  Name = 
REMARK  5 active torsions:
REMARK  status: ('A' for Active; 'I' for Inactive)
REMARK    1  A    between atoms: C_1  and  C_2
REMARK    2  A    between atoms: C_2  and  N_3
REMARK    3  A    between atoms: C_5  and  C_6
REMARK    4  A    between atoms: C_11  and  C_12
REMARK    5  A    between atoms: C_11  and  C_13
REMARK                            x       y       z     vdW  Elec       q    Type
REMARK                         _______ _______ _______ _____ _____    ______ ____
ROOT
ATOM      1  N   UNL     1       0.279  10.191  19.349  0.00  0.00    +0.000 N 
ATOM      2  C   UNL     1       1.118   9.063  19.379  0.00  0.00    +0.000 C 
ATOM      3  C   UNL     1       1.781   8.515  18.337  0.00  0.00    +0.000 C 
ATOM      4  S   UNL     1       1.307   8.370  21.024  0.00  0.00    +0.000 S 
ATOM      5  C   UNL     1       0.194   9.611  21.643  0.00  0.00    +0.000 A 
ATOM      6  C   UNL     1      -0.230   9.725  22.962  0.00  0.00    +0.000 A 
ATOM      7  C   UNL     1      -1.102  10.756  23.292  0.00  0.00    +0.000 A 
ATOM      8  C   UNL     1      -1.528  11.656  22.307  0.00  0.00    +0.000 A 
ATOM      9  C   UNL     1      -1.099  11.526  20.979  0.00  0.00    +0.000 A 
ATOM     10  C   UNL     1      -0.240  10.490  20.629  0.00  0.00    +0.000 A 
ENDROOT
BRANCH   3  11
ATOM     11  C   UNL     1       2.679   7.364  18.371  0.00  0.00    +0.000 C 
ATOM     12  C   UNL     1       3.728   7.264  17.540  0.00  0.00    +0.000 C 
ATOM     13  C   UNL     1       4.563   6.041  17.504  0.00  0.00    +0.000 C 
ATOM     14  O   UNL     1       5.566   6.024  16.793  0.00  0.00    +0.000 OA
ATOM     15  C   UNL     1       4.191   4.862  18.378  0.00  0.00    +0.000 C 
ATOM     16  C   UNL     1       2.723   4.867  18.849  0.00  0.00    +0.000 C 
ATOM     17  C   UNL     1       2.565   3.842  19.987  0.00  0.00    +0.000 C 
ATOM     18  C   UNL     1       1.784   4.443  17.701  0.00  0.00    +0.000 C 
ATOM     19  C   UNL     1       2.342   6.275  19.363  0.00  0.00    +0.000 C 
ENDBRANCH   3  11
BRANCH   1  21
ATOM     20  C   UNL     1      -1.479  10.145  17.626  0.00  0.00    +0.000 C 
ATOM     21  C   UNL     1      -0.250  10.863  18.168  0.00  0.00    +0.000 C 
ENDBRANCH   1  21
TORSDOF 2
ENDMDL
MODEL 3
REMARK VINA RESULT:      -6.8      2.512      4.119
REMARK  Name = 
REMARK  5 active torsions:
REMARK  status: ('A' for Active; 'I' for Inactive)
REMARK    1  A    between atoms: C_1  and  C_2
REMARK    2  A    between atoms: C_2  and  N_3
REMARK    3  A    between atoms: C_5  and  C_6
REMARK    4  A    between atoms: C_11  and  C_12
REMARK    5  A    between atoms: C_11  and  C_13
REMARK                            x       y       z     vdW  Elec       q    Type
REMARK                         _______ _______ _______ _____ _____    ______ ____
ROOT
ATOM      1  N   UNL     1       2.214   6.433  19.711  0.00  0.00    +0.000 N 
ATOM      2  C   UNL     1       3.247   6.100  18.818  0.00  0.00    +0.000 C 
ATOM      3  C   UNL     1       3.915   4.928  18.748  0.00  0.00    +0.000 C 
ATOM      4  S   UNL     1       3.622   7.414  17.655  0.00  0.00    +0.000 S 
ATOM      5  C   UNL     1       2.385   8.422  18.439  0.00  0.00    +0.000 A 
ATOM      6  C   UNL     1       2.076   9.732  18.090  0.00  0.00    +0.000 A 
ATOM      7  C   UNL     1       1.076  10.388  18.799  0.00  0.00    +0.000 A 
ATOM      8  C   UNL     1       0.400   9.729  19.833  0.00  0.00    +0.000 A 
ATOM      9  C   UNL     1       0.728   8.411  20.180  0.00  0.00    +0.000 A 
ATOM     10  C   UNL     1       1.737   7.745  19.492  0.00  0.00    +0.000 A 
ENDROOT
BRANCH   3  11
ATOM     11  C   UNL     1       4.965   4.567  17.800  0.00  0.00    +0.000 C 
ATOM     12  C   UNL     1       6.263   4.592  18.142  0.00  0.00    +0.000 C 
ATOM     13  C   UNL     1       7.324   4.338  17.141  0.00  0.00    +0.000 C 
ATOM     14  O   UNL     1       8.495   4.283  17.513  0.00  0.00    +0.000 OA
ATOM     15  C   UNL     1       6.941   4.103  15.696  0.00  0.00    +0.000 C 
ATOM     16  C   UNL     1       5.539   4.628  15.323  0.00  0.00    +0.000 C 
ATOM     17  C   UNL     1       5.132   4.030  13.965  0.00  0.00    +0.000 C 
ATOM     18  C   UNL     1       5.557   6.163  15.176  0.00  0.00    +0.000 C 
ATOM     19  C   UNL     1       4.517   4.203  16.403  0.00  0.00    +0.000 C 
ENDBRANCH   3  11
BRANCH   1  21
ATOM     20  C   UNL     1       1.050   4.423  20.527  0.00  0.00    +0.000 C 
ATOM     21  C   UNL     1       1.805   5.693  20.899  0.00  0.00    +0.000 C 
ENDBRANCH   1  21
TORSDOF 2
ENDMDL
MODEL 4
REMARK VINA RESULT:      -6.7      1.488      2.334
REMARK  Name = 
REMARK  5 active torsions:
REMARK  status: ('A' for Active; 'I' for Inactive)
REMARK    1  A    between atoms: C_1  and  C_2
REMARK    2  A    between atoms: C_2  and  N_3
REMARK    3  A    between atoms: C_5  and  C_6
REMARK    4  A    between atoms: C_11  and  C_12
REMARK    5  A    between atoms: C_11  and  C_13
REMARK                            x       y       z     vdW  Elec       q    Type
REMARK                         _______ _______ _______ _____ _____    ______ ____
ROOT
ATOM      1  N   UNL     1       1.253   9.736  19.229  0.00  0.00    +0.000 N 
ATOM      2  C   UNL     1       1.724   8.427  19.027  0.00  0.00    +0.000 C 
ATOM      3  C   UNL     1       2.318   7.938  17.917  0.00  0.00    +0.000 C 
ATOM      4  S   UNL     1       1.512   7.374  20.466  0.00  0.00    +0.000 S 
ATOM      5  C   UNL     1       0.739   8.733  21.311  0.00  0.00    +0.000 A 
ATOM      6  C   UNL     1       0.215   8.685  22.598  0.00  0.00    +0.000 A 
ATOM      7  C   UNL     1      -0.357   9.838  23.124  0.00  0.00    +0.000 A 
ATOM      8  C   UNL     1      -0.388  11.015  22.365  0.00  0.00    +0.000 A 
ATOM      9  C   UNL     1       0.137  11.047  21.066  0.00  0.00    +0.000 A 
ATOM     10  C   UNL     1       0.697   9.898  20.518  0.00  0.00    +0.000 A 
ENDROOT
BRANCH   3  11
ATOM     11  C   UNL     1       2.837   6.589  17.716  0.00  0.00    +0.000 C 
ATOM     12  C   UNL     1       2.042   5.509  17.783  0.00  0.00    +0.000 C 
ATOM     13  C   UNL     1       2.599   4.140  17.694  0.00  0.00    +0.000 C 
ATOM     14  O   UNL     1       1.829   3.182  17.671  0.00  0.00    +0.000 OA
ATOM     15  C   UNL     1       4.098   3.954  17.584  0.00  0.00    +0.000 C 
ATOM     16  C   UNL     1       4.919   5.169  18.060  0.00  0.00    +0.000 C 
ATOM     17  C   UNL     1       6.372   5.003  17.579  0.00  0.00    +0.000 C 
ATOM     18  C   UNL     1       4.939   5.240  19.601  0.00  0.00    +0.000 C 
ATOM     19  C   UNL     1       4.324   6.468  17.469  0.00  0.00    +0.000 C 
ENDBRANCH   3  11
BRANCH   1  21
ATOM     20  C   UNL     1       2.202  11.805  18.292  0.00  0.00    +0.000 C 
ATOM     21  C   UNL     1       1.082  10.775  18.220  0.00  0.00    +0.000 C 
ENDBRANCH   1  21
TORSDOF 2
ENDMDL
MODEL 5
REMARK VINA RESULT:      -6.6      1.335      2.826
REMARK  Name = 
REMARK  5 active torsions:
REMARK  status: ('A' for Active; 'I' for Inactive)
REMARK    1  A    between atoms: C_1  and  C_2
REMARK    2  A    between atoms: C_2  and  N_3
REMARK    3  A    between atoms: C_5  and  C_6
REMARK    4  A    between atoms: C_11  and  C_12
REMARK    5  A    between atoms: C_11  and  C_13
REMARK                            x       y       z     vdW  Elec       q    Type
REMARK                         _______ _______ _______ _____ _____    ______ ____
ROOT
ATOM      1  N   UNL     1       1.182   8.941  21.014  0.00  0.00    +0.000 N 
ATOM      2  C   UNL     1       1.687   7.767  20.428  0.00  0.00    +0.000 C 
ATOM      3  C   UNL     1       1.789   6.550  21.004  0.00  0.00    +0.000 C 
ATOM      4  S   UNL     1       2.184   7.993  18.718  0.00  0.00    +0.000 S 
ATOM      5  C   UNL     1       1.735   9.709  18.844  0.00  0.00    +0.000 A 
ATOM      6  C   UNL     1       1.875  10.652  17.833  0.00  0.00    +0.000 A 
ATOM      7  C   UNL     1       1.472  11.959  18.085  0.00  0.00    +0.000 A 
ATOM      8  C   UNL     1       0.931  12.298  19.331  0.00  0.00    +0.000 A 
ATOM      9  C   UNL     1       0.803  11.338  20.345  0.00  0.00    +0.000 A 
ATOM     10  C   UNL     1       1.216  10.031  20.115  0.00  0.00    +0.000 A 
ENDROOT
BRANCH   3  11
ATOM     11  C   UNL     1       2.281   5.322  20.387  0.00  0.00    +0.000 C 
ATOM     12  C   UNL     1       3.576   5.161  20.070  0.00  0.00    +0.000 C 
ATOM     13  C   UNL     1       4.043   3.961  19.340  0.00  0.00    +0.000 C 
ATOM     14  O   UNL     1       5.248   3.810  19.147  0.00  0.00    +0.000 OA
ATOM     15  C   UNL     1       3.035   2.924  18.892  0.00  0.00    +0.000 C 
ATOM     16  C   UNL     1       1.587   3.449  18.812  0.00  0.00    +0.000 C 
ATOM     17  C   UNL     1       0.631   2.249  18.695  0.00  0.00    +0.000 C 
ATOM     18  C   UNL     1       1.397   4.325  17.556  0.00  0.00    +0.000 C 
ATOM     19  C   UNL     1       1.251   4.257  20.087  0.00  0.00    +0.000 C 
ENDBRANCH   3  11
BRANCH   1  21
ATOM     20  C   UNL     1      -0.610   9.084  22.696  0.00  0.00    +0.000 C 
ATOM     21  C   UNL     1       0.887   9.164  22.425  0.00  0.00    +0.000 C 
ENDBRANCH   1  21
TORSDOF 2
ENDMDL
MODEL 6
REMARK VINA RESULT:      -6.6      2.759      6.554
REMARK  Name = 
REMARK  5 active torsions:
REMARK  status: ('A' for Active; 'I' for Inactive)
REMARK    1  A    between atoms: C_1  and  C_2
REMARK    2  A    between atoms: C_2  and  N_3
REMARK    3  A    between atoms: C_5  and  C_6
REMARK    4  A    between atoms: C_11  and  C_12
REMARK    5  A    between atoms: C_11  and  C_13
REMARK                            x       y       z     vdW  Elec       q    Type
REMARK                         _______ _______ _______ _____ _____    ______ ____
ROOT
ATOM      1  N   UNL     1       3.353   6.097  18.033  0.00  0.00    +0.000 N 
ATOM      2  C   UNL     1       2.639   7.265  18.352  0.00  0.00    +0.000 C 
ATOM      3  C   UNL     1       2.573   8.402  17.624  0.00  0.00    +0.000 C 
ATOM      4  S   UNL     1       1.712   7.128  19.882  0.00  0.00    +0.000 S 
ATOM      5  C   UNL     1       2.352   5.482  20.089  0.00  0.00    +0.000 A 
ATOM      6  C   UNL     1       2.090   4.649  21.170  0.00  0.00    +0.000 A 
ATOM      7  C   UNL     1       2.664   3.382  21.184  0.00  0.00    +0.000 A 
ATOM      8  C   UNL     1       3.478   2.969  20.122  0.00  0.00    +0.000 A 
ATOM      9  C   UNL     1       3.740   3.823  19.042  0.00  0.00    +0.000 A 
ATOM     10  C   UNL     1       3.187   5.099  19.020  0.00  0.00    +0.000 A 
ENDROOT
BRANCH   3  11
ATOM     11  C   UNL     1       1.806   9.604  17.935  0.00  0.00    +0.000 C 
ATOM     12  C   UNL     1       2.400  10.726  18.373  0.00  0.00    +0.000 C 
ATOM     13  C   UNL     1       1.603  11.900  18.797  0.00  0.00    +0.000 C 
ATOM     14  O   UNL     1       2.186  12.937  19.107  0.00  0.00    +0.000 OA
ATOM     15  C   UNL     1       0.091  11.813  18.790  0.00  0.00    +0.000 C 
ATOM     16  C   UNL     1      -0.456  10.371  18.809  0.00  0.00    +0.000 C 
ATOM     17  C   UNL     1      -1.952  10.405  18.449  0.00  0.00    +0.000 C 
ATOM     18  C   UNL     1      -0.325   9.761  20.220  0.00  0.00    +0.000 C 
ATOM     19  C   UNL     1       0.306   9.507  17.777  0.00  0.00    +0.000 C 
ENDBRANCH   3  11
BRANCH   1  21
ATOM     20  C   UNL     1       5.701   6.513  17.420  0.00  0.00    +0.000 C 
ATOM     21  C   UNL     1       4.358   5.936  16.989  0.00  0.00    +0.000 C 
ENDBRANCH   1  21
TORSDOF 2
ENDMDL
MODEL 7
REMARK VINA RESULT:      -6.5      2.926      7.215
REMARK  Name = 
REMARK  5 active torsions:
REMARK  status: ('A' for Active; 'I' for Inactive)
REMARK    1  A    between atoms: C_1  and  C_2
REMARK    2  A    between atoms: C_2  and  N_3
REMARK    3  A    between atoms: C_5  and  C_6
REMARK    4  A    between atoms: C_11  and  C_12
REMARK    5  A    between atoms: C_11  and  C_13
REMARK                            x       y       z     vdW  Elec       q    Type
REMARK                         _______ _______ _______ _____ _____    ______ ____
ROOT
ATOM      1  N   UNL     1       3.045   5.091  18.698  0.00  0.00    +0.000 N 
ATOM      2  C   UNL     1       2.687   6.401  19.061  0.00  0.00    +0.000 C 
ATOM      3  C   UNL     1       1.875   6.770  20.076  0.00  0.00    +0.000 C 
ATOM      4  S   UNL     1       3.473   7.653  18.042  0.00  0.00    +0.000 S 
ATOM      5  C   UNL     1       4.248   6.359  17.101  0.00  0.00    +0.000 A 
ATOM      6  C   UNL     1       5.075   6.551  16.000  0.00  0.00    +0.000 A 
ATOM      7  C   UNL     1       5.611   5.433  15.371  0.00  0.00    +0.000 A 
ATOM      8  C   UNL     1       5.322   4.151  15.853  0.00  0.00    +0.000 A 
ATOM      9  C   UNL     1       4.481   3.971  16.960  0.00  0.00    +0.000 A 
ATOM     10  C   UNL     1       3.923   5.077  17.591  0.00  0.00    +0.000 A 
ENDROOT
BRANCH   3  11
ATOM     11  C   UNL     1       1.528   8.130  20.476  0.00  0.00    +0.000 C 
ATOM     12  C   UNL     1       1.127   8.418  21.725  0.00  0.00    +0.000 C 
ATOM     13  C   UNL     1       0.666   9.778  22.087  0.00  0.00    +0.000 C 
ATOM     14  O   UNL     1       0.393  10.022  23.261  0.00  0.00    +0.000 OA
ATOM     15  C   UNL     1       0.591  10.847  21.018  0.00  0.00    +0.000 C 
ATOM     16  C   UNL     1       0.535  10.294  19.579  0.00  0.00    +0.000 C 
ATOM     17  C   UNL     1       0.813  11.445  18.596  0.00  0.00    +0.000 C 
ATOM     18  C   UNL     1      -0.869   9.737  19.267  0.00  0.00    +0.000 C 
ATOM     19  C   UNL     1       1.604   9.190  19.400  0.00  0.00    +0.000 C 
ENDBRANCH   3  11
BRANCH   1  21
ATOM     20  C   UNL     1       1.191   3.504  18.373  0.00  0.00    +0.000 C 
ATOM     21  C   UNL     1       2.441   3.850  19.171  0.00  0.00    +0.000 C 
ENDBRANCH   1  21
TORSDOF 2
ENDMDL
MODEL 8
REMARK VINA RESULT:      -6.4      2.869      7.244
REMARK  Name = 
REMARK  5 active torsions:
REMARK  status: ('A' for Active; 'I' for Inactive)
REMARK    1  A    between atoms: C_1  and  C_2
REMARK    2  A    between atoms: C_2  and  N_3
REMARK    3  A    between atoms: C_5  and  C_6
REMARK    4  A    between atoms: C_11  and  C_12
REMARK    5  A    between atoms: C_11  and  C_13
REMARK                            x       y       z     vdW  Elec       q    Type
REMARK                         _______ _______ _______ _____ _____    ______ ____
ROOT
ATOM      1  N   UNL     1       2.118   4.969  19.788  0.00  0.00    +0.000 N 
ATOM      2  C   UNL     1       1.906   6.350  19.943  0.00  0.00    +0.000 C 
ATOM      3  C   UNL     1       1.121   6.954  20.862  0.00  0.00    +0.000 C 
ATOM      4  S   UNL     1       2.852   7.342  18.784  0.00  0.00    +0.000 S 
ATOM      5  C   UNL     1       3.493   5.845  18.070  0.00  0.00    +0.000 A 
ATOM      6  C   UNL     1       4.359   5.779  16.985  0.00  0.00    +0.000 A 
ATOM      7  C   UNL     1       4.776   4.528  16.545  0.00  0.00    +0.000 A 
ATOM      8  C   UNL     1       4.331   3.371  17.197  0.00  0.00    +0.000 A 
ATOM      9  C   UNL     1       3.452   3.451  18.286  0.00  0.00    +0.000 A 
ATOM     10  C   UNL     1       3.012   4.694  18.728  0.00  0.00    +0.000 A 
ENDROOT
BRANCH   3  11
ATOM     11  C   UNL     1       0.924   8.388  21.047  0.00  0.00    +0.000 C 
ATOM     12  C   UNL     1       0.345   8.885  22.153  0.00  0.00    +0.000 C 
ATOM     13  C   UNL     1       0.045  10.329  22.278  0.00  0.00    +0.000 C 
ATOM     14  O   UNL     1      -0.403  10.756  23.341  0.00  0.00    +0.000 OA
ATOM     15  C   UNL     1       0.344  11.253  21.117  0.00  0.00    +0.000 C 
ATOM     16  C   UNL     1       0.474  10.535  19.759  0.00  0.00    +0.000 C 
ATOM     17  C   UNL     1       1.111  11.502  18.745  0.00  0.00    +0.000 C 
ATOM     18  C   UNL     1      -0.916  10.138  19.220  0.00  0.00    +0.000 C 
ATOM     19  C   UNL     1       1.368   9.282  19.912  0.00  0.00    +0.000 C 
ENDBRANCH   3  11
BRANCH   1  21
ATOM     20  C   UNL     1       2.070   3.374  21.663  0.00  0.00    +0.000 C 
ATOM     21  C   UNL     1       1.366   3.887  20.413  0.00  0.00    +0.000 C 
ENDBRANCH   1  21
TORSDOF 2
ENDMDL
MODEL 9
REMARK VINA RESULT:      -6.4      1.879      3.455
REMARK  Name = 
REMARK  5 active torsions:
REMARK  status: ('A' for Active; 'I' for Inactive)
REMARK    1  A    between atoms: C_1  and  C_2
REMARK    2  A    between atoms: C_2  and  N_3
REMARK    3  A    between atoms: C_5  and  C_6
REMARK    4  A    between atoms: C_11  and  C_12
REMARK    5  A    between atoms: C_11  and  C_13
REMARK                            x       y       z     vdW  Elec       q    Type
REMARK                         _______ _______ _______ _____ _____    ______ ____
ROOT
ATOM      1  N   UNL     1       0.968   9.394  20.852  0.00  0.00    +0.000 N 
ATOM      2  C   UNL     1       1.482   8.576  19.830  0.00  0.00    +0.000 C 
ATOM      3  C   UNL     1       2.116   7.393  19.977  0.00  0.00    +0.000 C 
ATOM      4  S   UNL     1       1.181   9.232  18.186  0.00  0.00    +0.000 S 
ATOM      5  C   UNL     1       0.391  10.643  18.925  0.00  0.00    +0.000 A 
ATOM      6  C   UNL     1      -0.132  11.727  18.229  0.00  0.00    +0.000 A 
ATOM      7  C   UNL     1      -0.725  12.756  18.953  0.00  0.00    +0.000 A 
ATOM      8  C   UNL     1      -0.793  12.682  20.350  0.00  0.00    +0.000 A 
ATOM      9  C   UNL     1      -0.254  11.587  21.040  0.00  0.00    +0.000 A 
ATOM     10  C   UNL     1       0.357  10.557  20.332  0.00  0.00    +0.000 A 
ENDROOT
BRANCH   3  11
ATOM     11  C   UNL     1       2.622   6.526  18.917  0.00  0.00    +0.000 C 
ATOM     12  C   UNL     1       2.028   5.360  18.614  0.00  0.00    +0.000 C 
ATOM     13  C   UNL     1       2.616   4.436  17.618  0.00  0.00    +0.000 C 
ATOM     14  O   UNL     1       1.996   3.422  17.305  0.00  0.00    +0.000 OA
ATOM     15  C   UNL     1       3.940   4.786  16.972  0.00  0.00    +0.000 C 
ATOM     16  C   UNL     1       4.774   5.815  17.762  0.00  0.00    +0.000 C 
ATOM     17  C   UNL     1       5.900   6.342  16.855  0.00  0.00    +0.000 C 
ATOM     18  C   UNL     1       5.431   5.151  18.990  0.00  0.00    +0.000 C 
ATOM     19  C   UNL     1       3.872   6.991  18.205  0.00  0.00    +0.000 C 
ENDBRANCH   3  11
BRANCH   1  21
ATOM     20  C   UNL     1      -0.095   9.243  23.068  0.00  0.00    +0.000 C 
ATOM     21  C   UNL     1       1.212   9.270  22.284  0.00  0.00    +0.000 C 
ENDBRANCH   1  21
TORSDOF 2
ENDMDL
