MODEL 1
REMARK VINA RESULT:      -7.6      0.000      0.000
REMARK  Name = 
REMARK  12 active torsions:
REMARK  status: ('A' for Active; 'I' for Inactive)
REMARK    1  A    between atoms: C_1  and  O_2
REMARK    2  A    between atoms: O_2  and  C_3
REMARK    3  A    between atoms: C_5  and  C_6
REMARK    4  A    between atoms: C_6  and  N_7
REMARK    5  A    between atoms: N_7  and  C_8
REMARK    6  A    between atoms: N_7  and  S_12
REMARK    7  A    between atoms: C_8  and  C_9
REMARK    8  A    between atoms: C_9  and  C_10
REMARK    9  A    between atoms: C_9  and  C_11
REMARK   10  A    between atoms: S_12  and  C_15
REMARK   11  A    between atoms: C_23  and  O_24
REMARK   12  A    between atoms: O_24  and  C_25
REMARK                            x       y       z     vdW  Elec       q    Type
REMARK                         _______ _______ _______ _____ _____    ______ ____
ROOT
ATOM      1  N   UNL     1       3.656   5.073  18.987  0.00  0.00    +0.000 NA
ENDROOT
BRANCH   1   2
ATOM      2  S   UNL     1       5.327   4.534  18.954  0.00  0.00    +0.000 S 
ATOM      3  O   UNL     1       6.160   5.437  19.713  0.00  0.00    +0.000 OA
ATOM      4  O   UNL     1       5.280   3.124  19.276  0.00  0.00    +0.000 OA
BRANCH   2   5
ATOM      5  C   UNL     1       5.858   4.666  17.250  0.00  0.00    +0.000 A 
ATOM      6  C   UNL     1       5.326   3.736  16.337  0.00  0.00    +0.000 A 
ATOM      7  C   UNL     1       5.736   3.734  15.004  0.00  0.00    +0.000 A 
ATOM      8  C   UNL     1       6.685   4.660  14.575  0.00  0.00    +0.000 A 
ATOM      9  C   UNL     1       7.215   5.584  15.481  0.00  0.00    +0.000 A 
ATOM     10  C   UNL     1       6.806   5.592  16.826  0.00  0.00    +0.000 A 
ATOM     11 BR   UNL     1       7.590   6.925  17.923  0.00  0.00    +0.000 Br
ENDBRANCH   2   5
ENDBRANCH   1   2
BRANCH   1  12
ATOM     12  C   UNL     1       3.532   6.356  18.218  0.00  0.00    +0.000 C 
BRANCH  12  15
ATOM     13  C   UNL     1       1.326   8.574  20.376  0.00  0.00    +0.000 A 
ATOM     14  C   UNL     1       1.924   7.407  19.884  0.00  0.00    +0.000 A 
ATOM     15  C   UNL     1       2.489   7.386  18.603  0.00  0.00    +0.000 A 
ATOM     16  C   UNL     1       2.366   8.530  17.792  0.00  0.00    +0.000 A 
ATOM     17  C   UNL     1       1.856   9.719  18.314  0.00  0.00    +0.000 A 
ATOM     18  C   UNL     1       1.329   9.740  19.605  0.00  0.00    +0.000 A 
BRANCH  13  20
ATOM     19  C   UNL     1       0.393   9.747  22.199  0.00  0.00    +0.000 C 
ATOM     20  O   UNL     1       0.878   8.516  21.669  0.00  0.00    +0.000 OA
ENDBRANCH  13  20
BRANCH  17  21
ATOM     21  O   UNL     1       1.972  10.820  17.506  0.00  0.00    +0.000 OA
ATOM     22  C   UNL     1       2.301  12.030  18.186  0.00  0.00    +0.000 C 
ENDBRANCH  17  21
ENDBRANCH  12  15
ENDBRANCH   1  12
BRANCH   1  23
ATOM     23  C   UNL     1       2.712   4.012  18.420  0.00  0.00    +0.000 C 
BRANCH  23  24
ATOM     24  C   UNL     1       1.429   3.764  19.247  0.00  0.00    +0.000 C 
ATOM     25  C   UNL     1       0.727   2.457  18.881  0.00  0.00    +0.000 C 
ATOM     26  C   UNL     1       1.706   3.757  20.756  0.00  0.00    +0.000 C 
ENDBRANCH  23  24
ENDBRANCH   1  23
TORSDOF 8
ENDMDL
MODEL 2
REMARK VINA RESULT:      -7.4      1.446      1.976
REMARK  Name = 
REMARK  12 active torsions:
REMARK  status: ('A' for Active; 'I' for Inactive)
REMARK    1  A    between atoms: C_1  and  O_2
REMARK    2  A    between atoms: O_2  and  C_3
REMARK    3  A    between atoms: C_5  and  C_6
REMARK    4  A    between atoms: C_6  and  N_7
REMARK    5  A    between atoms: N_7  and  C_8
REMARK    6  A    between atoms: N_7  and  S_12
REMARK    7  A    between atoms: C_8  and  C_9
REMARK    8  A    between atoms: C_9  and  C_10
REMARK    9  A    between atoms: C_9  and  C_11
REMARK   10  A    between atoms: S_12  and  C_15
REMARK   11  A    between atoms: C_23  and  O_24
REMARK   12  A    between atoms: O_24  and  C_25
REMARK                            x       y       z     vdW  Elec       q    Type
REMARK                         _______ _______ _______ _____ _____    ______ ____
ROOT
ATOM      1  N   UNL     1       3.212   4.775  19.012  0.00  0.00    +0.000 NA
ENDROOT
BRANCH   1   2
ATOM      2  S   UNL     1       4.628   3.845  18.545  0.00  0.00    +0.000 S 
ATOM      3  O   UNL     1       5.021   2.960  19.615  0.00  0.00    +0.000 OA
ATOM      4  O   UNL     1       4.325   3.326  17.229  0.00  0.00    +0.000 OA
BRANCH   2   5
ATOM      5  C   UNL     1       5.956   5.028  18.351  0.00  0.00    +0.000 A 
ATOM      6  C   UNL     1       6.764   5.277  19.477  0.00  0.00    +0.000 A 
ATOM      7  C   UNL     1       7.781   6.231  19.425  0.00  0.00    +0.000 A 
ATOM      8  C   UNL     1       7.994   6.945  18.248  0.00  0.00    +0.000 A 
ATOM      9  C   UNL     1       7.191   6.700  17.129  0.00  0.00    +0.000 A 
ATOM     10  C   UNL     1       6.164   5.740  17.174  0.00  0.00    +0.000 A 
ATOM     11 BR   UNL     1       5.185   5.499  15.569  0.00  0.00    +0.000 Br
ENDBRANCH   2   5
ENDBRANCH   1   2
BRANCH   1  12
ATOM     12  C   UNL     1       3.439   6.223  18.690  0.00  0.00    +0.000 C 
BRANCH  12  15
ATOM     13  C   UNL     1       1.257   8.519  20.789  0.00  0.00    +0.000 A 
ATOM     14  C   UNL     1       1.853   7.336  20.337  0.00  0.00    +0.000 A 
ATOM     15  C   UNL     1       2.398   7.264  19.048  0.00  0.00    +0.000 A 
ATOM     16  C   UNL     1       2.256   8.373  18.193  0.00  0.00    +0.000 A 
ATOM     17  C   UNL     1       1.749   9.580  18.673  0.00  0.00    +0.000 A 
ATOM     18  C   UNL     1       1.243   9.652  19.970  0.00  0.00    +0.000 A 
BRANCH  13  20
ATOM     19  C   UNL     1      -0.097   9.542  22.430  0.00  0.00    +0.000 C 
ATOM     20  O   UNL     1       0.830   8.514  22.091  0.00  0.00    +0.000 OA
ENDBRANCH  13  20
BRANCH  17  21
ATOM     21  O   UNL     1       1.848  10.647  17.818  0.00  0.00    +0.000 OA
ATOM     22  C   UNL     1       1.774  11.926  18.445  0.00  0.00    +0.000 C 
ENDBRANCH  17  21
ENDBRANCH  12  15
ENDBRANCH   1  12
BRANCH   1  23
ATOM     23  C   UNL     1       1.949   4.261  18.319  0.00  0.00    +0.000 C 
BRANCH  23  24
ATOM     24  C   UNL     1       0.942   3.535  19.242  0.00  0.00    +0.000 C 
ATOM     25  C   UNL     1       0.747   2.065  18.871  0.00  0.00    +0.000 C 
ATOM     26  C   UNL     1       1.354   3.610  20.718  0.00  0.00    +0.000 C 
ENDBRANCH  23  24
ENDBRANCH   1  23
TORSDOF 8
ENDMDL
MODEL 3
REMARK VINA RESULT:      -7.4      0.898      2.414
REMARK  Name = 
REMARK  12 active torsions:
REMARK  status: ('A' for Active; 'I' for Inactive)
REMARK    1  A    between atoms: C_1  and  O_2
REMARK    2  A    between atoms: O_2  and  C_3
REMARK    3  A    between atoms: C_5  and  C_6
REMARK    4  A    between atoms: C_6  and  N_7
REMARK    5  A    between atoms: N_7  and  C_8
REMARK    6  A    between atoms: N_7  and  S_12
REMARK    7  A    between atoms: C_8  and  C_9
REMARK    8  A    between atoms: C_9  and  C_10
REMARK    9  A    between atoms: C_9  and  C_11
REMARK   10  A    between atoms: S_12  and  C_15
REMARK   11  A    between atoms: C_23  and  O_24
REMARK   12  A    between atoms: O_24  and  C_25
REMARK                            x       y       z     vdW  Elec       q    Type
REMARK                         _______ _______ _______ _____ _____    ______ ____
ROOT
ATOM      1  N   UNL     1       3.039   4.588  18.584  0.00  0.00    +0.000 NA
ENDROOT
BRANCH   1   2
ATOM      2  S   UNL     1       4.357   3.467  18.277  0.00  0.00    +0.000 S 
ATOM      3  O   UNL     1       5.200   3.354  19.444  0.00  0.00    +0.000 OA
ATOM      4  O   UNL     1       3.734   2.296  17.699  0.00  0.00    +0.000 OA
BRANCH   2   5
ATOM      5  C   UNL     1       5.358   4.217  16.998  0.00  0.00    +0.000 A 
ATOM      6  C   UNL     1       5.048   3.890  15.665  0.00  0.00    +0.000 A 
ATOM      7  C   UNL     1       5.820   4.384  14.613  0.00  0.00    +0.000 A 
ATOM      8  C   UNL     1       6.912   5.205  14.888  0.00  0.00    +0.000 A 
ATOM      9  C   UNL     1       7.222   5.530  16.213  0.00  0.00    +0.000 A 
ATOM     10  C   UNL     1       6.448   5.035  17.278  0.00  0.00    +0.000 A 
ATOM     11 BR   UNL     1       6.974   5.591  19.013  0.00  0.00    +0.000 Br
ENDBRANCH   2   5
ENDBRANCH   1   2
BRANCH   1  12
ATOM     12  C   UNL     1       3.343   5.904  17.928  0.00  0.00    +0.000 C 
BRANCH  12  15
ATOM     13  C   UNL     1       1.967   9.427  18.291  0.00  0.00    +0.000 A 
ATOM     14  C   UNL     1       2.767   8.378  17.822  0.00  0.00    +0.000 A 
ATOM     15  C   UNL     1       2.908   7.204  18.574  0.00  0.00    +0.000 A 
ATOM     16  C   UNL     1       2.302   7.138  19.842  0.00  0.00    +0.000 A 
ATOM     17  C   UNL     1       1.431   8.141  20.267  0.00  0.00    +0.000 A 
ATOM     18  C   UNL     1       1.268   9.290  19.494  0.00  0.00    +0.000 A 
BRANCH  13  20
ATOM     19  C   UNL     1       2.428  11.708  17.893  0.00  0.00    +0.000 C 
ATOM     20  O   UNL     1       1.827  10.496  17.445  0.00  0.00    +0.000 OA
ENDBRANCH  13  20
BRANCH  17  21
ATOM     21  O   UNL     1       0.740   7.878  21.421  0.00  0.00    +0.000 OA
ATOM     22  C   UNL     1      -0.144   8.916  21.840  0.00  0.00    +0.000 C 
ENDBRANCH  17  21
ENDBRANCH  12  15
ENDBRANCH   1  12
BRANCH   1  23
ATOM     23  C   UNL     1       1.703   4.035  18.087  0.00  0.00    +0.000 C 
BRANCH  23  24
ATOM     24  C   UNL     1       0.777   3.468  19.188  0.00  0.00    +0.000 C 
ATOM     25  C   UNL     1       0.558   1.960  19.065  0.00  0.00    +0.000 C 
ATOM     26  C   UNL     1       1.305   3.766  20.598  0.00  0.00    +0.000 C 
ENDBRANCH  23  24
ENDBRANCH   1  23
TORSDOF 8
ENDMDL
MODEL 4
REMARK VINA RESULT:      -7.4      1.410      2.912
REMARK  Name = 
REMARK  12 active torsions:
REMARK  status: ('A' for Active; 'I' for Inactive)
REMARK    1  A    between atoms: C_1  and  O_2
REMARK    2  A    between atoms: O_2  and  C_3
REMARK    3  A    between atoms: C_5  and  C_6
REMARK    4  A    between atoms: C_6  and  N_7
REMARK    5  A    between atoms: N_7  and  C_8
REMARK    6  A    between atoms: N_7  and  S_12
REMARK    7  A    between atoms: C_8  and  C_9
REMARK    8  A    between atoms: C_9  and  C_10
REMARK    9  A    between atoms: C_9  and  C_11
REMARK   10  A    between atoms: S_12  and  C_15
REMARK   11  A    between atoms: C_23  and  O_24
REMARK   12  A    between atoms: O_24  and  C_25
REMARK                            x       y       z     vdW  Elec       q    Type
REMARK                         _______ _______ _______ _____ _____    ______ ____
ROOT
ATOM      1  N   UNL     1       2.993   4.596  18.692  0.00  0.00    +0.000 NA
ENDROOT
BRANCH   1   2
ATOM      2  S   UNL     1       4.425   3.605  18.457  0.00  0.00    +0.000 S 
ATOM      3  O   UNL     1       4.738   2.884  19.667  0.00  0.00    +0.000 OA
ATOM      4  O   UNL     1       4.200   2.900  17.213  0.00  0.00    +0.000 OA
BRANCH   2   5
ATOM      5  C   UNL     1       5.776   4.744  18.179  0.00  0.00    +0.000 A 
ATOM      6  C   UNL     1       6.428   5.257  19.317  0.00  0.00    +0.000 A 
ATOM      7  C   UNL     1       7.451   6.197  19.187  0.00  0.00    +0.000 A 
ATOM      8  C   UNL     1       7.825   6.635  17.918  0.00  0.00    +0.000 A 
ATOM      9  C   UNL     1       7.178   6.127  16.787  0.00  0.00    +0.000 A 
ATOM     10  C   UNL     1       6.146   5.179  16.911  0.00  0.00    +0.000 A 
ATOM     11 BR   UNL     1       5.389   4.562  15.285  0.00  0.00    +0.000 Br
ENDBRANCH   2   5
ENDBRANCH   1   2
BRANCH   1  12
ATOM     12  C   UNL     1       3.149   5.882  17.934  0.00  0.00    +0.000 C 
BRANCH  12  15
ATOM     13  C   UNL     1       2.036   9.495  18.322  0.00  0.00    +0.000 A 
ATOM     14  C   UNL     1       2.755   8.393  17.844  0.00  0.00    +0.000 A 
ATOM     15  C   UNL     1       2.812   7.207  18.588  0.00  0.00    +0.000 A 
ATOM     16  C   UNL     1       2.206   7.178  19.858  0.00  0.00    +0.000 A 
ATOM     17  C   UNL     1       1.412   8.240  20.291  0.00  0.00    +0.000 A 
ATOM     18  C   UNL     1       1.332   9.402  19.526  0.00  0.00    +0.000 A 
BRANCH  13  20
ATOM     19  C   UNL     1       2.160  11.843  18.109  0.00  0.00    +0.000 C 
ATOM     20  O   UNL     1       1.972  10.576  17.483  0.00  0.00    +0.000 OA
ENDBRANCH  13  20
BRANCH  17  21
ATOM     21  O   UNL     1       0.707   8.020  21.446  0.00  0.00    +0.000 OA
ATOM     22  C   UNL     1       0.263   9.202  22.110  0.00  0.00    +0.000 C 
ENDBRANCH  17  21
ENDBRANCH  12  15
ENDBRANCH   1  12
BRANCH   1  23
ATOM     23  C   UNL     1       1.725   3.863  18.253  0.00  0.00    +0.000 C 
BRANCH  23  24
ATOM     24  C   UNL     1       0.977   3.113  19.381  0.00  0.00    +0.000 C 
ATOM     25  C   UNL     1       1.389   1.645  19.494  0.00  0.00    +0.000 C 
ATOM     26  C   UNL     1       1.177   3.777  20.749  0.00  0.00    +0.000 C 
ENDBRANCH  23  24
ENDBRANCH   1  23
TORSDOF 8
ENDMDL
MODEL 5
REMARK VINA RESULT:      -7.3      1.722      3.007
REMARK  Name = 
REMARK  12 active torsions:
REMARK  status: ('A' for Active; 'I' for Inactive)
REMARK    1  A    between atoms: C_1  and  O_2
REMARK    2  A    between atoms: O_2  and  C_3
REMARK    3  A    between atoms: C_5  and  C_6
REMARK    4  A    between atoms: C_6  and  N_7
REMARK    5  A    between atoms: N_7  and  C_8
REMARK    6  A    between atoms: N_7  and  S_12
REMARK    7  A    between atoms: C_8  and  C_9
REMARK    8  A    between atoms: C_9  and  C_10
REMARK    9  A    between atoms: C_9  and  C_11
REMARK   10  A    between atoms: S_12  and  C_15
REMARK   11  A    between atoms: C_23  and  O_24
REMARK   12  A    between atoms: O_24  and  C_25
REMARK                            x       y       z     vdW  Elec       q    Type
REMARK                         _______ _______ _______ _____ _____    ______ ____
ROOT
ATOM      1  N   UNL     1       2.957   5.229  18.766  0.00  0.00    +0.000 NA
ENDROOT
BRANCH   1   2
ATOM      2  S   UNL     1       4.219   4.251  18.033  0.00  0.00    +0.000 S 
ATOM      3  O   UNL     1       4.437   3.053  18.809  0.00  0.00    +0.000 OA
ATOM      4  O   UNL     1       3.874   4.171  16.630  0.00  0.00    +0.000 OA
BRANCH   2   5
ATOM      5  C   UNL     1       5.723   5.213  18.151  0.00  0.00    +0.000 A 
ATOM      6  C   UNL     1       6.447   5.129  19.356  0.00  0.00    +0.000 A 
ATOM      7  C   UNL     1       7.597   5.895  19.549  0.00  0.00    +0.000 A 
ATOM      8  C   UNL     1       8.028   6.754  18.541  0.00  0.00    +0.000 A 
ATOM      9  C   UNL     1       7.309   6.840  17.344  0.00  0.00    +0.000 A 
ATOM     10  C   UNL     1       6.150   6.070  17.142  0.00  0.00    +0.000 A 
ATOM     11 BR   UNL     1       5.305   6.272  15.457  0.00  0.00    +0.000 Br
ENDBRANCH   2   5
ENDBRANCH   1   2
BRANCH   1  12
ATOM     12  C   UNL     1       2.797   6.501  17.985  0.00  0.00    +0.000 C 
BRANCH  12  15
ATOM     13  C   UNL     1       0.750   9.644  18.596  0.00  0.00    +0.000 A 
ATOM     14  C   UNL     1       1.588   8.737  17.935  0.00  0.00    +0.000 A 
ATOM     15  C   UNL     1       2.283   7.758  18.657  0.00  0.00    +0.000 A 
ATOM     16  C   UNL     1       2.188   7.761  20.061  0.00  0.00    +0.000 A 
ATOM     17  C   UNL     1       1.283   8.600  20.711  0.00  0.00    +0.000 A 
ATOM     18  C   UNL     1       0.568   9.547  19.979  0.00  0.00    +0.000 A 
BRANCH  13  20
ATOM     19  C   UNL     1      -1.366  10.449  17.929  0.00  0.00    +0.000 C 
ATOM     20  O   UNL     1       0.052  10.507  17.793  0.00  0.00    +0.000 OA
ENDBRANCH  13  20
BRANCH  17  21
ATOM     21  O   UNL     1       1.125   8.376  22.053  0.00  0.00    +0.000 OA
ATOM     22  C   UNL     1       0.384   9.380  22.745  0.00  0.00    +0.000 C 
ENDBRANCH  17  21
ENDBRANCH  12  15
ENDBRANCH   1  12
BRANCH   1  23
ATOM     23  C   UNL     1       1.631   4.472  18.838  0.00  0.00    +0.000 C 
BRANCH  23  24
ATOM     24  C   UNL     1       1.250   3.946  20.242  0.00  0.00    +0.000 C 
ATOM     25  C   UNL     1       1.158   2.421  20.302  0.00  0.00    +0.000 C 
ATOM     26  C   UNL     1       2.237   4.412  21.321  0.00  0.00    +0.000 C 
ENDBRANCH  23  24
ENDBRANCH   1  23
TORSDOF 8
ENDMDL
MODEL 6
REMARK VINA RESULT:      -7.3      1.739      4.407
REMARK  Name = 
REMARK  12 active torsions:
REMARK  status: ('A' for Active; 'I' for Inactive)
REMARK    1  A    between atoms: C_1  and  O_2
REMARK    2  A    between atoms: O_2  and  C_3
REMARK    3  A    between atoms: C_5  and  C_6
REMARK    4  A    between atoms: C_6  and  N_7
REMARK    5  A    between atoms: N_7  and  C_8
REMARK    6  A    between atoms: N_7  and  S_12
REMARK    7  A    between atoms: C_8  and  C_9
REMARK    8  A    between atoms: C_9  and  C_10
REMARK    9  A    between atoms: C_9  and  C_11
REMARK   10  A    between atoms: S_12  and  C_15
REMARK   11  A    between atoms: C_23  and  O_24
REMARK   12  A    between atoms: O_24  and  C_25
REMARK                            x       y       z     vdW  Elec       q    Type
REMARK                         _______ _______ _______ _____ _____    ______ ____
ROOT
ATOM      1  N   UNL     1       4.084   5.401  17.602  0.00  0.00    +0.000 NA
ENDROOT
BRANCH   1   2
ATOM      2  S   UNL     1       4.473   3.822  18.265  0.00  0.00    +0.000 S 
ATOM      3  O   UNL     1       4.411   2.816  17.232  0.00  0.00    +0.000 OA
ATOM      4  O   UNL     1       5.684   4.018  19.034  0.00  0.00    +0.000 OA
BRANCH   2   5
ATOM      5  C   UNL     1       3.169   3.436  19.428  0.00  0.00    +0.000 A 
ATOM      6  C   UNL     1       3.557   2.978  20.701  0.00  0.00    +0.000 A 
ATOM      7  C   UNL     1       2.600   2.598  21.642  0.00  0.00    +0.000 A 
ATOM      8  C   UNL     1       1.248   2.669  21.315  0.00  0.00    +0.000 A 
ATOM      9  C   UNL     1       0.860   3.123  20.049  0.00  0.00    +0.000 A 
ATOM     10  C   UNL     1       1.820   3.508  19.096  0.00  0.00    +0.000 A 
ATOM     11 BR   UNL     1       1.138   4.131  17.440  0.00  0.00    +0.000 Br
ENDBRANCH   2   5
ENDBRANCH   1   2
BRANCH   1  12
ATOM     12  C   UNL     1       4.003   6.402  18.718  0.00  0.00    +0.000 C 
BRANCH  12  15
ATOM     13  C   UNL     1       1.213   8.345  20.416  0.00  0.00    +0.000 A 
ATOM     14  C   UNL     1       2.049   7.268  20.096  0.00  0.00    +0.000 A 
ATOM     15  C   UNL     1       2.768   7.262  18.893  0.00  0.00    +0.000 A 
ATOM     16  C   UNL     1       2.564   8.314  17.980  0.00  0.00    +0.000 A 
ATOM     17  C   UNL     1       1.806   9.429  18.338  0.00  0.00    +0.000 A 
ATOM     18  C   UNL     1       1.125   9.442  19.554  0.00  0.00    +0.000 A 
BRANCH  13  20
ATOM     19  C   UNL     1       0.655   9.514  22.389  0.00  0.00    +0.000 C 
ATOM     20  O   UNL     1       0.621   8.295  21.650  0.00  0.00    +0.000 OA
ENDBRANCH  13  20
BRANCH  17  21
ATOM     21  O   UNL     1       1.844  10.479  17.458  0.00  0.00    +0.000 OA
ATOM     22  C   UNL     1       2.420  11.676  17.978  0.00  0.00    +0.000 C 
ENDBRANCH  17  21
ENDBRANCH  12  15
ENDBRANCH   1  12
BRANCH   1  23
ATOM     23  C   UNL     1       5.111   5.840  16.558  0.00  0.00    +0.000 C 
BRANCH  23  24
ATOM     24  C   UNL     1       6.588   5.589  16.942  0.00  0.00    +0.000 C 
ATOM     25  C   UNL     1       7.346   4.776  15.893  0.00  0.00    +0.000 C 
ATOM     26  C   UNL     1       7.353   6.897  17.185  0.00  0.00    +0.000 C 
ENDBRANCH  23  24
ENDBRANCH   1  23
TORSDOF 8
ENDMDL
MODEL 7
REMARK VINA RESULT:      -7.2      0.917      2.220
REMARK  Name = 
REMARK  12 active torsions:
REMARK  status: ('A' for Active; 'I' for Inactive)
REMARK    1  A    between atoms: C_1  and  O_2
REMARK    2  A    between atoms: O_2  and  C_3
REMARK    3  A    between atoms: C_5  and  C_6
REMARK    4  A    between atoms: C_6  and  N_7
REMARK    5  A    between atoms: N_7  and  C_8
REMARK    6  A    between atoms: N_7  and  S_12
REMARK    7  A    between atoms: C_8  and  C_9
REMARK    8  A    between atoms: C_9  and  C_10
REMARK    9  A    between atoms: C_9  and  C_11
REMARK   10  A    between atoms: S_12  and  C_15
REMARK   11  A    between atoms: C_23  and  O_24
REMARK   12  A    between atoms: O_24  and  C_25
REMARK                            x       y       z     vdW  Elec       q    Type
REMARK                         _______ _______ _______ _____ _____    ______ ____
ROOT
ATOM      1  N   UNL     1       3.106   5.265  18.733  0.00  0.00    +0.000 NA
ENDROOT
BRANCH   1   2
ATOM      2  S   UNL     1       4.736   4.621  18.859  0.00  0.00    +0.000 S 
ATOM      3  O   UNL     1       5.537   5.453  19.726  0.00  0.00    +0.000 OA
ATOM      4  O   UNL     1       4.568   3.210  19.137  0.00  0.00    +0.000 OA
BRANCH   2   5
ATOM      5  C   UNL     1       5.450   4.754  17.225  0.00  0.00    +0.000 A 
ATOM      6  C   UNL     1       4.838   4.016  16.194  0.00  0.00    +0.000 A 
ATOM      7  C   UNL     1       5.371   4.018  14.905  0.00  0.00    +0.000 A 
ATOM      8  C   UNL     1       6.524   4.754  14.639  0.00  0.00    +0.000 A 
ATOM      9  C   UNL     1       7.135   5.486  15.663  0.00  0.00    +0.000 A 
ATOM     10  C   UNL     1       6.602   5.489  16.964  0.00  0.00    +0.000 A 
ATOM     11 BR   UNL     1       7.523   6.555  18.234  0.00  0.00    +0.000 Br
ENDBRANCH   2   5
ENDBRANCH   1   2
BRANCH   1  12
ATOM     12  C   UNL     1       3.151   6.600  18.049  0.00  0.00    +0.000 C 
BRANCH  12  15
ATOM     13  C   UNL     1       0.785   9.542  18.482  0.00  0.00    +0.000 A 
ATOM     14  C   UNL     1       1.748   8.715  17.891  0.00  0.00    +0.000 A 
ATOM     15  C   UNL     1       2.476   7.806  18.670  0.00  0.00    +0.000 A 
ATOM     16  C   UNL     1       2.281   7.805  20.064  0.00  0.00    +0.000 A 
ATOM     17  C   UNL     1       1.259   8.560  20.639  0.00  0.00    +0.000 A 
ATOM     18  C   UNL     1       0.514   9.434  19.849  0.00  0.00    +0.000 A 
BRANCH  13  20
ATOM     19  C   UNL     1      -1.154  10.846  18.145  0.00  0.00    +0.000 C 
ATOM     20  O   UNL     1       0.070  10.334  17.623  0.00  0.00    +0.000 OA
ENDBRANCH  13  20
BRANCH  17  21
ATOM     21  O   UNL     1       1.026   8.327  21.969  0.00  0.00    +0.000 OA
ATOM     22  C   UNL     1       0.196   9.293  22.611  0.00  0.00    +0.000 C 
ENDBRANCH  17  21
ENDBRANCH  12  15
ENDBRANCH   1  12
BRANCH   1  23
ATOM     23  C   UNL     1       2.180   4.306  17.983  0.00  0.00    +0.000 C 
BRANCH  23  24
ATOM     24  C   UNL     1       1.085   3.639  18.848  0.00  0.00    +0.000 C 
ATOM     25  C   UNL     1       1.167   2.113  18.840  0.00  0.00    +0.000 C 
ATOM     26  C   UNL     1       1.129   4.118  20.305  0.00  0.00    +0.000 C 
ENDBRANCH  23  24
ENDBRANCH   1  23
TORSDOF 8
ENDMDL
MODEL 8
REMARK VINA RESULT:      -7.1      1.622      3.043
REMARK  Name = 
REMARK  12 active torsions:
REMARK  status: ('A' for Active; 'I' for Inactive)
REMARK    1  A    between atoms: C_1  and  O_2
REMARK    2  A    between atoms: O_2  and  C_3
REMARK    3  A    between atoms: C_5  and  C_6
REMARK    4  A    between atoms: C_6  and  N_7
REMARK    5  A    between atoms: N_7  and  C_8
REMARK    6  A    between atoms: N_7  and  S_12
REMARK    7  A    between atoms: C_8  and  C_9
REMARK    8  A    between atoms: C_9  and  C_10
REMARK    9  A    between atoms: C_9  and  C_11
REMARK   10  A    between atoms: S_12  and  C_15
REMARK   11  A    between atoms: C_23  and  O_24
REMARK   12  A    between atoms: O_24  and  C_25
REMARK                            x       y       z     vdW  Elec       q    Type
REMARK                         _______ _______ _______ _____ _____    ______ ____
ROOT
ATOM      1  N   UNL     1       3.722   4.962  19.504  0.00  0.00    +0.000 NA
ENDROOT
BRANCH   1   2
ATOM      2  S   UNL     1       4.946   4.281  18.444  0.00  0.00    +0.000 S 
ATOM      3  O   UNL     1       5.563   3.132  19.064  0.00  0.00    +0.000 OA
ATOM      4  O   UNL     1       4.309   4.169  17.149  0.00  0.00    +0.000 OA
BRANCH   2   5
ATOM      5  C   UNL     1       6.223   5.525  18.296  0.00  0.00    +0.000 A 
ATOM      6  C   UNL     1       7.211   5.554  19.299  0.00  0.00    +0.000 A 
ATOM      7  C   UNL     1       8.206   6.532  19.289  0.00  0.00    +0.000 A 
ATOM      8  C   UNL     1       8.217   7.491  18.279  0.00  0.00    +0.000 A 
ATOM      9  C   UNL     1       7.235   7.464  17.283  0.00  0.00    +0.000 A 
ATOM     10  C   UNL     1       6.230   6.481  17.286  0.00  0.00    +0.000 A 
ATOM     11 BR   UNL     1       4.991   6.557  15.852  0.00  0.00    +0.000 Br
ENDBRANCH   2   5
ENDBRANCH   1   2
BRANCH   1  12
ATOM     12  C   UNL     1       2.796   5.829  18.702  0.00  0.00    +0.000 C 
BRANCH  12  15
ATOM     13  C   UNL     1       1.863   9.507  18.491  0.00  0.00    +0.000 A 
ATOM     14  C   UNL     1       2.540   8.312  18.217  0.00  0.00    +0.000 A 
ATOM     15  C   UNL     1       2.507   7.253  19.134  0.00  0.00    +0.000 A 
ATOM     16  C   UNL     1       1.857   7.447  20.366  0.00  0.00    +0.000 A 
ATOM     17  C   UNL     1       1.105   8.599  20.600  0.00  0.00    +0.000 A 
ATOM     18  C   UNL     1       1.113   9.632  19.665  0.00  0.00    +0.000 A 
BRANCH  13  20
ATOM     19  C   UNL     1       2.355  11.736  17.890  0.00  0.00    +0.000 C 
ATOM     20  O   UNL     1       1.887  10.448  17.497  0.00  0.00    +0.000 OA
ENDBRANCH  13  20
BRANCH  17  21
ATOM     21  O   UNL     1       0.349   8.592  21.743  0.00  0.00    +0.000 OA
ATOM     22  C   UNL     1      -0.439   9.763  21.946  0.00  0.00    +0.000 C 
ENDBRANCH  17  21
ENDBRANCH  12  15
ENDBRANCH   1  12
BRANCH   1  23
ATOM     23  C   UNL     1       2.940   3.869  20.234  0.00  0.00    +0.000 C 
BRANCH  23  24
ATOM     24  C   UNL     1       1.770   3.253  19.433  0.00  0.00    +0.000 C 
ATOM     25  C   UNL     1       2.092   1.865  18.880  0.00  0.00    +0.000 C 
ATOM     26  C   UNL     1       0.486   3.153  20.268  0.00  0.00    +0.000 C 
ENDBRANCH  23  24
ENDBRANCH   1  23
TORSDOF 8
ENDMDL
MODEL 9
REMARK VINA RESULT:      -7.0      3.263      7.461
REMARK  Name = 
REMARK  12 active torsions:
REMARK  status: ('A' for Active; 'I' for Inactive)
REMARK    1  A    between atoms: C_1  and  O_2
REMARK    2  A    between atoms: O_2  and  C_3
REMARK    3  A    between atoms: C_5  and  C_6
REMARK    4  A    between atoms: C_6  and  N_7
REMARK    5  A    between atoms: N_7  and  C_8
REMARK    6  A    between atoms: N_7  and  S_12
REMARK    7  A    between atoms: C_8  and  C_9
REMARK    8  A    between atoms: C_9  and  C_10
REMARK    9  A    between atoms: C_9  and  C_11
REMARK   10  A    between atoms: S_12  and  C_15
REMARK   11  A    between atoms: C_23  and  O_24
REMARK   12  A    between atoms: O_24  and  C_25
REMARK                            x       y       z     vdW  Elec       q    Type
REMARK                         _______ _______ _______ _____ _____    ______ ____
ROOT
ATOM      1  N   UNL     1       5.485   4.303  17.602  0.00  0.00    +0.000 NA
ENDROOT
BRANCH   1   2
ATOM      2  S   UNL     1       4.174   3.483  18.436  0.00  0.00    +0.000 S 
ATOM      3  O   UNL     1       3.335   2.789  17.487  0.00  0.00    +0.000 OA
ATOM      4  O   UNL     1       4.803   2.769  19.526  0.00  0.00    +0.000 OA
BRANCH   2   5
ATOM      5  C   UNL     1       3.164   4.769  19.161  0.00  0.00    +0.000 A 
ATOM      6  C   UNL     1       3.180   6.029  18.533  0.00  0.00    +0.000 A 
ATOM      7  C   UNL     1       2.468   7.101  19.072  0.00  0.00    +0.000 A 
ATOM      8  C   UNL     1       1.740   6.922  20.246  0.00  0.00    +0.000 A 
ATOM      9  C   UNL     1       1.724   5.671  20.872  0.00  0.00    +0.000 A 
ATOM     10  C   UNL     1       2.439   4.586  20.334  0.00  0.00    +0.000 A 
ATOM     11 BR   UNL     1       2.293   2.948  21.278  0.00  0.00    +0.000 Br
ENDBRANCH   2   5
ENDBRANCH   1   2
BRANCH   1  12
ATOM     12  C   UNL     1       5.043   4.663  16.214  0.00  0.00    +0.000 C 
BRANCH  12  15
ATOM     13  C   UNL     1       5.886   3.409  12.727  0.00  0.00    +0.000 A 
ATOM     14  C   UNL     1       5.315   3.433  14.005  0.00  0.00    +0.000 A 
ATOM     15  C   UNL     1       5.862   4.239  15.011  0.00  0.00    +0.000 A 
ATOM     16  C   UNL     1       7.043   4.954  14.735  0.00  0.00    +0.000 A 
ATOM     17  C   UNL     1       7.556   5.005  13.439  0.00  0.00    +0.000 A 
ATOM     18  C   UNL     1       6.982   4.227  12.435  0.00  0.00    +0.000 A 
BRANCH  13  20
ATOM     19  C   UNL     1       4.068   3.263  11.228  0.00  0.00    +0.000 C 
ATOM     20  O   UNL     1       5.227   2.654  11.792  0.00  0.00    +0.000 OA
ENDBRANCH  13  20
BRANCH  17  21
ATOM     21  O   UNL     1       8.583   5.891  13.242  0.00  0.00    +0.000 OA
ATOM     22  C   UNL     1       8.623   6.483  11.945  0.00  0.00    +0.000 C 
ENDBRANCH  17  21
ENDBRANCH  12  15
ENDBRANCH   1  12
BRANCH   1  23
ATOM     23  C   UNL     1       5.940   5.550  18.363  0.00  0.00    +0.000 C 
BRANCH  23  24
ATOM     24  C   UNL     1       7.433   5.917  18.187  0.00  0.00    +0.000 C 
ATOM     25  C   UNL     1       7.637   7.316  17.604  0.00  0.00    +0.000 C 
ATOM     26  C   UNL     1       8.210   5.826  19.507  0.00  0.00    +0.000 C 
ENDBRANCH  23  24
ENDBRANCH   1  23
TORSDOF 8
ENDMDL
