MODEL 1
REMARK VINA RESULT:      -7.3      0.000      0.000
REMARK  Name = 
REMARK  2 active torsions:
REMARK  status: ('A' for Active; 'I' for Inactive)
REMARK    1  A    between atoms: C_1  and  N_2
REMARK    2  A    between atoms: C_13  and  O_14
REMARK                            x       y       z     vdW  Elec       q    Type
REMARK                         _______ _______ _______ _____ _____    ______ ____
ROOT
ATOM      1  C   UNL     1       2.280   6.987  18.240  0.00  0.00    +0.000 C 
ATOM      2  N   UNL     1       2.943   5.698  18.189  0.00  0.00    +0.000 N 
ATOM      3  C   UNL     1       2.377   4.585  18.763  0.00  0.00    +0.000 C 
ATOM      4  N   UNL     1       1.166   4.185  18.529  0.00  0.00    +0.000 NA
ATOM      5  C   UNL     1       0.887   2.844  19.080  0.00  0.00    +0.000 C 
ATOM      6  C   UNL     1       1.123   2.934  20.567  0.00  0.00    +0.000 C 
ATOM      7  C   UNL     1       2.606   3.230  20.772  0.00  0.00    +0.000 C 
ATOM      8  N   UNL     1       3.201   3.854  19.595  0.00  0.00    +0.000 N 
ATOM      9  C   UNL     1       4.530   3.675  19.255  0.00  0.00    +0.000 C 
ATOM     10  O   UNL     1       5.281   2.882  19.812  0.00  0.00    +0.000 OA
ATOM     11  C   UNL     1       5.017   4.479  18.102  0.00  0.00    +0.000 A 
ATOM     12  C   UNL     1       6.223   4.155  17.475  0.00  0.00    +0.000 A 
ATOM     13  C   UNL     1       6.676   4.968  16.447  0.00  0.00    +0.000 A 
ATOM     14  C   UNL     1       5.973   6.112  16.079  0.00  0.00    +0.000 A 
ATOM     15  C   UNL     1       4.767   6.420  16.696  0.00  0.00    +0.000 A 
ATOM     16  C   UNL     1       4.248   5.578  17.678  0.00  0.00    +0.000 A 
ENDROOT
BRANCH  13  17
ATOM     17  O   UNL     1       7.806   4.664  15.748  0.00  0.00    +0.000 OA
ATOM     18  H   UNL     1       7.574   4.046  15.034  0.00  0.00    +0.000 HD
ENDBRANCH  13  17
TORSDOF 1
ENDMDL
MODEL 2
REMARK VINA RESULT:      -7.1      2.006      4.929
REMARK  Name = 
REMARK  2 active torsions:
REMARK  status: ('A' for Active; 'I' for Inactive)
REMARK    1  A    between atoms: C_1  and  N_2
REMARK    2  A    between atoms: C_13  and  O_14
REMARK                            x       y       z     vdW  Elec       q    Type
REMARK                         _______ _______ _______ _____ _____    ______ ____
ROOT
ATOM      1  C   UNL     1       3.231   7.378  17.835  0.00  0.00    +0.000 C 
ATOM      2  N   UNL     1       3.748   6.071  18.194  0.00  0.00    +0.000 N 
ATOM      3  C   UNL     1       4.857   5.550  17.571  0.00  0.00    +0.000 C 
ATOM      4  N   UNL     1       5.986   6.177  17.457  0.00  0.00    +0.000 NA
ATOM      5  C   UNL     1       7.076   5.313  16.963  0.00  0.00    +0.000 C 
ATOM      6  C   UNL     1       6.635   4.795  15.616  0.00  0.00    +0.000 C 
ATOM      7  C   UNL     1       5.406   3.920  15.849  0.00  0.00    +0.000 C 
ATOM      8  N   UNL     1       4.727   4.261  17.095  0.00  0.00    +0.000 N 
ATOM      9  C   UNL     1       4.031   3.325  17.838  0.00  0.00    +0.000 C 
ATOM     10  O   UNL     1       4.035   2.121  17.605  0.00  0.00    +0.000 OA
ATOM     11  C   UNL     1       3.287   3.855  19.013  0.00  0.00    +0.000 A 
ATOM     12  C   UNL     1       2.820   2.985  20.002  0.00  0.00    +0.000 A 
ATOM     13  C   UNL     1       2.074   3.510  21.047  0.00  0.00    +0.000 A 
ATOM     14  C   UNL     1       1.751   4.864  21.085  0.00  0.00    +0.000 A 
ATOM     15  C   UNL     1       2.231   5.725  20.106  0.00  0.00    +0.000 A 
ATOM     16  C   UNL     1       3.049   5.239  19.087  0.00  0.00    +0.000 A 
ENDROOT
BRANCH  13  17
ATOM     17  O   UNL     1       1.653   2.727  22.081  0.00  0.00    +0.000 OA
ATOM     18  H   UNL     1       2.065   1.850  21.996  0.00  0.00    +0.000 HD
ENDBRANCH  13  17
TORSDOF 1
ENDMDL
MODEL 3
REMARK VINA RESULT:      -6.6      1.852      2.735
REMARK  Name = 
REMARK  2 active torsions:
REMARK  status: ('A' for Active; 'I' for Inactive)
REMARK    1  A    between atoms: C_1  and  N_2
REMARK    2  A    between atoms: C_13  and  O_14
REMARK                            x       y       z     vdW  Elec       q    Type
REMARK                         _______ _______ _______ _____ _____    ______ ____
ROOT
ATOM      1  C   UNL     1       3.699   1.781  17.449  0.00  0.00    +0.000 C 
ATOM      2  N   UNL     1       3.787   3.033  18.177  0.00  0.00    +0.000 N 
ATOM      3  C   UNL     1       3.131   3.207  19.372  0.00  0.00    +0.000 C 
ATOM      4  N   UNL     1       3.229   2.395  20.378  0.00  0.00    +0.000 NA
ATOM      5  C   UNL     1       2.620   2.931  21.611  0.00  0.00    +0.000 C 
ATOM      6  C   UNL     1       1.167   3.189  21.295  0.00  0.00    +0.000 C 
ATOM      7  C   UNL     1       1.124   4.283  20.232  0.00  0.00    +0.000 C 
ATOM      8  N   UNL     1       2.371   4.354  19.478  0.00  0.00    +0.000 N 
ATOM      9  C   UNL     1       2.842   5.538  18.938  0.00  0.00    +0.000 C 
ATOM     10  O   UNL     1       2.346   6.638  19.156  0.00  0.00    +0.000 OA
ATOM     11  C   UNL     1       4.059   5.423  18.089  0.00  0.00    +0.000 A 
ATOM     12  C   UNL     1       4.798   6.562  17.759  0.00  0.00    +0.000 A 
ATOM     13  C   UNL     1       5.887   6.423  16.911  0.00  0.00    +0.000 A 
ATOM     14  C   UNL     1       6.208   5.185  16.359  0.00  0.00    +0.000 A 
ATOM     15  C   UNL     1       5.478   4.055  16.703  0.00  0.00    +0.000 A 
ATOM     16  C   UNL     1       4.428   4.151  17.613  0.00  0.00    +0.000 A 
ENDROOT
BRANCH  13  17
ATOM     17  O   UNL     1       6.692   7.481  16.610  0.00  0.00    +0.000 OA
ATOM     18  H   UNL     1       7.247   7.680  17.384  0.00  0.00    +0.000 HD
ENDBRANCH  13  17
TORSDOF 1
ENDMDL
MODEL 4
REMARK VINA RESULT:      -6.5      2.651      4.107
REMARK  Name = 
REMARK  2 active torsions:
REMARK  status: ('A' for Active; 'I' for Inactive)
REMARK    1  A    between atoms: C_1  and  N_2
REMARK    2  A    between atoms: C_13  and  O_14
REMARK                            x       y       z     vdW  Elec       q    Type
REMARK                         _______ _______ _______ _____ _____    ______ ____
ROOT
ATOM      1  C   UNL     1       2.215   4.959  21.353  0.00  0.00    +0.000 C 
ATOM      2  N   UNL     1       2.338   5.207  19.929  0.00  0.00    +0.000 N 
ATOM      3  C   UNL     1       2.566   4.179  19.046  0.00  0.00    +0.000 C 
ATOM      4  N   UNL     1       1.850   3.100  18.989  0.00  0.00    +0.000 NA
ATOM      5  C   UNL     1       2.152   2.271  17.806  0.00  0.00    +0.000 C 
ATOM      6  C   UNL     1       3.616   1.914  17.896  0.00  0.00    +0.000 C 
ATOM      7  C   UNL     1       4.405   3.215  17.776  0.00  0.00    +0.000 C 
ATOM      8  N   UNL     1       3.601   4.373  18.154  0.00  0.00    +0.000 N 
ATOM      9  C   UNL     1       3.797   5.623  17.595  0.00  0.00    +0.000 C 
ATOM     10  O   UNL     1       4.548   5.844  16.651  0.00  0.00    +0.000 OA
ATOM     11  C   UNL     1       2.986   6.726  18.177  0.00  0.00    +0.000 A 
ATOM     12  C   UNL     1       2.861   7.943  17.501  0.00  0.00    +0.000 A 
ATOM     13  C   UNL     1       2.151   8.969  18.107  0.00  0.00    +0.000 A 
ATOM     14  C   UNL     1       1.617   8.811  19.383  0.00  0.00    +0.000 A 
ATOM     15  C   UNL     1       1.733   7.594  20.044  0.00  0.00    +0.000 A 
ATOM     16  C   UNL     1       2.372   6.521  19.427  0.00  0.00    +0.000 A 
ENDROOT
BRANCH  13  17
ATOM     17  O   UNL     1       1.931  10.153  17.468  0.00  0.00    +0.000 OA
ATOM     18  H   UNL     1       1.182  10.603  17.895  0.00  0.00    +0.000 HD
ENDBRANCH  13  17
TORSDOF 1
ENDMDL
MODEL 5
REMARK VINA RESULT:      -6.5      1.951      2.615
REMARK  Name = 
REMARK  2 active torsions:
REMARK  status: ('A' for Active; 'I' for Inactive)
REMARK    1  A    between atoms: C_1  and  N_2
REMARK    2  A    between atoms: C_13  and  O_14
REMARK                            x       y       z     vdW  Elec       q    Type
REMARK                         _______ _______ _______ _____ _____    ______ ____
ROOT
ATOM      1  C   UNL     1       6.730   5.506  19.502  0.00  0.00    +0.000 C 
ATOM      2  N   UNL     1       5.646   5.108  18.622  0.00  0.00    +0.000 N 
ATOM      3  C   UNL     1       4.352   5.031  19.078  0.00  0.00    +0.000 C 
ATOM      4  N   UNL     1       3.746   5.991  19.704  0.00  0.00    +0.000 NA
ATOM      5  C   UNL     1       2.300   5.745  19.871  0.00  0.00    +0.000 C 
ATOM      6  C   UNL     1       2.172   4.459  20.651  0.00  0.00    +0.000 C 
ATOM      7  C   UNL     1       2.744   3.345  19.779  0.00  0.00    +0.000 C 
ATOM      8  N   UNL     1       3.683   3.860  18.788  0.00  0.00    +0.000 N 
ATOM      9  C   UNL     1       3.862   3.257  17.556  0.00  0.00    +0.000 C 
ATOM     10  O   UNL     1       3.166   2.341  17.131  0.00  0.00    +0.000 OA
ATOM     11  C   UNL     1       4.946   3.825  16.709  0.00  0.00    +0.000 A 
ATOM     12  C   UNL     1       5.011   3.519  15.347  0.00  0.00    +0.000 A 
ATOM     13  C   UNL     1       6.074   4.014  14.607  0.00  0.00    +0.000 A 
ATOM     14  C   UNL     1       7.083   4.756  15.214  0.00  0.00    +0.000 A 
ATOM     15  C   UNL     1       7.005   5.069  16.565  0.00  0.00    +0.000 A 
ATOM     16  C   UNL     1       5.909   4.652  17.317  0.00  0.00    +0.000 A 
ENDROOT
BRANCH  13  17
ATOM     17  O   UNL     1       6.155   3.813  13.261  0.00  0.00    +0.000 OA
ATOM     18  H   UNL     1       5.553   3.089  13.017  0.00  0.00    +0.000 HD
ENDBRANCH  13  17
TORSDOF 1
ENDMDL
MODEL 6
REMARK VINA RESULT:      -6.2      2.632      4.372
REMARK  Name = 
REMARK  2 active torsions:
REMARK  status: ('A' for Active; 'I' for Inactive)
REMARK    1  A    between atoms: C_1  and  N_2
REMARK    2  A    between atoms: C_13  and  O_14
REMARK                            x       y       z     vdW  Elec       q    Type
REMARK                         _______ _______ _______ _____ _____    ______ ____
ROOT
ATOM      1  C   UNL     1       4.997   7.186  17.253  0.00  0.00    +0.000 C 
ATOM      2  N   UNL     1       3.732   6.684  17.758  0.00  0.00    +0.000 N 
ATOM      3  C   UNL     1       2.735   7.543  18.155  0.00  0.00    +0.000 C 
ATOM      4  N   UNL     1       2.278   8.510  17.422  0.00  0.00    +0.000 NA
ATOM      5  C   UNL     1       1.058   9.125  17.979  0.00  0.00    +0.000 C 
ATOM      6  C   UNL     1       1.426   9.644  19.348  0.00  0.00    +0.000 C 
ATOM      7  C   UNL     1       1.781   8.434  20.208  0.00  0.00    +0.000 C 
ATOM      8  N   UNL     1       2.186   7.292  19.395  0.00  0.00    +0.000 N 
ATOM      9  C   UNL     1       1.970   5.986  19.796  0.00  0.00    +0.000 C 
ATOM     10  O   UNL     1       1.308   5.669  20.778  0.00  0.00    +0.000 OA
ATOM     11  C   UNL     1       2.555   4.935  18.920  0.00  0.00    +0.000 A 
ATOM     12  C   UNL     1       2.142   3.605  19.041  0.00  0.00    +0.000 A 
ATOM     13  C   UNL     1       2.759   2.645  18.252  0.00  0.00    +0.000 A 
ATOM     14  C   UNL     1       3.802   2.987  17.396  0.00  0.00    +0.000 A 
ATOM     15  C   UNL     1       4.198   4.313  17.270  0.00  0.00    +0.000 A 
ATOM     16  C   UNL     1       3.544   5.310  17.991  0.00  0.00    +0.000 A 
ENDROOT
BRANCH  13  17
ATOM     17  O   UNL     1       2.351   1.345  18.269  0.00  0.00    +0.000 OA
ATOM     18  H   UNL     1       2.080   1.115  19.175  0.00  0.00    +0.000 HD
ENDBRANCH  13  17
TORSDOF 1
ENDMDL
MODEL 7
REMARK VINA RESULT:      -6.1      2.569      5.027
REMARK  Name = 
REMARK  2 active torsions:
REMARK  status: ('A' for Active; 'I' for Inactive)
REMARK    1  A    between atoms: C_1  and  N_2
REMARK    2  A    between atoms: C_13  and  O_14
REMARK                            x       y       z     vdW  Elec       q    Type
REMARK                         _______ _______ _______ _____ _____    ______ ____
ROOT
ATOM      1  C   UNL     1       5.387   4.364  14.976  0.00  0.00    +0.000 C 
ATOM      2  N   UNL     1       5.176   4.738  16.363  0.00  0.00    +0.000 N 
ATOM      3  C   UNL     1       5.838   5.807  16.918  0.00  0.00    +0.000 C 
ATOM      4  N   UNL     1       5.858   6.996  16.401  0.00  0.00    +0.000 NA
ATOM      5  C   UNL     1       6.433   8.007  17.309  0.00  0.00    +0.000 C 
ATOM      6  C   UNL     1       7.839   7.556  17.619  0.00  0.00    +0.000 C 
ATOM      7  C   UNL     1       7.731   6.240  18.385  0.00  0.00    +0.000 C 
ATOM      8  N   UNL     1       6.465   5.563  18.123  0.00  0.00    +0.000 N 
ATOM      9  C   UNL     1       5.850   4.756  19.063  0.00  0.00    +0.000 C 
ATOM     10  O   UNL     1       6.224   4.648  20.226  0.00  0.00    +0.000 OA
ATOM     11  C   UNL     1       4.633   4.035  18.600  0.00  0.00    +0.000 A 
ATOM     12  C   UNL     1       3.761   3.456  19.526  0.00  0.00    +0.000 A 
ATOM     13  C   UNL     1       2.675   2.736  19.053  0.00  0.00    +0.000 A 
ATOM     14  C   UNL     1       2.482   2.549  17.687  0.00  0.00    +0.000 A 
ATOM     15  C   UNL     1       3.344   3.140  16.771  0.00  0.00    +0.000 A 
ATOM     16  C   UNL     1       4.399   3.934  17.216  0.00  0.00    +0.000 A 
ENDROOT
BRANCH  13  17
ATOM     17  O   UNL     1       1.748   2.210  19.903  0.00  0.00    +0.000 OA
ATOM     18  H   UNL     1       2.015   2.409  20.817  0.00  0.00    +0.000 HD
ENDBRANCH  13  17
TORSDOF 1
ENDMDL
MODEL 8
REMARK VINA RESULT:      -6.1      1.918      2.797
REMARK  Name = 
REMARK  2 active torsions:
REMARK  status: ('A' for Active; 'I' for Inactive)
REMARK    1  A    between atoms: C_1  and  N_2
REMARK    2  A    between atoms: C_13  and  O_14
REMARK                            x       y       z     vdW  Elec       q    Type
REMARK                         _______ _______ _______ _____ _____    ______ ____
ROOT
ATOM      1  C   UNL     1       2.802   2.179  17.353  0.00  0.00    +0.000 C 
ATOM      2  N   UNL     1       3.468   3.414  17.724  0.00  0.00    +0.000 N 
ATOM      3  C   UNL     1       3.082   4.122  18.837  0.00  0.00    +0.000 C 
ATOM      4  N   UNL     1       2.965   3.605  20.021  0.00  0.00    +0.000 NA
ATOM      5  C   UNL     1       2.772   4.621  21.074  0.00  0.00    +0.000 C 
ATOM      6  C   UNL     1       1.517   5.378  20.715  0.00  0.00    +0.000 C 
ATOM      7  C   UNL     1       1.790   6.105  19.401  0.00  0.00    +0.000 C 
ATOM      8  N   UNL     1       2.863   5.471  18.644  0.00  0.00    +0.000 N 
ATOM      9  C   UNL     1       3.700   6.186  17.807  0.00  0.00    +0.000 C 
ATOM     10  O   UNL     1       3.715   7.410  17.732  0.00  0.00    +0.000 OA
ATOM     11  C   UNL     1       4.660   5.378  17.007  0.00  0.00    +0.000 A 
ATOM     12  C   UNL     1       5.748   5.991  16.381  0.00  0.00    +0.000 A 
ATOM     13  C   UNL     1       6.582   5.216  15.590  0.00  0.00    +0.000 A 
ATOM     14  C   UNL     1       6.314   3.865  15.380  0.00  0.00    +0.000 A 
ATOM     15  C   UNL     1       5.239   3.258  16.017  0.00  0.00    +0.000 A 
ATOM     16  C   UNL     1       4.430   3.995  16.880  0.00  0.00    +0.000 A 
ENDROOT
BRANCH  13  17
ATOM     17  O   UNL     1       7.701   5.738  15.013  0.00  0.00    +0.000 OA
ATOM     18  H   UNL     1       7.451   6.163  14.175  0.00  0.00    +0.000 HD
ENDBRANCH  13  17
TORSDOF 1
ENDMDL
MODEL 9
REMARK VINA RESULT:      -6.1      2.229      3.310
REMARK  Name = 
REMARK  2 active torsions:
REMARK  status: ('A' for Active; 'I' for Inactive)
REMARK    1  A    between atoms: C_1  and  N_2
REMARK    2  A    between atoms: C_13  and  O_14
REMARK                            x       y       z     vdW  Elec       q    Type
REMARK                         _______ _______ _______ _____ _____    ______ ____
ROOT
ATOM      1  C   UNL     1       6.861   7.387  17.455  0.00  0.00    +0.000 C 
ATOM      2  N   UNL     1       5.805   6.515  16.973  0.00  0.00    +0.000 N 
ATOM      3  C   UNL     1       4.561   6.518  17.556  0.00  0.00    +0.000 C 
ATOM      4  N   UNL     1       3.852   7.587  17.749  0.00  0.00    +0.000 NA
ATOM      5  C   UNL     1       2.469   7.291  18.169  0.00  0.00    +0.000 C 
ATOM      6  C   UNL     1       2.569   6.501  19.450  0.00  0.00    +0.000 C 
ATOM      7  C   UNL     1       3.254   5.179  19.112  0.00  0.00    +0.000 C 
ATOM      8  N   UNL     1       4.056   5.280  17.898  0.00  0.00    +0.000 N 
ATOM      9  C   UNL     1       4.259   4.203  17.054  0.00  0.00    +0.000 C 
ATOM     10  O   UNL     1       3.684   3.125  17.164  0.00  0.00    +0.000 OA
ATOM     11  C   UNL     1       5.205   4.432  15.928  0.00  0.00    +0.000 A 
ATOM     12  C   UNL     1       5.245   3.544  14.849  0.00  0.00    +0.000 A 
ATOM     13  C   UNL     1       6.186   3.755  13.852  0.00  0.00    +0.000 A 
ATOM     14  C   UNL     1       7.105   4.797  13.946  0.00  0.00    +0.000 A 
ATOM     15  C   UNL     1       7.050   5.684  15.014  0.00  0.00    +0.000 A 
ATOM     16  C   UNL     1       6.065   5.543  15.990  0.00  0.00    +0.000 A 
ENDROOT
BRANCH  13  17
ATOM     17  O   UNL     1       6.227   2.970  12.739  0.00  0.00    +0.000 OA
ATOM     18  H   UNL     1       6.116   3.534  11.955  0.00  0.00    +0.000 HD
ENDBRANCH  13  17
TORSDOF 1
ENDMDL
