MODEL 1
REMARK VINA RESULT:      -7.3      0.000      0.000
REMARK  Name = 
REMARK  8 active torsions:
REMARK  status: ('A' for Active; 'I' for Inactive)
REMARK    1  A    between atoms: C_1  and  C_2
REMARK    2  A    between atoms: C_6  and  O_7
REMARK    3  A    between atoms: O_7  and  C_8
REMARK    4  A    between atoms: C_8  and  C_9
REMARK    5  A    between atoms: N_11  and  N_12
REMARK    6  A    between atoms: C_13  and  C_14
REMARK    7  A    between atoms: N_18  and  C_19
REMARK    8  A    between atoms: C_20  and  C_21
REMARK                            x       y       z     vdW  Elec       q    Type
REMARK                         _______ _______ _______ _____ _____    ______ ____
ROOT
ATOM      1  C   UNL     1       4.900   5.419  17.724  0.00  0.00    +0.000 C 
ATOM      2  O   UNL     1       5.556   4.897  16.816  0.00  0.00    +0.000 OA
ATOM      3  N   UNL     1       4.753   4.880  18.995  0.00  0.00    +0.000 N 
ATOM      4  H   UNL     1       4.170   5.330  19.690  0.00  0.00    +0.000 HD
ENDROOT
BRANCH   3   5
ATOM      5  N   UNL     1       5.316   3.669  19.289  0.00  0.00    +0.000 NA
ATOM      6  C   UNL     1       4.580   2.744  19.851  0.00  0.00    +0.000 C 
BRANCH   6   7
ATOM      7  C   UNL     1       3.149   2.794  20.057  0.00  0.00    +0.000 A 
ATOM      8  C   UNL     1       2.462   2.932  21.255  0.00  0.00    +0.000 A 
ATOM      9  C   UNL     1       1.087   3.020  20.980  0.00  0.00    +0.000 A 
ATOM     10  C   UNL     1       0.945   2.932  19.617  0.00  0.00    +0.000 A 
ATOM     11  N   UNL     1       2.188   2.753  19.063  0.00  0.00    +0.000 N 
ATOM     12  C   UNL     1       2.406   2.407  17.674  0.00  0.00    +0.000 C 
ENDBRANCH   6   7
ENDBRANCH   3   5
BRANCH   1  13
ATOM     13  C   UNL     1       4.143   6.732  17.519  0.00  0.00    +0.000 C 
BRANCH  13  14
ATOM     14  O   UNL     1       2.882   6.630  18.168  0.00  0.00    +0.000 OA
BRANCH  14  20
ATOM     15  C   UNL     1       0.541   8.958  21.809  0.00  0.00    +0.000 C 
ATOM     16  C   UNL     1       1.077   8.914  20.401  0.00  0.00    +0.000 A 
ATOM     17  C   UNL     1       0.915  10.035  19.580  0.00  0.00    +0.000 A 
ATOM     18  C   UNL     1       1.413  10.036  18.277  0.00  0.00    +0.000 A 
ATOM     19  C   UNL     1       2.078   8.914  17.776  0.00  0.00    +0.000 A 
ATOM     20  C   UNL     1       2.245   7.776  18.571  0.00  0.00    +0.000 A 
ATOM     21  C   UNL     1       1.742   7.769  19.893  0.00  0.00    +0.000 A 
ATOM     22  C   UNL     1       1.902   6.553  20.773  0.00  0.00    +0.000 C 
ENDBRANCH  14  20
ENDBRANCH  13  14
ENDBRANCH   1  13
TORSDOF 5
ENDMDL
MODEL 2
REMARK VINA RESULT:      -6.8      0.547      1.333
REMARK  Name = 
REMARK  8 active torsions:
REMARK  status: ('A' for Active; 'I' for Inactive)
REMARK    1  A    between atoms: C_1  and  C_2
REMARK    2  A    between atoms: C_6  and  O_7
REMARK    3  A    between atoms: O_7  and  C_8
REMARK    4  A    between atoms: C_8  and  C_9
REMARK    5  A    between atoms: N_11  and  N_12
REMARK    6  A    between atoms: C_13  and  C_14
REMARK    7  A    between atoms: N_18  and  C_19
REMARK    8  A    between atoms: C_20  and  C_21
REMARK                            x       y       z     vdW  Elec       q    Type
REMARK                         _______ _______ _______ _____ _____    ______ ____
ROOT
ATOM      1  C   UNL     1       5.170   5.649  17.846  0.00  0.00    +0.000 C 
ATOM      2  O   UNL     1       6.201   5.338  17.238  0.00  0.00    +0.000 OA
ATOM      3  N   UNL     1       4.618   4.909  18.883  0.00  0.00    +0.000 N 
ATOM      4  H   UNL     1       3.748   5.189  19.320  0.00  0.00    +0.000 HD
ENDROOT
BRANCH   3   5
ATOM      5  N   UNL     1       5.195   3.726  19.256  0.00  0.00    +0.000 NA
ATOM      6  C   UNL     1       4.427   2.715  19.573  0.00  0.00    +0.000 C 
BRANCH   6   7
ATOM      7  C   UNL     1       2.990   2.645  19.412  0.00  0.00    +0.000 A 
ATOM      8  C   UNL     1       2.270   2.436  18.245  0.00  0.00    +0.000 A 
ATOM      9  C   UNL     1       0.904   2.357  18.566  0.00  0.00    +0.000 A 
ATOM     10  C   UNL     1       0.802   2.520  19.924  0.00  0.00    +0.000 A 
ATOM     11  N   UNL     1       2.059   2.736  20.430  0.00  0.00    +0.000 N 
ATOM     12  C   UNL     1       2.316   3.161  21.791  0.00  0.00    +0.000 C 
ENDBRANCH   6   7
ENDBRANCH   3   5
BRANCH   1  13
ATOM     13  C   UNL     1       4.367   6.899  17.484  0.00  0.00    +0.000 C 
BRANCH  13  14
ATOM     14  O   UNL     1       3.046   6.746  17.987  0.00  0.00    +0.000 OA
BRANCH  14  20
ATOM     15  C   UNL     1       0.526   8.770  21.690  0.00  0.00    +0.000 C 
ATOM     16  C   UNL     1       1.118   8.836  20.305  0.00  0.00    +0.000 A 
ATOM     17  C   UNL     1       0.971  10.012  19.562  0.00  0.00    +0.000 A 
ATOM     18  C   UNL     1       1.519  10.115  18.283  0.00  0.00    +0.000 A 
ATOM     19  C   UNL     1       2.221   9.042  17.730  0.00  0.00    +0.000 A 
ATOM     20  C   UNL     1       2.375   7.851  18.446  0.00  0.00    +0.000 A 
ATOM     21  C   UNL     1       1.821   7.740  19.743  0.00  0.00    +0.000 A 
ATOM     22  C   UNL     1       1.965   6.465  20.538  0.00  0.00    +0.000 C 
ENDBRANCH  14  20
ENDBRANCH  13  14
ENDBRANCH   1  13
TORSDOF 5
ENDMDL
MODEL 3
REMARK VINA RESULT:      -6.6      1.160      1.739
REMARK  Name = 
REMARK  8 active torsions:
REMARK  status: ('A' for Active; 'I' for Inactive)
REMARK    1  A    between atoms: C_1  and  C_2
REMARK    2  A    between atoms: C_6  and  O_7
REMARK    3  A    between atoms: O_7  and  C_8
REMARK    4  A    between atoms: C_8  and  C_9
REMARK    5  A    between atoms: N_11  and  N_12
REMARK    6  A    between atoms: C_13  and  C_14
REMARK    7  A    between atoms: N_18  and  C_19
REMARK    8  A    between atoms: C_20  and  C_21
REMARK                            x       y       z     vdW  Elec       q    Type
REMARK                         _______ _______ _______ _____ _____    ______ ____
ROOT
ATOM      1  C   UNL     1       3.716   5.285  17.531  0.00  0.00    +0.000 C 
ATOM      2  O   UNL     1       4.808   4.756  17.295  0.00  0.00    +0.000 OA
ATOM      3  N   UNL     1       2.494   4.631  17.453  0.00  0.00    +0.000 N 
ATOM      4  H   UNL     1       1.625   5.124  17.618  0.00  0.00    +0.000 HD
ENDROOT
BRANCH   3   5
ATOM      5  N   UNL     1       2.447   3.325  17.047  0.00  0.00    +0.000 NA
ATOM      6  C   UNL     1       2.376   2.380  17.950  0.00  0.00    +0.000 C 
BRANCH   6   7
ATOM      7  C   UNL     1       2.171   2.564  19.370  0.00  0.00    +0.000 A 
ATOM      8  C   UNL     1       0.984   2.843  20.033  0.00  0.00    +0.000 A 
ATOM      9  C   UNL     1       1.230   2.853  21.417  0.00  0.00    +0.000 A 
ATOM     10  C   UNL     1       2.565   2.582  21.587  0.00  0.00    +0.000 A 
ATOM     11  N   UNL     1       3.142   2.449  20.348  0.00  0.00    +0.000 N 
ATOM     12  C   UNL     1       4.571   2.373  20.131  0.00  0.00    +0.000 C 
ENDBRANCH   6   7
ENDBRANCH   3   5
BRANCH   1  13
ATOM     13  C   UNL     1       3.602   6.762  17.914  0.00  0.00    +0.000 C 
BRANCH  13  14
ATOM     14  O   UNL     1       2.282   7.003  18.386  0.00  0.00    +0.000 OA
BRANCH  14  20
ATOM     15  C   UNL     1       0.497  10.049  21.805  0.00  0.00    +0.000 C 
ATOM     16  C   UNL     1       1.013   9.785  20.413  0.00  0.00    +0.000 A 
ATOM     17  C   UNL     1       1.098  10.849  19.510  0.00  0.00    +0.000 A 
ATOM     18  C   UNL     1       1.587  10.644  18.219  0.00  0.00    +0.000 A 
ATOM     19  C   UNL     1       1.993   9.370  17.814  0.00  0.00    +0.000 A 
ATOM     20  C   UNL     1       1.908   8.287  18.693  0.00  0.00    +0.000 A 
ATOM     21  C   UNL     1       1.414   8.488  20.003  0.00  0.00    +0.000 A 
ATOM     22  C   UNL     1       1.306   7.336  20.973  0.00  0.00    +0.000 C 
ENDBRANCH  14  20
ENDBRANCH  13  14
ENDBRANCH   1  13
TORSDOF 5
ENDMDL
MODEL 4
REMARK VINA RESULT:      -6.5      1.007      1.969
REMARK  Name = 
REMARK  8 active torsions:
REMARK  status: ('A' for Active; 'I' for Inactive)
REMARK    1  A    between atoms: C_1  and  C_2
REMARK    2  A    between atoms: C_6  and  O_7
REMARK    3  A    between atoms: O_7  and  C_8
REMARK    4  A    between atoms: C_8  and  C_9
REMARK    5  A    between atoms: N_11  and  N_12
REMARK    6  A    between atoms: C_13  and  C_14
REMARK    7  A    between atoms: N_18  and  C_19
REMARK    8  A    between atoms: C_20  and  C_21
REMARK                            x       y       z     vdW  Elec       q    Type
REMARK                         _______ _______ _______ _____ _____    ______ ____
ROOT
ATOM      1  C   UNL     1       4.564   5.300  17.046  0.00  0.00    +0.000 C 
ATOM      2  O   UNL     1       4.896   5.049  15.883  0.00  0.00    +0.000 OA
ATOM      3  N   UNL     1       4.243   4.339  17.995  0.00  0.00    +0.000 N 
ATOM      4  H   UNL     1       3.939   4.602  18.925  0.00  0.00    +0.000 HD
ENDROOT
BRANCH   3   5
ATOM      5  N   UNL     1       4.236   3.016  17.647  0.00  0.00    +0.000 NA
ATOM      6  C   UNL     1       3.684   2.148  18.456  0.00  0.00    +0.000 C 
BRANCH   6   7
ATOM      7  C   UNL     1       2.910   2.450  19.641  0.00  0.00    +0.000 A 
ATOM      8  C   UNL     1       3.370   2.645  20.935  0.00  0.00    +0.000 A 
ATOM      9  C   UNL     1       2.283   3.001  21.752  0.00  0.00    +0.000 A 
ATOM     10  C   UNL     1       1.169   3.018  20.950  0.00  0.00    +0.000 A 
ATOM     11  N   UNL     1       1.542   2.644  19.683  0.00  0.00    +0.000 N 
ATOM     12  C   UNL     1       0.600   2.343  18.625  0.00  0.00    +0.000 C 
ENDBRANCH   6   7
ENDBRANCH   3   5
BRANCH   1  13
ATOM     13  C   UNL     1       4.445   6.737  17.559  0.00  0.00    +0.000 C 
BRANCH  13  14
ATOM     14  O   UNL     1       3.073   7.108  17.542  0.00  0.00    +0.000 OA
BRANCH  14  20
ATOM     15  C   UNL     1       0.537  10.331  20.251  0.00  0.00    +0.000 C 
ATOM     16  C   UNL     1       1.174   8.978  20.064  0.00  0.00    +0.000 A 
ATOM     17  C   UNL     1       1.076   8.035  21.092  0.00  0.00    +0.000 A 
ATOM     18  C   UNL     1       1.639   6.767  20.947  0.00  0.00    +0.000 A 
ATOM     19  C   UNL     1       2.311   6.426  19.771  0.00  0.00    +0.000 A 
ATOM     20  C   UNL     1       2.433   7.352  18.731  0.00  0.00    +0.000 A 
ATOM     21  C   UNL     1       1.864   8.639  18.872  0.00  0.00    +0.000 A 
ATOM     22  C   UNL     1       1.985   9.662  17.768  0.00  0.00    +0.000 C 
ENDBRANCH  14  20
ENDBRANCH  13  14
ENDBRANCH   1  13
TORSDOF 5
ENDMDL
MODEL 5
REMARK VINA RESULT:      -6.5      0.782      2.171
REMARK  Name = 
REMARK  8 active torsions:
REMARK  status: ('A' for Active; 'I' for Inactive)
REMARK    1  A    between atoms: C_1  and  C_2
REMARK    2  A    between atoms: C_6  and  O_7
REMARK    3  A    between atoms: O_7  and  C_8
REMARK    4  A    between atoms: C_8  and  C_9
REMARK    5  A    between atoms: N_11  and  N_12
REMARK    6  A    between atoms: C_13  and  C_14
REMARK    7  A    between atoms: N_18  and  C_19
REMARK    8  A    between atoms: C_20  and  C_21
REMARK                            x       y       z     vdW  Elec       q    Type
REMARK                         _______ _______ _______ _____ _____    ______ ____
ROOT
ATOM      1  C   UNL     1       4.833   5.038  17.959  0.00  0.00    +0.000 C 
ATOM      2  O   UNL     1       5.069   4.389  16.934  0.00  0.00    +0.000 OA
ATOM      3  N   UNL     1       4.902   4.525  19.247  0.00  0.00    +0.000 N 
ATOM      4  H   UNL     1       4.659   5.092  20.050  0.00  0.00    +0.000 HD
ENDROOT
BRANCH   3   5
ATOM      5  N   UNL     1       5.203   3.204  19.436  0.00  0.00    +0.000 NA
ATOM      6  C   UNL     1       4.229   2.347  19.608  0.00  0.00    +0.000 C 
BRANCH   6   7
ATOM      7  C   UNL     1       2.815   2.614  19.453  0.00  0.00    +0.000 A 
ATOM      8  C   UNL     1       2.085   2.695  18.276  0.00  0.00    +0.000 A 
ATOM      9  C   UNL     1       0.730   2.885  18.597  0.00  0.00    +0.000 A 
ATOM     10  C   UNL     1       0.645   2.920  19.966  0.00  0.00    +0.000 A 
ATOM     11  N   UNL     1       1.910   2.798  20.482  0.00  0.00    +0.000 N 
ATOM     12  C   UNL     1       2.233   3.006  21.879  0.00  0.00    +0.000 C 
ENDBRANCH   6   7
ENDBRANCH   3   5
BRANCH   1  13
ATOM     13  C   UNL     1       4.401   6.505  17.902  0.00  0.00    +0.000 C 
BRANCH  13  14
ATOM     14  O   UNL     1       2.980   6.555  17.885  0.00  0.00    +0.000 OA
BRANCH  14  20
ATOM     15  C   UNL     1       0.678  10.402  19.902  0.00  0.00    +0.000 C 
ATOM     16  C   UNL     1       1.178   8.980  19.966  0.00  0.00    +0.000 A 
ATOM     17  C   UNL     1       0.936   8.230  21.121  0.00  0.00    +0.000 A 
ATOM     18  C   UNL     1       1.369   6.907  21.209  0.00  0.00    +0.000 A 
ATOM     19  C   UNL     1       2.053   6.317  20.143  0.00  0.00    +0.000 A 
ATOM     20  C   UNL     1       2.317   7.047  18.981  0.00  0.00    +0.000 A 
ATOM     21  C   UNL     1       1.881   8.390  18.885  0.00  0.00    +0.000 A 
ATOM     22  C   UNL     1       2.157   9.205  17.645  0.00  0.00    +0.000 C 
ENDBRANCH  14  20
ENDBRANCH  13  14
ENDBRANCH   1  13
TORSDOF 5
ENDMDL
MODEL 6
REMARK VINA RESULT:      -6.5      0.647      1.756
REMARK  Name = 
REMARK  8 active torsions:
REMARK  status: ('A' for Active; 'I' for Inactive)
REMARK    1  A    between atoms: C_1  and  C_2
REMARK    2  A    between atoms: C_6  and  O_7
REMARK    3  A    between atoms: O_7  and  C_8
REMARK    4  A    between atoms: C_8  and  C_9
REMARK    5  A    between atoms: N_11  and  N_12
REMARK    6  A    between atoms: C_13  and  C_14
REMARK    7  A    between atoms: N_18  and  C_19
REMARK    8  A    between atoms: C_20  and  C_21
REMARK                            x       y       z     vdW  Elec       q    Type
REMARK                         _______ _______ _______ _____ _____    ______ ____
ROOT
ATOM      1  C   UNL     1       4.582   5.670  18.063  0.00  0.00    +0.000 C 
ATOM      2  O   UNL     1       4.794   5.142  16.966  0.00  0.00    +0.000 OA
ATOM      3  N   UNL     1       4.847   5.070  19.287  0.00  0.00    +0.000 N 
ATOM      4  H   UNL     1       4.616   5.533  20.158  0.00  0.00    +0.000 HD
ENDROOT
BRANCH   3   5
ATOM      5  N   UNL     1       5.332   3.792  19.326  0.00  0.00    +0.000 NA
ATOM      6  C   UNL     1       4.559   2.831  19.765  0.00  0.00    +0.000 C 
BRANCH   6   7
ATOM      7  C   UNL     1       3.149   2.937  20.073  0.00  0.00    +0.000 A 
ATOM      8  C   UNL     1       2.551   3.022  21.322  0.00  0.00    +0.000 A 
ATOM      9  C   UNL     1       1.167   3.198  21.149  0.00  0.00    +0.000 A 
ATOM     10  C   UNL     1       0.932   3.215  19.797  0.00  0.00    +0.000 A 
ATOM     11  N   UNL     1       2.124   3.016  19.147  0.00  0.00    +0.000 N 
ATOM     12  C   UNL     1       2.232   2.761  17.726  0.00  0.00    +0.000 C 
ENDBRANCH   6   7
ENDBRANCH   3   5
BRANCH   1  13
ATOM     13  C   UNL     1       3.964   7.064  18.181  0.00  0.00    +0.000 C 
BRANCH  13  14
ATOM     14  O   UNL     1       2.562   6.920  18.375  0.00  0.00    +0.000 OA
BRANCH  14  20
ATOM     15  C   UNL     1       0.322  11.129  19.567  0.00  0.00    +0.000 C 
ATOM     16  C   UNL     1       0.837   9.759  19.930  0.00  0.00    +0.000 A 
ATOM     17  C   UNL     1       0.656   9.293  21.236  0.00  0.00    +0.000 A 
ATOM     18  C   UNL     1       1.104   8.024  21.604  0.00  0.00    +0.000 A 
ATOM     19  C   UNL     1       1.743   7.205  20.669  0.00  0.00    +0.000 A 
ATOM     20  C   UNL     1       1.947   7.651  19.360  0.00  0.00    +0.000 A 
ATOM     21  C   UNL     1       1.494   8.936  18.981  0.00  0.00    +0.000 A 
ATOM     22  C   UNL     1       1.705   9.446  17.576  0.00  0.00    +0.000 C 
ENDBRANCH  14  20
ENDBRANCH  13  14
ENDBRANCH   1  13
TORSDOF 5
ENDMDL
MODEL 7
REMARK VINA RESULT:      -6.4      2.054      4.145
REMARK  Name = 
REMARK  8 active torsions:
REMARK  status: ('A' for Active; 'I' for Inactive)
REMARK    1  A    between atoms: C_1  and  C_2
REMARK    2  A    between atoms: C_6  and  O_7
REMARK    3  A    between atoms: O_7  and  C_8
REMARK    4  A    between atoms: C_8  and  C_9
REMARK    5  A    between atoms: N_11  and  N_12
REMARK    6  A    between atoms: C_13  and  C_14
REMARK    7  A    between atoms: N_18  and  C_19
REMARK    8  A    between atoms: C_20  and  C_21
REMARK                            x       y       z     vdW  Elec       q    Type
REMARK                         _______ _______ _______ _____ _____    ______ ____
ROOT
ATOM      1  C   UNL     1       2.593   5.070  18.856  0.00  0.00    +0.000 C 
ATOM      2  O   UNL     1       1.932   5.000  17.814  0.00  0.00    +0.000 OA
ATOM      3  N   UNL     1       3.802   4.419  19.063  0.00  0.00    +0.000 N 
ATOM      4  H   UNL     1       4.284   4.480  19.952  0.00  0.00    +0.000 HD
ENDROOT
BRANCH   3   5
ATOM      5  N   UNL     1       4.307   3.599  18.092  0.00  0.00    +0.000 NA
ATOM      6  C   UNL     1       5.348   3.993  17.403  0.00  0.00    +0.000 C 
BRANCH   6   7
ATOM      7  C   UNL     1       6.156   5.165  17.664  0.00  0.00    +0.000 A 
ATOM      8  C   UNL     1       7.267   5.270  18.489  0.00  0.00    +0.000 A 
ATOM      9  C   UNL     1       7.791   6.569  18.377  0.00  0.00    +0.000 A 
ATOM     10  C   UNL     1       6.995   7.246  17.487  0.00  0.00    +0.000 A 
ATOM     11  N   UNL     1       5.982   6.410  17.089  0.00  0.00    +0.000 N 
ATOM     12  C   UNL     1       4.834   6.847  16.322  0.00  0.00    +0.000 C 
ENDBRANCH   6   7
ENDBRANCH   3   5
BRANCH   1  13
ATOM     13  C   UNL     1       2.115   5.881  20.061  0.00  0.00    +0.000 C 
BRANCH  13  14
ATOM     14  O   UNL     1       2.434   7.249  19.839  0.00  0.00    +0.000 OA
BRANCH  14  20
ATOM     15  C   UNL     1      -0.273  11.169  18.630  0.00  0.00    +0.000 C 
ATOM     16  C   UNL     1       0.224  10.171  19.644  0.00  0.00    +0.000 A 
ATOM     17  C   UNL     1      -0.229  10.265  20.964  0.00  0.00    +0.000 A 
ATOM     18  C   UNL     1       0.197   9.349  21.926  0.00  0.00    +0.000 A 
ATOM     19  C   UNL     1       1.085   8.327  21.580  0.00  0.00    +0.000 A 
ATOM     20  C   UNL     1       1.562   8.216  20.271  0.00  0.00    +0.000 A 
ATOM     21  C   UNL     1       1.134   9.142  19.291  0.00  0.00    +0.000 A 
ATOM     22  C   UNL     1       1.636   9.051  17.871  0.00  0.00    +0.000 C 
ENDBRANCH  14  20
ENDBRANCH  13  14
ENDBRANCH   1  13
TORSDOF 5
ENDMDL
MODEL 8
REMARK VINA RESULT:      -6.4      1.962      3.611
REMARK  Name = 
REMARK  8 active torsions:
REMARK  status: ('A' for Active; 'I' for Inactive)
REMARK    1  A    between atoms: C_1  and  C_2
REMARK    2  A    between atoms: C_6  and  O_7
REMARK    3  A    between atoms: O_7  and  C_8
REMARK    4  A    between atoms: C_8  and  C_9
REMARK    5  A    between atoms: N_11  and  N_12
REMARK    6  A    between atoms: C_13  and  C_14
REMARK    7  A    between atoms: N_18  and  C_19
REMARK    8  A    between atoms: C_20  and  C_21
REMARK                            x       y       z     vdW  Elec       q    Type
REMARK                         _______ _______ _______ _____ _____    ______ ____
ROOT
ATOM      1  C   UNL     1       2.474   7.492  18.815  0.00  0.00    +0.000 C 
ATOM      2  O   UNL     1       2.238   8.088  17.759  0.00  0.00    +0.000 OA
ATOM      3  N   UNL     1       3.299   6.380  18.922  0.00  0.00    +0.000 N 
ATOM      4  H   UNL     1       3.426   5.905  19.807  0.00  0.00    +0.000 HD
ENDROOT
BRANCH   3   5
ATOM      5  N   UNL     1       3.871   5.848  17.798  0.00  0.00    +0.000 NA
ATOM      6  C   UNL     1       3.658   4.590  17.510  0.00  0.00    +0.000 C 
BRANCH   6   7
ATOM      7  C   UNL     1       2.726   3.704  18.172  0.00  0.00    +0.000 A 
ATOM      8  C   UNL     1       1.353   3.617  17.989  0.00  0.00    +0.000 A 
ATOM      9  C   UNL     1       0.858   2.561  18.775  0.00  0.00    +0.000 A 
ATOM     10  C   UNL     1       1.932   2.015  19.432  0.00  0.00    +0.000 A 
ATOM     11  N   UNL     1       3.054   2.732  19.100  0.00  0.00    +0.000 N 
ATOM     12  C   UNL     1       4.331   2.580  19.765  0.00  0.00    +0.000 C 
ENDBRANCH   6   7
ENDBRANCH   3   5
BRANCH   1  13
ATOM     13  C   UNL     1       1.839   7.917  20.140  0.00  0.00    +0.000 C 
BRANCH  13  14
ATOM     14  O   UNL     1       1.036   9.067  19.906  0.00  0.00    +0.000 OA
BRANCH  14  20
ATOM     15  C   UNL     1      -1.906  12.708  21.404  0.00  0.00    +0.000 C 
ATOM     16  C   UNL     1      -1.103  11.462  21.680  0.00  0.00    +0.000 A 
ATOM     17  C   UNL     1      -1.090  10.938  22.976  0.00  0.00    +0.000 A 
ATOM     18  C   UNL     1      -0.372   9.778  23.264  0.00  0.00    +0.000 A 
ATOM     19  C   UNL     1       0.347   9.127  22.259  0.00  0.00    +0.000 A 
ATOM     20  C   UNL     1       0.361   9.635  20.956  0.00  0.00    +0.000 A 
ATOM     21  C   UNL     1      -0.365  10.811  20.658  0.00  0.00    +0.000 A 
ATOM     22  C   UNL     1      -0.365  11.386  19.262  0.00  0.00    +0.000 C 
ENDBRANCH  14  20
ENDBRANCH  13  14
ENDBRANCH   1  13
TORSDOF 5
ENDMDL
MODEL 9
REMARK VINA RESULT:      -6.4      2.347      5.025
REMARK  Name = 
REMARK  8 active torsions:
REMARK  status: ('A' for Active; 'I' for Inactive)
REMARK    1  A    between atoms: C_1  and  C_2
REMARK    2  A    between atoms: C_6  and  O_7
REMARK    3  A    between atoms: O_7  and  C_8
REMARK    4  A    between atoms: C_8  and  C_9
REMARK    5  A    between atoms: N_11  and  N_12
REMARK    6  A    between atoms: C_13  and  C_14
REMARK    7  A    between atoms: N_18  and  C_19
REMARK    8  A    between atoms: C_20  and  C_21
REMARK                            x       y       z     vdW  Elec       q    Type
REMARK                         _______ _______ _______ _____ _____    ______ ____
ROOT
ATOM      1  C   UNL     1       3.396   2.063  19.485  0.00  0.00    +0.000 C 
ATOM      2  O   UNL     1       2.671   1.529  18.639  0.00  0.00    +0.000 OA
ATOM      3  N   UNL     1       2.930   2.694  20.631  0.00  0.00    +0.000 N 
ATOM      4  H   UNL     1       3.567   3.151  21.272  0.00  0.00    +0.000 HD
ENDROOT
BRANCH   3   5
ATOM      5  N   UNL     1       1.584   2.794  20.853  0.00  0.00    +0.000 NA
ATOM      6  C   UNL     1       0.980   3.927  20.602  0.00  0.00    +0.000 C 
BRANCH   6   7
ATOM      7  C   UNL     1       1.556   5.079  19.942  0.00  0.00    +0.000 A 
ATOM      8  C   UNL     1       1.994   6.263  20.518  0.00  0.00    +0.000 A 
ATOM      9  C   UNL     1       2.560   7.070  19.515  0.00  0.00    +0.000 A 
ATOM     10  C   UNL     1       2.461   6.373  18.337  0.00  0.00    +0.000 A 
ATOM     11  N   UNL     1       1.816   5.187  18.588  0.00  0.00    +0.000 N 
ATOM     12  C   UNL     1       1.345   4.293  17.551  0.00  0.00    +0.000 C 
ENDBRANCH   6   7
ENDBRANCH   3   5
BRANCH   1  13
ATOM     13  C   UNL     1       4.917   2.107  19.332  0.00  0.00    +0.000 C 
BRANCH  13  14
ATOM     14  O   UNL     1       5.342   3.459  19.442  0.00  0.00    +0.000 OA
BRANCH  14  20
ATOM     15  C   UNL     1       7.573   7.286  17.311  0.00  0.00    +0.000 C 
ATOM     16  C   UNL     1       6.618   6.120  17.261  0.00  0.00    +0.000 A 
ATOM     17  C   UNL     1       5.947   5.844  16.066  0.00  0.00    +0.000 A 
ATOM     18  C   UNL     1       5.069   4.764  15.979  0.00  0.00    +0.000 A 
ATOM     19  C   UNL     1       4.847   3.946  17.089  0.00  0.00    +0.000 A 
ATOM     20  C   UNL     1       5.496   4.205  18.300  0.00  0.00    +0.000 A 
ATOM     21  C   UNL     1       6.387   5.299  18.394  0.00  0.00    +0.000 A 
ATOM     22  C   UNL     1       7.098   5.606  19.690  0.00  0.00    +0.000 C 
ENDBRANCH  14  20
ENDBRANCH  13  14
ENDBRANCH   1  13
TORSDOF 5
ENDMDL
