MODEL 1
REMARK VINA RESULT:      -9.0      0.000      0.000
REMARK  Name = 
REMARK  8 active torsions:
REMARK  status: ('A' for Active; 'I' for Inactive)
REMARK    1  A    between atoms: C_2  and  C_14
REMARK    2  A    between atoms: N_3  and  N_4
REMARK    3  A    between atoms: C_5  and  C_6
REMARK    4  A    between atoms: C_8  and  O_9
REMARK    5  A    between atoms: C_12  and  O_13
REMARK    6  A    between atoms: C_17  and  C_18
REMARK    7  A    between atoms: C_21  and  C_22
REMARK    8  A    between atoms: C_27  and  O_28
REMARK                            x       y       z     vdW  Elec       q    Type
REMARK                         _______ _______ _______ _____ _____    ______ ____
ROOT
ATOM      1  C   UNL     1       0.758   9.271  21.054  0.00  0.00    +0.000 A 
ATOM      2  C   UNL     1       0.699  10.561  20.519  0.00  0.00    +0.000 A 
ATOM      3  C   UNL     1      -0.064  11.544  21.155  0.00  0.00    +0.000 A 
ATOM      4  C   UNL     1      -0.771  11.269  22.338  0.00  0.00    +0.000 A 
ATOM      5  C   UNL     1      -0.660   9.987  22.896  0.00  0.00    +0.000 A 
ATOM      6  C   UNL     1       0.099   8.995  22.261  0.00  0.00    +0.000 A 
ENDROOT
BRANCH   4   7
ATOM      7  C   UNL     1      -1.595  12.317  22.918  0.00  0.00    +0.000 A 
ATOM      8  N   UNL     1      -1.234  13.341  23.665  0.00  0.00    +0.000 NA
ATOM      9  N   UNL     1      -2.383  14.039  23.957  0.00  0.00    +0.000 NA
ATOM     10  C   UNL     1      -3.375  13.389  23.379  0.00  0.00    +0.000 A 
ATOM     11  O   UNL     1      -2.942  12.288  22.685  0.00  0.00    +0.000 OA
BRANCH  10  12
ATOM     12  C   UNL     1      -4.810  13.660  23.455  0.00  0.00    +0.000 A 
ATOM     13  C   UNL     1      -5.293  14.840  22.857  0.00  0.00    +0.000 A 
ATOM     14  C   UNL     1      -6.636  15.212  22.962  0.00  0.00    +0.000 A 
ATOM     15  C   UNL     1      -7.525  14.402  23.663  0.00  0.00    +0.000 A 
ATOM     16  C   UNL     1      -7.076  13.214  24.238  0.00  0.00    +0.000 A 
ATOM     17  C   UNL     1      -5.731  12.845  24.130  0.00  0.00    +0.000 A 
BRANCH  17  18
ATOM     18  O   UNL     1      -5.330  11.674  24.713  0.00  0.00    +0.000 OA
ATOM     19  H   UNL     1      -4.677  11.862  25.404  0.00  0.00    +0.000 HD
ENDBRANCH  17  18
ENDBRANCH  10  12
ENDBRANCH   4   7
BRANCH   1  21
ATOM     20  O   UNL     1       1.987   8.383  19.264  0.00  0.00    +0.000 OA
ATOM     21  C   UNL     1       1.514   8.176  20.378  0.00  0.00    +0.000 C 
ATOM     22  N   UNL     1       1.648   7.003  21.108  0.00  0.00    +0.000 N 
ATOM     23  H   UNL     1       1.312   6.925  22.061  0.00  0.00    +0.000 HD
BRANCH  22  24
ATOM     24  N   UNL     1       2.325   5.960  20.562  0.00  0.00    +0.000 NA
ATOM     25  C   UNL     1       1.619   4.958  20.139  0.00  0.00    +0.000 C 
BRANCH  25  26
ATOM     26  C   UNL     1       2.285   3.803  19.498  0.00  0.00    +0.000 A 
ATOM     27  C   UNL     1       3.382   3.215  20.144  0.00  0.00    +0.000 A 
ATOM     28  C   UNL     1       4.054   2.166  19.532  0.00  0.00    +0.000 A 
ATOM     29  C   UNL     1       3.648   1.688  18.291  0.00  0.00    +0.000 A 
ATOM     30  C   UNL     1       2.544   2.258  17.652  0.00  0.00    +0.000 A 
ATOM     31  C   UNL     1       1.861   3.315  18.259  0.00  0.00    +0.000 A 
BRANCH  28  32
ATOM     32  O   UNL     1       5.133   1.579  20.124  0.00  0.00    +0.000 OA
ATOM     33  H   UNL     1       5.257   1.980  21.002  0.00  0.00    +0.000 HD
ENDBRANCH  28  32
BRANCH  31  34
ATOM     34  O   UNL     1       0.784   3.878  17.630  0.00  0.00    +0.000 OA
ATOM     35  H   UNL     1       0.130   4.136  18.303  0.00  0.00    +0.000 HD
ENDBRANCH  31  34
ENDBRANCH  25  26
ENDBRANCH  22  24
ENDBRANCH   1  21
TORSDOF 8
ENDMDL
MODEL 2
REMARK VINA RESULT:      -8.6      0.883      1.272
REMARK  Name = 
REMARK  8 active torsions:
REMARK  status: ('A' for Active; 'I' for Inactive)
REMARK    1  A    between atoms: C_2  and  C_14
REMARK    2  A    between atoms: N_3  and  N_4
REMARK    3  A    between atoms: C_5  and  C_6
REMARK    4  A    between atoms: C_8  and  O_9
REMARK    5  A    between atoms: C_12  and  O_13
REMARK    6  A    between atoms: C_17  and  C_18
REMARK    7  A    between atoms: C_21  and  C_22
REMARK    8  A    between atoms: C_27  and  O_28
REMARK                            x       y       z     vdW  Elec       q    Type
REMARK                         _______ _______ _______ _____ _____    ______ ____
ROOT
ATOM      1  C   UNL     1       0.778   9.553  20.723  0.00  0.00    +0.000 A 
ATOM      2  C   UNL     1       0.492  10.794  20.147  0.00  0.00    +0.000 A 
ATOM      3  C   UNL     1      -0.200  11.759  20.883  0.00  0.00    +0.000 A 
ATOM      4  C   UNL     1      -0.611  11.516  22.205  0.00  0.00    +0.000 A 
ATOM      5  C   UNL     1      -0.270  10.288  22.792  0.00  0.00    +0.000 A 
ATOM      6  C   UNL     1       0.420   9.314  22.057  0.00  0.00    +0.000 A 
ENDROOT
BRANCH   4   7
ATOM      7  C   UNL     1      -1.380  12.537  22.896  0.00  0.00    +0.000 A 
ATOM      8  N   UNL     1      -0.953  13.536  23.643  0.00  0.00    +0.000 NA
ATOM      9  N   UNL     1      -2.072  14.216  24.066  0.00  0.00    +0.000 NA
ATOM     10  C   UNL     1      -3.113  13.582  23.559  0.00  0.00    +0.000 A 
ATOM     11  O   UNL     1      -2.743  12.509  22.788  0.00  0.00    +0.000 OA
BRANCH  10  12
ATOM     12  C   UNL     1      -4.534  13.841  23.777  0.00  0.00    +0.000 A 
ATOM     13  C   UNL     1      -5.378  12.740  24.017  0.00  0.00    +0.000 A 
ATOM     14  C   UNL     1      -6.762  12.897  24.148  0.00  0.00    +0.000 A 
ATOM     15  C   UNL     1      -7.325  14.165  24.048  0.00  0.00    +0.000 A 
ATOM     16  C   UNL     1      -6.507  15.275  23.840  0.00  0.00    +0.000 A 
ATOM     17  C   UNL     1      -5.123  15.113  23.711  0.00  0.00    +0.000 A 
BRANCH  17  18
ATOM     18  O   UNL     1      -4.356  16.226  23.503  0.00  0.00    +0.000 OA
ATOM     19  H   UNL     1      -3.517  16.138  23.981  0.00  0.00    +0.000 HD
ENDBRANCH  17  18
ENDBRANCH  10  12
ENDBRANCH   4   7
BRANCH   1  21
ATOM     20  O   UNL     1       1.842   8.707  18.810  0.00  0.00    +0.000 OA
ATOM     21  C   UNL     1       1.464   8.473  19.955  0.00  0.00    +0.000 C 
ATOM     22  N   UNL     1       1.650   7.279  20.640  0.00  0.00    +0.000 N 
ATOM     23  H   UNL     1       1.397   7.177  21.615  0.00  0.00    +0.000 HD
BRANCH  22  24
ATOM     24  N   UNL     1       2.271   6.248  20.009  0.00  0.00    +0.000 NA
ATOM     25  C   UNL     1       1.818   5.057  20.247  0.00  0.00    +0.000 C 
BRANCH  25  26
ATOM     26  C   UNL     1       2.419   3.888  19.568  0.00  0.00    +0.000 A 
ATOM     27  C   UNL     1       3.408   3.155  20.239  0.00  0.00    +0.000 A 
ATOM     28  C   UNL     1       4.023   2.089  19.596  0.00  0.00    +0.000 A 
ATOM     29  C   UNL     1       3.666   1.737  18.299  0.00  0.00    +0.000 A 
ATOM     30  C   UNL     1       2.668   2.453  17.633  0.00  0.00    +0.000 A 
ATOM     31  C   UNL     1       2.043   3.528  18.271  0.00  0.00    +0.000 A 
BRANCH  28  32
ATOM     32  O   UNL     1       4.999   1.362  20.213  0.00  0.00    +0.000 OA
ATOM     33  H   UNL     1       5.247   0.624  19.630  0.00  0.00    +0.000 HD
ENDBRANCH  28  32
BRANCH  31  34
ATOM     34  O   UNL     1       1.070   4.234  17.617  0.00  0.00    +0.000 OA
ATOM     35  H   UNL     1       0.367   3.618  17.344  0.00  0.00    +0.000 HD
ENDBRANCH  31  34
ENDBRANCH  25  26
ENDBRANCH  22  24
ENDBRANCH   1  21
TORSDOF 8
ENDMDL
MODEL 3
REMARK VINA RESULT:      -8.5      4.373     12.800
REMARK  Name = 
REMARK  8 active torsions:
REMARK  status: ('A' for Active; 'I' for Inactive)
REMARK    1  A    between atoms: C_2  and  C_14
REMARK    2  A    between atoms: N_3  and  N_4
REMARK    3  A    between atoms: C_5  and  C_6
REMARK    4  A    between atoms: C_8  and  O_9
REMARK    5  A    between atoms: C_12  and  O_13
REMARK    6  A    between atoms: C_17  and  C_18
REMARK    7  A    between atoms: C_21  and  C_22
REMARK    8  A    between atoms: C_27  and  O_28
REMARK                            x       y       z     vdW  Elec       q    Type
REMARK                         _______ _______ _______ _____ _____    ______ ____
ROOT
ATOM      1  C   UNL     1       2.236   7.534  19.457  0.00  0.00    +0.000 A 
ATOM      2  C   UNL     1       2.677   8.131  18.273  0.00  0.00    +0.000 A 
ATOM      3  C   UNL     1       3.683   7.523  17.519  0.00  0.00    +0.000 A 
ATOM      4  C   UNL     1       4.263   6.307  17.919  0.00  0.00    +0.000 A 
ATOM      5  C   UNL     1       3.775   5.688  19.080  0.00  0.00    +0.000 A 
ATOM      6  C   UNL     1       2.769   6.296  19.843  0.00  0.00    +0.000 A 
ENDROOT
BRANCH   4   7
ATOM      7  C   UNL     1       5.348   5.756  17.124  0.00  0.00    +0.000 A 
ATOM      8  N   UNL     1       6.605   5.548  17.464  0.00  0.00    +0.000 NA
ATOM      9  N   UNL     1       7.226   5.011  16.360  0.00  0.00    +0.000 NA
ATOM     10  C   UNL     1       6.310   4.934  15.413  0.00  0.00    +0.000 A 
ATOM     11  O   UNL     1       5.084   5.378  15.837  0.00  0.00    +0.000 OA
BRANCH  10  12
ATOM     12  C   UNL     1       6.471   4.519  14.020  0.00  0.00    +0.000 A 
ATOM     13  C   UNL     1       5.534   3.612  13.488  0.00  0.00    +0.000 A 
ATOM     14  C   UNL     1       5.669   3.101  12.194  0.00  0.00    +0.000 A 
ATOM     15  C   UNL     1       6.744   3.497  11.403  0.00  0.00    +0.000 A 
ATOM     16  C   UNL     1       7.667   4.417  11.897  0.00  0.00    +0.000 A 
ATOM     17  C   UNL     1       7.528   4.927  13.193  0.00  0.00    +0.000 A 
BRANCH  17  18
ATOM     18  O   UNL     1       8.459   5.823  13.642  0.00  0.00    +0.000 OA
ATOM     19  H   UNL     1       8.660   6.462  12.941  0.00  0.00    +0.000 HD
ENDBRANCH  17  18
ENDBRANCH  10  12
ENDBRANCH   4   7
BRANCH   1  21
ATOM     20  O   UNL     1       0.915   7.649  21.392  0.00  0.00    +0.000 OA
ATOM     21  C   UNL     1       1.205   8.177  20.322  0.00  0.00    +0.000 C 
ATOM     22  N   UNL     1       0.679   9.369  19.840  0.00  0.00    +0.000 N 
ATOM     23  H   UNL     1       1.026   9.802  18.993  0.00  0.00    +0.000 HD
BRANCH  22  24
ATOM     24  N   UNL     1      -0.263  10.017  20.573  0.00  0.00    +0.000 NA
ATOM     25  C   UNL     1      -0.412  11.285  20.348  0.00  0.00    +0.000 C 
BRANCH  25  26
ATOM     26  C   UNL     1      -1.444  12.050  21.081  0.00  0.00    +0.000 A 
ATOM     27  C   UNL     1      -2.369  12.808  20.349  0.00  0.00    +0.000 A 
ATOM     28  C   UNL     1      -3.309  13.575  21.021  0.00  0.00    +0.000 A 
ATOM     29  C   UNL     1      -3.351  13.596  22.410  0.00  0.00    +0.000 A 
ATOM     30  C   UNL     1      -2.444  12.827  23.145  0.00  0.00    +0.000 A 
ATOM     31  C   UNL     1      -1.492  12.051  22.478  0.00  0.00    +0.000 A 
BRANCH  28  32
ATOM     32  O   UNL     1      -4.214  14.337  20.340  0.00  0.00    +0.000 OA
ATOM     33  H   UNL     1      -4.058  14.220  19.387  0.00  0.00    +0.000 HD
ENDBRANCH  28  32
BRANCH  31  34
ATOM     34  O   UNL     1      -0.600  11.304  23.197  0.00  0.00    +0.000 OA
ATOM     35  H   UNL     1       0.184  11.137  22.645  0.00  0.00    +0.000 HD
ENDBRANCH  31  34
ENDBRANCH  25  26
ENDBRANCH  22  24
ENDBRANCH   1  21
TORSDOF 8
ENDMDL
MODEL 4
REMARK VINA RESULT:      -8.5      3.931     12.592
REMARK  Name = 
REMARK  8 active torsions:
REMARK  status: ('A' for Active; 'I' for Inactive)
REMARK    1  A    between atoms: C_2  and  C_14
REMARK    2  A    between atoms: N_3  and  N_4
REMARK    3  A    between atoms: C_5  and  C_6
REMARK    4  A    between atoms: C_8  and  O_9
REMARK    5  A    between atoms: C_12  and  O_13
REMARK    6  A    between atoms: C_17  and  C_18
REMARK    7  A    between atoms: C_21  and  C_22
REMARK    8  A    between atoms: C_27  and  O_28
REMARK                            x       y       z     vdW  Elec       q    Type
REMARK                         _______ _______ _______ _____ _____    ______ ____
ROOT
ATOM      1  C   UNL     1       1.844   7.805  19.839  0.00  0.00    +0.000 A 
ATOM      2  C   UNL     1       2.241   8.096  18.531  0.00  0.00    +0.000 A 
ATOM      3  C   UNL     1       2.944   7.143  17.789  0.00  0.00    +0.000 A 
ATOM      4  C   UNL     1       3.255   5.882  18.327  0.00  0.00    +0.000 A 
ATOM      5  C   UNL     1       2.803   5.581  19.621  0.00  0.00    +0.000 A 
ATOM      6  C   UNL     1       2.102   6.534  20.371  0.00  0.00    +0.000 A 
ENDROOT
BRANCH   4   7
ATOM      7  C   UNL     1       4.042   4.957  17.528  0.00  0.00    +0.000 A 
ATOM      8  N   UNL     1       4.404   3.720  17.804  0.00  0.00    +0.000 NA
ATOM      9  N   UNL     1       5.136   3.275  16.727  0.00  0.00    +0.000 NA
ATOM     10  C   UNL     1       5.183   4.274  15.866  0.00  0.00    +0.000 A 
ATOM     11  O   UNL     1       4.492   5.374  16.306  0.00  0.00    +0.000 OA
BRANCH  10  12
ATOM     12  C   UNL     1       5.911   4.354  14.601  0.00  0.00    +0.000 A 
ATOM     13  C   UNL     1       5.444   3.583  13.519  0.00  0.00    +0.000 A 
ATOM     14  C   UNL     1       6.135   3.539  12.304  0.00  0.00    +0.000 A 
ATOM     15  C   UNL     1       7.306   4.275  12.148  0.00  0.00    +0.000 A 
ATOM     16  C   UNL     1       7.772   5.069  13.195  0.00  0.00    +0.000 A 
ATOM     17  C   UNL     1       7.077   5.111  14.408  0.00  0.00    +0.000 A 
BRANCH  17  18
ATOM     18  O   UNL     1       7.570   5.899  15.413  0.00  0.00    +0.000 OA
ATOM     19  H   UNL     1       8.181   5.383  15.961  0.00  0.00    +0.000 HD
ENDBRANCH  17  18
ENDBRANCH  10  12
ENDBRANCH   4   7
BRANCH   1  21
ATOM     20  O   UNL     1       0.846   8.516  21.840  0.00  0.00    +0.000 OA
ATOM     21  C   UNL     1       1.142   8.814  20.686  0.00  0.00    +0.000 C 
ATOM     22  N   UNL     1       0.915  10.045  20.085  0.00  0.00    +0.000 N 
ATOM     23  H   UNL     1       1.264  10.261  19.159  0.00  0.00    +0.000 HD
BRANCH  22  24
ATOM     24  N   UNL     1       0.283  11.017  20.793  0.00  0.00    +0.000 NA
ATOM     25  C   UNL     1      -0.942  11.283  20.462  0.00  0.00    +0.000 C 
BRANCH  25  26
ATOM     26  C   UNL     1      -1.705  12.303  21.213  0.00  0.00    +0.000 A 
ATOM     27  C   UNL     1      -2.427  13.267  20.495  0.00  0.00    +0.000 A 
ATOM     28  C   UNL     1      -3.104  14.266  21.181  0.00  0.00    +0.000 A 
ATOM     29  C   UNL     1      -3.081  14.317  22.570  0.00  0.00    +0.000 A 
ATOM     30  C   UNL     1      -2.379  13.348  23.291  0.00  0.00    +0.000 A 
ATOM     31  C   UNL     1      -1.693  12.338  22.610  0.00  0.00    +0.000 A 
BRANCH  28  32
ATOM     32  O   UNL     1      -3.804  15.229  20.514  0.00  0.00    +0.000 OA
ATOM     33  H   UNL     1      -3.177  15.753  19.986  0.00  0.00    +0.000 HD
ENDBRANCH  28  32
BRANCH  31  34
ATOM     34  O   UNL     1      -1.000  11.393  23.315  0.00  0.00    +0.000 OA
ATOM     35  H   UNL     1      -1.621  10.920  23.897  0.00  0.00    +0.000 HD
ENDBRANCH  31  34
ENDBRANCH  25  26
ENDBRANCH  22  24
ENDBRANCH   1  21
TORSDOF 8
ENDMDL
MODEL 5
REMARK VINA RESULT:      -8.4      4.019     12.601
REMARK  Name = 
REMARK  8 active torsions:
REMARK  status: ('A' for Active; 'I' for Inactive)
REMARK    1  A    between atoms: C_2  and  C_14
REMARK    2  A    between atoms: N_3  and  N_4
REMARK    3  A    between atoms: C_5  and  C_6
REMARK    4  A    between atoms: C_8  and  O_9
REMARK    5  A    between atoms: C_12  and  O_13
REMARK    6  A    between atoms: C_17  and  C_18
REMARK    7  A    between atoms: C_21  and  C_22
REMARK    8  A    between atoms: C_27  and  O_28
REMARK                            x       y       z     vdW  Elec       q    Type
REMARK                         _______ _______ _______ _____ _____    ______ ____
ROOT
ATOM      1  C   UNL     1       1.825   7.908  19.755  0.00  0.00    +0.000 A 
ATOM      2  C   UNL     1       2.105   6.624  20.231  0.00  0.00    +0.000 A 
ATOM      3  C   UNL     1       2.856   5.742  19.451  0.00  0.00    +0.000 A 
ATOM      4  C   UNL     1       3.352   6.119  18.191  0.00  0.00    +0.000 A 
ATOM      5  C   UNL     1       3.112   7.428  17.747  0.00  0.00    +0.000 A 
ATOM      6  C   UNL     1       2.355   8.317  18.523  0.00  0.00    +0.000 A 
ENDROOT
BRANCH   4   7
ATOM      7  C   UNL     1       4.075   5.135  17.402  0.00  0.00    +0.000 A 
ATOM      8  N   UNL     1       4.359   3.881  17.694  0.00  0.00    +0.000 NA
ATOM      9  N   UNL     1       5.057   3.376  16.621  0.00  0.00    +0.000 NA
ATOM     10  C   UNL     1       5.164   4.359  15.746  0.00  0.00    +0.000 A 
ATOM     11  O   UNL     1       4.546   5.506  16.174  0.00  0.00    +0.000 OA
BRANCH  10  12
ATOM     12  C   UNL     1       5.891   4.375  14.478  0.00  0.00    +0.000 A 
ATOM     13  C   UNL     1       5.376   3.616  13.410  0.00  0.00    +0.000 A 
ATOM     14  C   UNL     1       6.059   3.511  12.195  0.00  0.00    +0.000 A 
ATOM     15  C   UNL     1       7.271   4.174  12.024  0.00  0.00    +0.000 A 
ATOM     16  C   UNL     1       7.786   4.955  13.057  0.00  0.00    +0.000 A 
ATOM     17  C   UNL     1       7.099   5.058  14.271  0.00  0.00    +0.000 A 
BRANCH  17  18
ATOM     18  O   UNL     1       7.642   5.831  15.261  0.00  0.00    +0.000 OA
ATOM     19  H   UNL     1       7.537   6.768  15.037  0.00  0.00    +0.000 HD
ENDBRANCH  17  18
ENDBRANCH  10  12
ENDBRANCH   4   7
BRANCH   1  21
ATOM     20  O   UNL     1       1.045   8.855  21.755  0.00  0.00    +0.000 OA
ATOM     21  C   UNL     1       0.979   8.863  20.529  0.00  0.00    +0.000 C 
ATOM     22  N   UNL     1       0.201   9.725  19.767  0.00  0.00    +0.000 N 
ATOM     23  H   UNL     1       0.259   9.745  18.756  0.00  0.00    +0.000 HD
BRANCH  22  24
ATOM     24  N   UNL     1      -0.595  10.627  20.398  0.00  0.00    +0.000 NA
ATOM     25  C   UNL     1      -0.092  11.801  20.618  0.00  0.00    +0.000 C 
BRANCH  25  26
ATOM     26  C   UNL     1      -0.911  12.846  21.269  0.00  0.00    +0.000 A 
ATOM     27  C   UNL     1      -0.552  13.283  22.551  0.00  0.00    +0.000 A 
ATOM     28  C   UNL     1      -1.341  14.223  23.200  0.00  0.00    +0.000 A 
ATOM     29  C   UNL     1      -2.478  14.741  22.591  0.00  0.00    +0.000 A 
ATOM     30  C   UNL     1      -2.830  14.323  21.305  0.00  0.00    +0.000 A 
ATOM     31  C   UNL     1      -2.043  13.377  20.643  0.00  0.00    +0.000 A 
BRANCH  28  32
ATOM     32  O   UNL     1      -1.029  14.659  24.455  0.00  0.00    +0.000 OA
ATOM     33  H   UNL     1      -1.783  14.473  25.040  0.00  0.00    +0.000 HD
ENDBRANCH  28  32
BRANCH  31  34
ATOM     34  O   UNL     1      -2.392  12.962  19.387  0.00  0.00    +0.000 OA
ATOM     35  H   UNL     1      -1.649  13.139  18.783  0.00  0.00    +0.000 HD
ENDBRANCH  31  34
ENDBRANCH  25  26
ENDBRANCH  22  24
ENDBRANCH   1  21
TORSDOF 8
ENDMDL
MODEL 6
REMARK VINA RESULT:      -8.4      4.133     12.624
REMARK  Name = 
REMARK  8 active torsions:
REMARK  status: ('A' for Active; 'I' for Inactive)
REMARK    1  A    between atoms: C_2  and  C_14
REMARK    2  A    between atoms: N_3  and  N_4
REMARK    3  A    between atoms: C_5  and  C_6
REMARK    4  A    between atoms: C_8  and  O_9
REMARK    5  A    between atoms: C_12  and  O_13
REMARK    6  A    between atoms: C_17  and  C_18
REMARK    7  A    between atoms: C_21  and  C_22
REMARK    8  A    between atoms: C_27  and  O_28
REMARK                            x       y       z     vdW  Elec       q    Type
REMARK                         _______ _______ _______ _____ _____    ______ ____
ROOT
ATOM      1  C   UNL     1       1.954   7.827  19.512  0.00  0.00    +0.000 A 
ATOM      2  C   UNL     1       2.403   8.228  18.251  0.00  0.00    +0.000 A 
ATOM      3  C   UNL     1       3.354   7.459  17.574  0.00  0.00    +0.000 A 
ATOM      4  C   UNL     1       3.867   6.275  18.131  0.00  0.00    +0.000 A 
ATOM      5  C   UNL     1       3.369   5.854  19.373  0.00  0.00    +0.000 A 
ATOM      6  C   UNL     1       2.419   6.623  20.058  0.00  0.00    +0.000 A 
ENDROOT
BRANCH   4   7
ATOM      7  C   UNL     1       4.899   5.553  17.404  0.00  0.00    +0.000 A 
ATOM      8  N   UNL     1       5.993   4.979  17.865  0.00  0.00    +0.000 NA
ATOM      9  N   UNL     1       6.635   4.430  16.779  0.00  0.00    +0.000 NA
ATOM     10  C   UNL     1       5.896   4.712  15.722  0.00  0.00    +0.000 A 
ATOM     11  O   UNL     1       4.765   5.414  16.051  0.00  0.00    +0.000 OA
BRANCH  10  12
ATOM     12  C   UNL     1       6.175   4.437  14.314  0.00  0.00    +0.000 A 
ATOM     13  C   UNL     1       5.266   3.629  13.605  0.00  0.00    +0.000 A 
ATOM     14  C   UNL     1       5.508   3.249  12.281  0.00  0.00    +0.000 A 
ATOM     15  C   UNL     1       6.665   3.681  11.639  0.00  0.00    +0.000 A 
ATOM     16  C   UNL     1       7.565   4.506  12.311  0.00  0.00    +0.000 A 
ATOM     17  C   UNL     1       7.319   4.885  13.635  0.00  0.00    +0.000 A 
BRANCH  17  18
ATOM     18  O   UNL     1       8.230   5.691  14.260  0.00  0.00    +0.000 OA
ATOM     19  H   UNL     1       7.798   6.171  14.983  0.00  0.00    +0.000 HD
ENDBRANCH  17  18
ENDBRANCH  10  12
ENDBRANCH   4   7
BRANCH   1  21
ATOM     20  O   UNL     1       0.539   8.196  21.347  0.00  0.00    +0.000 OA
ATOM     21  C   UNL     1       0.983   8.647  20.295  0.00  0.00    +0.000 C 
ATOM     22  N   UNL     1       0.693   9.898  19.764  0.00  0.00    +0.000 N 
ATOM     23  H   UNL     1       1.162  10.250  18.939  0.00  0.00    +0.000 HD
BRANCH  22  24
ATOM     24  N   UNL     1      -0.180  10.705  20.420  0.00  0.00    +0.000 NA
ATOM     25  C   UNL     1       0.212  11.194  21.555  0.00  0.00    +0.000 C 
BRANCH  25  26
ATOM     26  C   UNL     1      -0.671  12.111  22.309  0.00  0.00    +0.000 A 
ATOM     27  C   UNL     1      -1.848  11.600  22.873  0.00  0.00    +0.000 A 
ATOM     28  C   UNL     1      -2.716  12.456  23.537  0.00  0.00    +0.000 A 
ATOM     29  C   UNL     1      -2.428  13.811  23.655  0.00  0.00    +0.000 A 
ATOM     30  C   UNL     1      -1.247  14.322  23.111  0.00  0.00    +0.000 A 
ATOM     31  C   UNL     1      -0.366  13.469  22.440  0.00  0.00    +0.000 A 
BRANCH  28  32
ATOM     32  O   UNL     1      -3.878  11.996  24.085  0.00  0.00    +0.000 OA
ATOM     33  H   UNL     1      -4.426  12.762  24.328  0.00  0.00    +0.000 HD
ENDBRANCH  28  32
BRANCH  31  34
ATOM     34  O   UNL     1       0.787  13.970  21.902  0.00  0.00    +0.000 OA
ATOM     35  H   UNL     1       0.617  14.875  21.588  0.00  0.00    +0.000 HD
ENDBRANCH  31  34
ENDBRANCH  25  26
ENDBRANCH  22  24
ENDBRANCH   1  21
TORSDOF 8
ENDMDL
MODEL 7
REMARK VINA RESULT:      -8.4      1.259      1.548
REMARK  Name = 
REMARK  8 active torsions:
REMARK  status: ('A' for Active; 'I' for Inactive)
REMARK    1  A    between atoms: C_2  and  C_14
REMARK    2  A    between atoms: N_3  and  N_4
REMARK    3  A    between atoms: C_5  and  C_6
REMARK    4  A    between atoms: C_8  and  O_9
REMARK    5  A    between atoms: C_12  and  O_13
REMARK    6  A    between atoms: C_17  and  C_18
REMARK    7  A    between atoms: C_21  and  C_22
REMARK    8  A    between atoms: C_27  and  O_28
REMARK                            x       y       z     vdW  Elec       q    Type
REMARK                         _______ _______ _______ _____ _____    ______ ____
ROOT
ATOM      1  C   UNL     1       0.594   9.593  21.057  0.00  0.00    +0.000 A 
ATOM      2  C   UNL     1       0.468  10.883  20.537  0.00  0.00    +0.000 A 
ATOM      3  C   UNL     1      -0.271  11.844  21.230  0.00  0.00    +0.000 A 
ATOM      4  C   UNL     1      -0.889  11.546  22.457  0.00  0.00    +0.000 A 
ATOM      5  C   UNL     1      -0.710  10.264  22.998  0.00  0.00    +0.000 A 
ATOM      6  C   UNL     1       0.026   9.294  22.304  0.00  0.00    +0.000 A 
ENDROOT
BRANCH   4   7
ATOM      7  C   UNL     1      -1.695  12.571  23.100  0.00  0.00    +0.000 A 
ATOM      8  N   UNL     1      -1.306  13.600  23.827  0.00  0.00    +0.000 NA
ATOM      9  N   UNL     1      -2.448  14.269  24.204  0.00  0.00    +0.000 NA
ATOM     10  C   UNL     1      -3.463  13.599  23.691  0.00  0.00    +0.000 A 
ATOM     11  O   UNL     1      -3.054  12.512  22.961  0.00  0.00    +0.000 OA
BRANCH  10  12
ATOM     12  C   UNL     1      -4.894  13.835  23.868  0.00  0.00    +0.000 A 
ATOM     13  C   UNL     1      -5.726  12.721  24.094  0.00  0.00    +0.000 A 
ATOM     14  C   UNL     1      -7.115  12.855  24.186  0.00  0.00    +0.000 A 
ATOM     15  C   UNL     1      -7.697  14.113  24.061  0.00  0.00    +0.000 A 
ATOM     16  C   UNL     1      -6.892  15.234  23.867  0.00  0.00    +0.000 A 
ATOM     17  C   UNL     1      -5.503  15.096  23.777  0.00  0.00    +0.000 A 
BRANCH  17  18
ATOM     18  O   UNL     1      -4.749  16.221  23.580  0.00  0.00    +0.000 OA
ATOM     19  H   UNL     1      -5.244  17.000  23.877  0.00  0.00    +0.000 HD
ENDBRANCH  17  18
ENDBRANCH  10  12
ENDBRANCH   4   7
BRANCH   1  21
ATOM     20  O   UNL     1       1.694   8.735  19.171  0.00  0.00    +0.000 OA
ATOM     21  C   UNL     1       1.326   8.520  20.322  0.00  0.00    +0.000 C 
ATOM     22  N   UNL     1       1.563   7.356  21.043  0.00  0.00    +0.000 N 
ATOM     23  H   UNL     1       1.314   7.273  22.021  0.00  0.00    +0.000 HD
BRANCH  22  24
ATOM     24  N   UNL     1       2.226   6.334  20.444  0.00  0.00    +0.000 NA
ATOM     25  C   UNL     1       1.541   5.266  20.175  0.00  0.00    +0.000 C 
BRANCH  25  26
ATOM     26  C   UNL     1       2.188   4.126  19.490  0.00  0.00    +0.000 A 
ATOM     27  C   UNL     1       3.438   4.324  18.887  0.00  0.00    +0.000 A 
ATOM     28  C   UNL     1       4.035   3.281  18.192  0.00  0.00    +0.000 A 
ATOM     29  C   UNL     1       3.411   2.042  18.092  0.00  0.00    +0.000 A 
ATOM     30  C   UNL     1       2.173   1.835  18.707  0.00  0.00    +0.000 A 
ATOM     31  C   UNL     1       1.564   2.878  19.409  0.00  0.00    +0.000 A 
BRANCH  28  32
ATOM     32  O   UNL     1       5.244   3.442  17.581  0.00  0.00    +0.000 OA
ATOM     33  H   UNL     1       5.931   3.067  18.158  0.00  0.00    +0.000 HD
ENDBRANCH  28  32
BRANCH  31  34
ATOM     34  O   UNL     1       0.349   2.677  20.005  0.00  0.00    +0.000 OA
ATOM     35  H   UNL     1      -0.246   2.248  19.365  0.00  0.00    +0.000 HD
ENDBRANCH  31  34
ENDBRANCH  25  26
ENDBRANCH  22  24
ENDBRANCH   1  21
TORSDOF 8
ENDMDL
MODEL 8
REMARK VINA RESULT:      -8.3      2.522      2.560
REMARK  Name = 
REMARK  8 active torsions:
REMARK  status: ('A' for Active; 'I' for Inactive)
REMARK    1  A    between atoms: C_2  and  C_14
REMARK    2  A    between atoms: N_3  and  N_4
REMARK    3  A    between atoms: C_5  and  C_6
REMARK    4  A    between atoms: C_8  and  O_9
REMARK    5  A    between atoms: C_12  and  O_13
REMARK    6  A    between atoms: C_17  and  C_18
REMARK    7  A    between atoms: C_21  and  C_22
REMARK    8  A    between atoms: C_27  and  O_28
REMARK                            x       y       z     vdW  Elec       q    Type
REMARK                         _______ _______ _______ _____ _____    ______ ____
ROOT
ATOM      1  C   UNL     1       0.966   8.944  20.715  0.00  0.00    +0.000 A 
ATOM      2  C   UNL     1       0.825  10.188  20.093  0.00  0.00    +0.000 A 
ATOM      3  C   UNL     1       0.156  11.223  20.750  0.00  0.00    +0.000 A 
ATOM      4  C   UNL     1      -0.376  11.047  22.039  0.00  0.00    +0.000 A 
ATOM      5  C   UNL     1      -0.181   9.812  22.676  0.00  0.00    +0.000 A 
ATOM      6  C   UNL     1       0.486   8.769  22.020  0.00  0.00    +0.000 A 
ENDROOT
BRANCH   4   7
ATOM      7  C   UNL     1      -1.115  12.142  22.645  0.00  0.00    +0.000 A 
ATOM      8  N   UNL     1      -0.664  13.157  23.356  0.00  0.00    +0.000 NA
ATOM      9  N   UNL     1      -1.760  13.915  23.697  0.00  0.00    +0.000 NA
ATOM     10  C   UNL     1      -2.813  13.309  23.182  0.00  0.00    +0.000 A 
ATOM     11  O   UNL     1      -2.472  12.179  22.484  0.00  0.00    +0.000 OA
BRANCH  10  12
ATOM     12  C   UNL     1      -4.226  13.653  23.329  0.00  0.00    +0.000 A 
ATOM     13  C   UNL     1      -4.676  14.859  22.760  0.00  0.00    +0.000 A 
ATOM     14  C   UNL     1      -5.992  15.300  22.932  0.00  0.00    +0.000 A 
ATOM     15  C   UNL     1      -6.886  14.532  23.673  0.00  0.00    +0.000 A 
ATOM     16  C   UNL     1      -6.471  13.320  24.221  0.00  0.00    +0.000 A 
ATOM     17  C   UNL     1      -5.154  12.882  24.046  0.00  0.00    +0.000 A 
BRANCH  17  18
ATOM     18  O   UNL     1      -4.786  11.689  24.604  0.00  0.00    +0.000 OA
ATOM     19  H   UNL     1      -5.237  10.962  24.148  0.00  0.00    +0.000 HD
ENDBRANCH  17  18
ENDBRANCH  10  12
ENDBRANCH   4   7
BRANCH   1  21
ATOM     20  O   UNL     1       1.752   6.735  20.634  0.00  0.00    +0.000 OA
ATOM     21  C   UNL     1       1.624   7.795  20.027  0.00  0.00    +0.000 C 
ATOM     22  N   UNL     1       2.007   8.025  18.712  0.00  0.00    +0.000 N 
ATOM     23  H   UNL     1       1.792   8.893  18.236  0.00  0.00    +0.000 HD
BRANCH  22  24
ATOM     24  N   UNL     1       2.610   7.026  18.017  0.00  0.00    +0.000 NA
ATOM     25  C   UNL     1       3.904   7.054  17.950  0.00  0.00    +0.000 C 
BRANCH  25  26
ATOM     26  C   UNL     1       4.632   5.979  17.242  0.00  0.00    +0.000 A 
ATOM     27  C   UNL     1       5.731   6.323  16.443  0.00  0.00    +0.000 A 
ATOM     28  C   UNL     1       6.392   5.335  15.727  0.00  0.00    +0.000 A 
ATOM     29  C   UNL     1       5.982   4.008  15.798  0.00  0.00    +0.000 A 
ATOM     30  C   UNL     1       4.899   3.657  16.608  0.00  0.00    +0.000 A 
ATOM     31  C   UNL     1       4.226   4.645  17.333  0.00  0.00    +0.000 A 
BRANCH  28  32
ATOM     32  O   UNL     1       7.456   5.636  14.928  0.00  0.00    +0.000 OA
ATOM     33  H   UNL     1       8.143   4.961  15.065  0.00  0.00    +0.000 HD
ENDBRANCH  28  32
BRANCH  31  34
ATOM     34  O   UNL     1       3.161   4.302  18.120  0.00  0.00    +0.000 OA
ATOM     35  H   UNL     1       2.596   3.680  17.629  0.00  0.00    +0.000 HD
ENDBRANCH  31  34
ENDBRANCH  25  26
ENDBRANCH  22  24
ENDBRANCH   1  21
TORSDOF 8
ENDMDL
MODEL 9
REMARK VINA RESULT:      -8.3      2.100      2.765
REMARK  Name = 
REMARK  8 active torsions:
REMARK  status: ('A' for Active; 'I' for Inactive)
REMARK    1  A    between atoms: C_2  and  C_14
REMARK    2  A    between atoms: N_3  and  N_4
REMARK    3  A    between atoms: C_5  and  C_6
REMARK    4  A    between atoms: C_8  and  O_9
REMARK    5  A    between atoms: C_12  and  O_13
REMARK    6  A    between atoms: C_17  and  C_18
REMARK    7  A    between atoms: C_21  and  C_22
REMARK    8  A    between atoms: C_27  and  O_28
REMARK                            x       y       z     vdW  Elec       q    Type
REMARK                         _______ _______ _______ _____ _____    ______ ____
ROOT
ATOM      1  C   UNL     1       0.650   9.227  21.035  0.00  0.00    +0.000 A 
ATOM      2  C   UNL     1       0.405  10.482  20.470  0.00  0.00    +0.000 A 
ATOM      3  C   UNL     1      -0.371  11.416  21.160  0.00  0.00    +0.000 A 
ATOM      4  C   UNL     1      -0.908  11.127  22.427  0.00  0.00    +0.000 A 
ATOM      5  C   UNL     1      -0.610   9.886  23.008  0.00  0.00    +0.000 A 
ATOM      6  C   UNL     1       0.164   8.943  22.319  0.00  0.00    +0.000 A 
ENDROOT
BRANCH   4   7
ATOM      7  C   UNL     1      -1.758  12.118  23.067  0.00  0.00    +0.000 A 
ATOM      8  N   UNL     1      -3.058  12.084  23.282  0.00  0.00    +0.000 NA
ATOM      9  N   UNL     1      -3.382  13.259  23.920  0.00  0.00    +0.000 NA
ATOM     10  C   UNL     1      -2.259  13.942  24.043  0.00  0.00    +0.000 A 
ATOM     11  O   UNL     1      -1.180  13.266  23.533  0.00  0.00    +0.000 OA
BRANCH  10  12
ATOM     12  C   UNL     1      -2.065  15.293  24.567  0.00  0.00    +0.000 A 
ATOM     13  C   UNL     1      -1.294  15.445  25.735  0.00  0.00    +0.000 A 
ATOM     14  C   UNL     1      -1.136  16.693  26.346  0.00  0.00    +0.000 A 
ATOM     15  C   UNL     1      -1.743  17.816  25.792  0.00  0.00    +0.000 A 
ATOM     16  C   UNL     1      -2.487  17.695  24.619  0.00  0.00    +0.000 A 
ATOM     17  C   UNL     1      -2.642  16.445  24.010  0.00  0.00    +0.000 A 
BRANCH  17  18
ATOM     18  O   UNL     1      -3.384  16.368  22.864  0.00  0.00    +0.000 OA
ATOM     19  H   UNL     1      -3.541  17.260  22.517  0.00  0.00    +0.000 HD
ENDBRANCH  17  18
ENDBRANCH  10  12
ENDBRANCH   4   7
BRANCH   1  21
ATOM     20  O   UNL     1       1.849   8.428  19.183  0.00  0.00    +0.000 OA
ATOM     21  C   UNL     1       1.425   8.179  20.308  0.00  0.00    +0.000 C 
ATOM     22  N   UNL     1       1.634   6.997  21.008  0.00  0.00    +0.000 N 
ATOM     23  H   UNL     1       1.337   6.886  21.970  0.00  0.00    +0.000 HD
BRANCH  22  24
ATOM     24  N   UNL     1       2.334   5.996  20.415  0.00  0.00    +0.000 NA
ATOM     25  C   UNL     1       1.667   4.939  20.067  0.00  0.00    +0.000 C 
BRANCH  25  26
ATOM     26  C   UNL     1       2.355   3.823  19.383  0.00  0.00    +0.000 A 
ATOM     27  C   UNL     1       3.393   3.160  20.053  0.00  0.00    +0.000 A 
ATOM     28  C   UNL     1       4.088   2.147  19.406  0.00  0.00    +0.000 A 
ATOM     29  C   UNL     1       3.761   1.778  18.106  0.00  0.00    +0.000 A 
ATOM     30  C   UNL     1       2.715   2.422  17.441  0.00  0.00    +0.000 A 
ATOM     31  C   UNL     1       2.010   3.444  18.083  0.00  0.00    +0.000 A 
BRANCH  28  32
ATOM     32  O   UNL     1       5.113   1.491  20.022  0.00  0.00    +0.000 OA
ATOM     33  H   UNL     1       5.728   1.174  19.338  0.00  0.00    +0.000 HD
ENDBRANCH  28  32
BRANCH  31  34
ATOM     34  O   UNL     1       0.990   4.080  17.430  0.00  0.00    +0.000 OA
ATOM     35  H   UNL     1       0.155   3.626  17.638  0.00  0.00    +0.000 HD
ENDBRANCH  31  34
ENDBRANCH  25  26
ENDBRANCH  22  24
ENDBRANCH   1  21
TORSDOF 8
ENDMDL
