MODEL 1
REMARK VINA RESULT:      -7.5      0.000      0.000
REMARK  Name = 
REMARK  6 active torsions:
REMARK  status: ('A' for Active; 'I' for Inactive)
REMARK    1  A    between atoms: O_1  and  C_2
REMARK    2  A    between atoms: C_5  and  C_6
REMARK    3  A    between atoms: N_8  and  C_9
REMARK    4  A    between atoms: C_9  and  C_10
REMARK    5  A    between atoms: C_20  and  O_21
REMARK    6  A    between atoms: C_22  and  O_23
REMARK                            x       y       z     vdW  Elec       q    Type
REMARK                         _______ _______ _______ _____ _____    ______ ____
ROOT
ATOM      1  C   UNL     1       2.604   6.377  18.124  0.00  0.00    +0.000 C 
ATOM      2  C   UNL     1       4.201   6.600  17.982  0.00  0.00    +0.000 C 
ATOM      3  N   UNL     1       5.075   5.891  17.011  0.00  0.00    +0.000 NA
ATOM      4  C   UNL     1       5.279   4.468  17.269  0.00  0.00    +0.000 C 
ATOM      5  C   UNL     1       3.983   3.729  17.419  0.00  0.00    +0.000 C 
ATOM      6  C   UNL     1       3.346   4.111  18.815  0.00  0.00    +0.000 A 
ATOM      7  C   UNL     1       2.238   4.929  18.533  0.00  0.00    +0.000 A 
ATOM      8  C   UNL     1       1.107   4.136  18.239  0.00  0.00    +0.000 A 
ATOM      9  C   UNL     1       1.151   2.732  18.521  0.00  0.00    +0.000 A 
ATOM     10  C   UNL     1       2.171   2.183  19.293  0.00  0.00    +0.000 A 
ATOM     11  C   UNL     1       3.206   2.999  19.629  0.00  0.00    +0.000 A 
ATOM     12 CL   UNL     1       4.423   2.624  20.768  0.00  0.00    +0.000 Cl
ENDROOT
BRANCH   1  16
ATOM     13  C   UNL     1       0.938   9.457  20.803  0.00  0.00    +0.000 A 
ATOM     14  C   UNL     1       1.278   8.197  21.290  0.00  0.00    +0.000 A 
ATOM     15  C   UNL     1       1.882   7.256  20.431  0.00  0.00    +0.000 A 
ATOM     16  C   UNL     1       2.175   7.539  19.074  0.00  0.00    +0.000 A 
ATOM     17  C   UNL     1       1.783   8.813  18.603  0.00  0.00    +0.000 A 
ATOM     18  C   UNL     1       1.176   9.761  19.459  0.00  0.00    +0.000 A 
ATOM     19 CL   UNL     1       0.682  11.283  18.804  0.00  0.00    +0.000 Cl
BRANCH  13  20
ATOM     20  O   UNL     1       0.347  10.368  21.632  0.00  0.00    +0.000 OA
ATOM     21  H   UNL     1      -0.560  10.090  21.851  0.00  0.00    +0.000 HD
ENDBRANCH  13  20
ENDBRANCH   1  16
BRANCH   9  22
ATOM     22  O   UNL     1       0.291   1.859  17.900  0.00  0.00    +0.000 OA
ATOM     23  H   UNL     1      -0.262   2.408  17.302  0.00  0.00    +0.000 HD
ENDBRANCH   9  22
BRANCH  10  24
ATOM     24  O   UNL     1       2.233   0.836  19.525  0.00  0.00    +0.000 OA
ATOM     25  H   UNL     1       2.543   0.719  20.453  0.00  0.00    +0.000 HD
ENDBRANCH  10  24
BRANCH   3  26
ATOM     26  C   UNL     1       4.794   6.173  15.600  0.00  0.00    +0.000 C 
BRANCH  26  27
ATOM     27  C   UNL     1       5.640   5.325  14.718  0.00  0.00    +0.000 A 
ATOM     28  C   UNL     1       5.384   4.195  13.972  0.00  0.00    +0.000 A 
ATOM     29  C   UNL     1       6.609   3.827  13.377  0.00  0.00    +0.000 A 
ATOM     30  C   UNL     1       7.535   4.751  13.802  0.00  0.00    +0.000 A 
ATOM     31  O   UNL     1       6.954   5.674  14.605  0.00  0.00    +0.000 OA
ENDBRANCH  26  27
ENDBRANCH   3  26
TORSDOF 6
ENDMDL
MODEL 2
REMARK VINA RESULT:      -7.4      2.365      5.280
REMARK  Name = 
REMARK  6 active torsions:
REMARK  status: ('A' for Active; 'I' for Inactive)
REMARK    1  A    between atoms: O_1  and  C_2
REMARK    2  A    between atoms: C_5  and  C_6
REMARK    3  A    between atoms: N_8  and  C_9
REMARK    4  A    between atoms: C_9  and  C_10
REMARK    5  A    between atoms: C_20  and  O_21
REMARK    6  A    between atoms: C_22  and  O_23
REMARK                            x       y       z     vdW  Elec       q    Type
REMARK                         _______ _______ _______ _____ _____    ______ ____
ROOT
ATOM      1  C   UNL     1       2.916   5.274  18.756  0.00  0.00    +0.000 C 
ATOM      2  C   UNL     1       1.902   4.548  17.726  0.00  0.00    +0.000 C 
ATOM      3  N   UNL     1       1.994   3.125  17.304  0.00  0.00    +0.000 NA
ATOM      4  C   UNL     1       3.129   2.794  16.448  0.00  0.00    +0.000 C 
ATOM      5  C   UNL     1       4.434   3.231  17.045  0.00  0.00    +0.000 C 
ATOM      6  C   UNL     1       4.533   4.806  16.932  0.00  0.00    +0.000 A 
ATOM      7  C   UNL     1       4.375   5.305  18.237  0.00  0.00    +0.000 A 
ATOM      8  C   UNL     1       5.609   5.280  18.923  0.00  0.00    +0.000 A 
ATOM      9  C   UNL     1       6.811   5.043  18.182  0.00  0.00    +0.000 A 
ATOM     10  C   UNL     1       6.820   5.083  16.790  0.00  0.00    +0.000 A 
ATOM     11  C   UNL     1       5.618   5.192  16.163  0.00  0.00    +0.000 A 
ATOM     12 CL   UNL     1       5.405   5.513  14.498  0.00  0.00    +0.000 Cl
ENDROOT
BRANCH   1  16
ATOM     13  C   UNL     1       1.368   9.328  19.536  0.00  0.00    +0.000 A 
ATOM     14  C   UNL     1       1.730   8.940  18.249  0.00  0.00    +0.000 A 
ATOM     15  C   UNL     1       2.149   7.614  18.012  0.00  0.00    +0.000 A 
ATOM     16  C   UNL     1       2.208   6.638  19.037  0.00  0.00    +0.000 A 
ATOM     17  C   UNL     1       1.869   7.075  20.338  0.00  0.00    +0.000 A 
ATOM     18  C   UNL     1       1.450   8.403  20.582  0.00  0.00    +0.000 A 
ATOM     19 CL   UNL     1       1.093   8.882  22.205  0.00  0.00    +0.000 Cl
BRANCH  13  20
ATOM     20  O   UNL     1       0.969  10.614  19.770  0.00  0.00    +0.000 OA
ATOM     21  H   UNL     1       1.409  10.967  20.564  0.00  0.00    +0.000 HD
ENDBRANCH  13  20
ENDBRANCH   1  16
BRANCH   9  22
ATOM     22  O   UNL     1       7.952   4.601  18.807  0.00  0.00    +0.000 OA
ATOM     23  H   UNL     1       8.671   4.687  18.143  0.00  0.00    +0.000 HD
ENDBRANCH   9  22
BRANCH  10  24
ATOM     24  O   UNL     1       7.961   4.814  16.085  0.00  0.00    +0.000 OA
ATOM     25  H   UNL     1       8.690   5.320  16.516  0.00  0.00    +0.000 HD
ENDBRANCH  10  24
BRANCH   3  26
ATOM     26  C   UNL     1       1.790   2.145  18.375  0.00  0.00    +0.000 C 
BRANCH  26  27
ATOM     27  C   UNL     1       1.950   2.786  19.708  0.00  0.00    +0.000 A 
ATOM     28  C   UNL     1       3.022   2.928  20.562  0.00  0.00    +0.000 A 
ATOM     29  C   UNL     1       2.535   3.602  21.701  0.00  0.00    +0.000 A 
ATOM     30  C   UNL     1       1.196   3.823  21.473  0.00  0.00    +0.000 A 
ATOM     31  O   UNL     1       0.835   3.345  20.259  0.00  0.00    +0.000 OA
ENDBRANCH  26  27
ENDBRANCH   3  26
TORSDOF 6
ENDMDL
MODEL 3
REMARK VINA RESULT:      -7.4      2.207      5.201
REMARK  Name = 
REMARK  6 active torsions:
REMARK  status: ('A' for Active; 'I' for Inactive)
REMARK    1  A    between atoms: O_1  and  C_2
REMARK    2  A    between atoms: C_5  and  C_6
REMARK    3  A    between atoms: N_8  and  C_9
REMARK    4  A    between atoms: C_9  and  C_10
REMARK    5  A    between atoms: C_20  and  O_21
REMARK    6  A    between atoms: C_22  and  O_23
REMARK                            x       y       z     vdW  Elec       q    Type
REMARK                         _______ _______ _______ _____ _____    ______ ____
ROOT
ATOM      1  C   UNL     1       3.254   5.091  18.918  0.00  0.00    +0.000 C 
ATOM      2  C   UNL     1       2.093   4.553  17.927  0.00  0.00    +0.000 C 
ATOM      3  N   UNL     1       2.061   3.199  17.312  0.00  0.00    +0.000 NA
ATOM      4  C   UNL     1       3.074   2.947  16.292  0.00  0.00    +0.000 C 
ATOM      5  C   UNL     1       4.459   3.249  16.783  0.00  0.00    +0.000 C 
ATOM      6  C   UNL     1       4.629   4.819  16.869  0.00  0.00    +0.000 A 
ATOM      7  C   UNL     1       4.644   5.138  18.238  0.00  0.00    +0.000 A 
ATOM      8  C   UNL     1       5.944   4.973  18.764  0.00  0.00    +0.000 A 
ATOM      9  C   UNL     1       7.041   4.796  17.861  0.00  0.00    +0.000 A 
ATOM     10  C   UNL     1       6.896   5.026  16.496  0.00  0.00    +0.000 A 
ATOM     11  C   UNL     1       5.640   5.266  16.035  0.00  0.00    +0.000 A 
ATOM     12 CL   UNL     1       5.259   5.821  14.465  0.00  0.00    +0.000 Cl
ENDROOT
BRANCH   1  16
ATOM     13  C   UNL     1       1.116   8.672  20.350  0.00  0.00    +0.000 A 
ATOM     14  C   UNL     1       1.222   7.538  21.151  0.00  0.00    +0.000 A 
ATOM     15  C   UNL     1       1.977   6.435  20.702  0.00  0.00    +0.000 A 
ATOM     16  C   UNL     1       2.655   6.429  19.458  0.00  0.00    +0.000 A 
ATOM     17  C   UNL     1       2.495   7.580  18.654  0.00  0.00    +0.000 A 
ATOM     18  C   UNL     1       1.738   8.690  19.097  0.00  0.00    +0.000 A 
ATOM     19 CL   UNL     1       1.548  10.047  18.044  0.00  0.00    +0.000 Cl
BRANCH  13  20
ATOM     20  O   UNL     1       0.378   9.740  20.779  0.00  0.00    +0.000 OA
ATOM     21  H   UNL     1      -0.573   9.553  20.690  0.00  0.00    +0.000 HD
ENDBRANCH  13  20
ENDBRANCH   1  16
BRANCH   9  22
ATOM     22  O   UNL     1       8.220   4.229  18.283  0.00  0.00    +0.000 OA
ATOM     23  H   UNL     1       8.395   4.606  19.173  0.00  0.00    +0.000 HD
ENDBRANCH   9  22
BRANCH  10  24
ATOM     24  O   UNL     1       7.936   4.815  15.631  0.00  0.00    +0.000 OA
ATOM     25  H   UNL     1       8.705   4.523  16.174  0.00  0.00    +0.000 HD
ENDBRANCH  10  24
BRANCH   3  26
ATOM     26  C   UNL     1       1.927   2.089  18.261  0.00  0.00    +0.000 C 
BRANCH  26  27
ATOM     27  C   UNL     1       1.781   2.603  19.649  0.00  0.00    +0.000 A 
ATOM     28  C   UNL     1       0.748   3.218  20.321  0.00  0.00    +0.000 A 
ATOM     29  C   UNL     1       1.232   3.507  21.615  0.00  0.00    +0.000 A 
ATOM     30  C   UNL     1       2.531   3.056  21.648  0.00  0.00    +0.000 A 
ATOM     31  O   UNL     1       2.869   2.492  20.464  0.00  0.00    +0.000 OA
ENDBRANCH  26  27
ENDBRANCH   3  26
TORSDOF 6
ENDMDL
MODEL 4
REMARK VINA RESULT:      -7.2      2.289      4.865
REMARK  Name = 
REMARK  6 active torsions:
REMARK  status: ('A' for Active; 'I' for Inactive)
REMARK    1  A    between atoms: O_1  and  C_2
REMARK    2  A    between atoms: C_5  and  C_6
REMARK    3  A    between atoms: N_8  and  C_9
REMARK    4  A    between atoms: C_9  and  C_10
REMARK    5  A    between atoms: C_20  and  O_21
REMARK    6  A    between atoms: C_22  and  O_23
REMARK                            x       y       z     vdW  Elec       q    Type
REMARK                         _______ _______ _______ _____ _____    ______ ____
ROOT
ATOM      1  C   UNL     1       2.766   5.660  18.794  0.00  0.00    +0.000 C 
ATOM      2  C   UNL     1       1.742   4.897  17.800  0.00  0.00    +0.000 C 
ATOM      3  N   UNL     1       1.776   3.441  17.500  0.00  0.00    +0.000 NA
ATOM      4  C   UNL     1       2.914   2.987  16.706  0.00  0.00    +0.000 C 
ATOM      5  C   UNL     1       4.224   3.413  17.300  0.00  0.00    +0.000 C 
ATOM      6  C   UNL     1       4.402   4.966  17.060  0.00  0.00    +0.000 A 
ATOM      7  C   UNL     1       4.237   5.579  18.314  0.00  0.00    +0.000 A 
ATOM      8  C   UNL     1       5.451   5.556  19.034  0.00  0.00    +0.000 A 
ATOM      9  C   UNL     1       6.657   5.203  18.348  0.00  0.00    +0.000 A 
ATOM     10  C   UNL     1       6.701   5.125  16.959  0.00  0.00    +0.000 A 
ATOM     11  C   UNL     1       5.522   5.235  16.292  0.00  0.00    +0.000 A 
ATOM     12 CL   UNL     1       5.364   5.425  14.601  0.00  0.00    +0.000 Cl
ENDROOT
BRANCH   1  16
ATOM     13  C   UNL     1       1.398   9.829  19.228  0.00  0.00    +0.000 A 
ATOM     14  C   UNL     1       1.848   9.351  18.000  0.00  0.00    +0.000 A 
ATOM     15  C   UNL     1       2.206   7.993  17.868  0.00  0.00    +0.000 A 
ATOM     16  C   UNL     1       2.118   7.073  18.941  0.00  0.00    +0.000 A 
ATOM     17  C   UNL     1       1.693   7.599  20.183  0.00  0.00    +0.000 A 
ATOM     18  C   UNL     1       1.334   8.960  20.322  0.00  0.00    +0.000 A 
ATOM     19 CL   UNL     1       0.866   9.545  21.880  0.00  0.00    +0.000 Cl
BRANCH  13  20
ATOM     20  O   UNL     1       1.057  11.145  19.361  0.00  0.00    +0.000 OA
ATOM     21  H   UNL     1       1.331  11.481  20.233  0.00  0.00    +0.000 HD
ENDBRANCH  13  20
ENDBRANCH   1  16
BRANCH   9  22
ATOM     22  O   UNL     1       7.761   4.762  19.039  0.00  0.00    +0.000 OA
ATOM     23  H   UNL     1       8.432   5.475  18.954  0.00  0.00    +0.000 HD
ENDBRANCH   9  22
BRANCH  10  24
ATOM     24  O   UNL     1       7.845   4.745  16.310  0.00  0.00    +0.000 OA
ATOM     25  H   UNL     1       7.755   3.784  16.109  0.00  0.00    +0.000 HD
ENDBRANCH  10  24
BRANCH   3  26
ATOM     26  C   UNL     1       1.500   2.565  18.642  0.00  0.00    +0.000 C 
BRANCH  26  27
ATOM     27  C   UNL     1       2.757   2.245  19.371  0.00  0.00    +0.000 A 
ATOM     28  C   UNL     1       3.387   2.815  20.455  0.00  0.00    +0.000 A 
ATOM     29  C   UNL     1       4.576   2.082  20.654  0.00  0.00    +0.000 A 
ATOM     30  C   UNL     1       4.599   1.116  19.675  0.00  0.00    +0.000 A 
ATOM     31  O   UNL     1       3.492   1.196  18.900  0.00  0.00    +0.000 OA
ENDBRANCH  26  27
ENDBRANCH   3  26
TORSDOF 6
ENDMDL
MODEL 5
REMARK VINA RESULT:      -7.2      7.156      9.593
REMARK  Name = 
REMARK  6 active torsions:
REMARK  status: ('A' for Active; 'I' for Inactive)
REMARK    1  A    between atoms: O_1  and  C_2
REMARK    2  A    between atoms: C_5  and  C_6
REMARK    3  A    between atoms: N_8  and  C_9
REMARK    4  A    between atoms: C_9  and  C_10
REMARK    5  A    between atoms: C_20  and  O_21
REMARK    6  A    between atoms: C_22  and  O_23
REMARK                            x       y       z     vdW  Elec       q    Type
REMARK                         _______ _______ _______ _____ _____    ______ ____
ROOT
ATOM      1  C   UNL     1      -0.723  11.591  18.856  0.00  0.00    +0.000 C 
ATOM      2  C   UNL     1      -1.130  13.133  19.133  0.00  0.00    +0.000 C 
ATOM      3  N   UNL     1      -0.255  14.136  19.795  0.00  0.00    +0.000 NA
ATOM      4  C   UNL     1      -0.019  13.924  21.220  0.00  0.00    +0.000 C 
ATOM      5  C   UNL     1       0.485  12.542  21.510  0.00  0.00    +0.000 C 
ATOM      6  C   UNL     1      -0.713  11.525  21.338  0.00  0.00    +0.000 A 
ATOM      7  C   UNL     1      -0.451  10.802  20.161  0.00  0.00    +0.000 A 
ATOM      8  C   UNL     1       0.419   9.724  20.433  0.00  0.00    +0.000 A 
ATOM      9  C   UNL     1       0.672   9.362  21.795  0.00  0.00    +0.000 A 
ATOM     10  C   UNL     1      -0.098   9.879  22.834  0.00  0.00    +0.000 A 
ATOM     11  C   UNL     1      -0.987  10.859  22.521  0.00  0.00    +0.000 A 
ATOM     12 CL   UNL     1      -2.202  11.453  23.566  0.00  0.00    +0.000 Cl
ENDROOT
BRANCH   1  16
ATOM     13  C   UNL     1      -3.751  10.450  15.861  0.00  0.00    +0.000 A 
ATOM     14  C   UNL     1      -2.500   9.839  15.877  0.00  0.00    +0.000 A 
ATOM     15  C   UNL     1      -1.577  10.165  16.893  0.00  0.00    +0.000 A 
ATOM     16  C   UNL     1      -1.872  11.092  17.923  0.00  0.00    +0.000 A 
ATOM     17  C   UNL     1      -3.136  11.722  17.854  0.00  0.00    +0.000 A 
ATOM     18  C   UNL     1      -4.065  11.401  16.838  0.00  0.00    +0.000 A 
ATOM     19 CL   UNL     1      -5.574  12.242  16.789  0.00  0.00    +0.000 Cl
BRANCH  13  20
ATOM     20  O   UNL     1      -4.644  10.142  14.874  0.00  0.00    +0.000 OA
ATOM     21  H   UNL     1      -4.772   9.178  14.820  0.00  0.00    +0.000 HD
ENDBRANCH  13  20
ENDBRANCH   1  16
BRANCH   9  22
ATOM     22  O   UNL     1       1.786   8.634  22.139  0.00  0.00    +0.000 OA
ATOM     23  H   UNL     1       1.503   8.042  22.870  0.00  0.00    +0.000 HD
ENDBRANCH   9  22
BRANCH  10  24
ATOM     24  O   UNL     1       0.174   9.564  24.137  0.00  0.00    +0.000 OA
ATOM     25  H   UNL     1       0.145   8.581  24.206  0.00  0.00    +0.000 HD
ENDBRANCH  10  24
BRANCH   3  26
ATOM     26  C   UNL     1       0.971  14.470  19.064  0.00  0.00    +0.000 C 
BRANCH  26  27
ATOM     27  C   UNL     1       0.897  15.854  18.524  0.00  0.00    +0.000 A 
ATOM     28  C   UNL     1       1.856  16.779  18.171  0.00  0.00    +0.000 A 
ATOM     29  C   UNL     1       1.159  17.935  17.760  0.00  0.00    +0.000 A 
ATOM     30  C   UNL     1      -0.179  17.645  17.895  0.00  0.00    +0.000 A 
ATOM     31  O   UNL     1      -0.349  16.379  18.344  0.00  0.00    +0.000 OA
ENDBRANCH  26  27
ENDBRANCH   3  26
TORSDOF 6
ENDMDL
MODEL 6
REMARK VINA RESULT:      -7.2      2.493      6.478
REMARK  Name = 
REMARK  6 active torsions:
REMARK  status: ('A' for Active; 'I' for Inactive)
REMARK    1  A    between atoms: O_1  and  C_2
REMARK    2  A    between atoms: C_5  and  C_6
REMARK    3  A    between atoms: N_8  and  C_9
REMARK    4  A    between atoms: C_9  and  C_10
REMARK    5  A    between atoms: C_20  and  O_21
REMARK    6  A    between atoms: C_22  and  O_23
REMARK                            x       y       z     vdW  Elec       q    Type
REMARK                         _______ _______ _______ _____ _____    ______ ____
ROOT
ATOM      1  C   UNL     1       2.871   5.160  17.943  0.00  0.00    +0.000 C 
ATOM      2  C   UNL     1       2.927   6.537  18.791  0.00  0.00    +0.000 C 
ATOM      3  N   UNL     1       2.990   7.899  18.196  0.00  0.00    +0.000 NA
ATOM      4  C   UNL     1       4.243   8.238  17.529  0.00  0.00    +0.000 C 
ATOM      5  C   UNL     1       4.630   7.217  16.500  0.00  0.00    +0.000 C 
ATOM      6  C   UNL     1       5.131   5.917  17.248  0.00  0.00    +0.000 A 
ATOM      7  C   UNL     1       4.130   4.947  17.066  0.00  0.00    +0.000 A 
ATOM      8  C   UNL     1       4.301   4.295  15.825  0.00  0.00    +0.000 A 
ATOM      9  C   UNL     1       5.525   4.482  15.105  0.00  0.00    +0.000 A 
ATOM     10  C   UNL     1       6.629   5.083  15.703  0.00  0.00    +0.000 A 
ATOM     11  C   UNL     1       6.449   5.629  16.936  0.00  0.00    +0.000 A 
ATOM     12 CL   UNL     1       7.702   6.182  17.957  0.00  0.00    +0.000 Cl
ENDROOT
BRANCH   1  16
ATOM     13  C   UNL     1       2.000   2.516  21.361  0.00  0.00    +0.000 A 
ATOM     14  C   UNL     1       1.017   3.353  20.841  0.00  0.00    +0.000 A 
ATOM     15  C   UNL     1       1.297   4.132  19.699  0.00  0.00    +0.000 A 
ATOM     16  C   UNL     1       2.549   4.093  19.036  0.00  0.00    +0.000 A 
ATOM     17  C   UNL     1       3.536   3.260  19.613  0.00  0.00    +0.000 A 
ATOM     18  C   UNL     1       3.262   2.478  20.759  0.00  0.00    +0.000 A 
ATOM     19 CL   UNL     1       4.529   1.516  21.437  0.00  0.00    +0.000 Cl
BRANCH  13  20
ATOM     20  O   UNL     1       1.734   1.766  22.473  0.00  0.00    +0.000 OA
ATOM     21  H   UNL     1       0.930   2.089  22.916  0.00  0.00    +0.000 HD
ENDBRANCH  13  20
ENDBRANCH   1  16
BRANCH   9  22
ATOM     22  O   UNL     1       5.596   4.236  13.755  0.00  0.00    +0.000 OA
ATOM     23  H   UNL     1       5.314   3.302  13.639  0.00  0.00    +0.000 HD
ENDBRANCH   9  22
BRANCH  10  24
ATOM     24  O   UNL     1       7.782   5.299  14.999  0.00  0.00    +0.000 OA
ATOM     25  H   UNL     1       7.681   4.833  14.135  0.00  0.00    +0.000 HD
ENDBRANCH  10  24
BRANCH   3  26
ATOM     26  C   UNL     1       1.811   8.291  17.417  0.00  0.00    +0.000 C 
BRANCH  26  27
ATOM     27  C   UNL     1       0.955   9.223  18.199  0.00  0.00    +0.000 A 
ATOM     28  C   UNL     1      -0.187   9.931  17.894  0.00  0.00    +0.000 A 
ATOM     29  C   UNL     1      -0.511  10.677  19.047  0.00  0.00    +0.000 A 
ATOM     30  C   UNL     1       0.457  10.382  19.979  0.00  0.00    +0.000 A 
ATOM     31  O   UNL     1       1.343   9.489  19.479  0.00  0.00    +0.000 OA
ENDBRANCH  26  27
ENDBRANCH   3  26
TORSDOF 6
ENDMDL
MODEL 7
REMARK VINA RESULT:      -7.1      6.996      9.316
REMARK  Name = 
REMARK  6 active torsions:
REMARK  status: ('A' for Active; 'I' for Inactive)
REMARK    1  A    between atoms: O_1  and  C_2
REMARK    2  A    between atoms: C_5  and  C_6
REMARK    3  A    between atoms: N_8  and  C_9
REMARK    4  A    between atoms: C_9  and  C_10
REMARK    5  A    between atoms: C_20  and  O_21
REMARK    6  A    between atoms: C_22  and  O_23
REMARK                            x       y       z     vdW  Elec       q    Type
REMARK                         _______ _______ _______ _____ _____    ______ ____
ROOT
ATOM      1  C   UNL     1      -0.594  11.384  18.707  0.00  0.00    +0.000 C 
ATOM      2  C   UNL     1      -0.879  12.964  18.917  0.00  0.00    +0.000 C 
ATOM      3  N   UNL     1       0.079  13.926  19.523  0.00  0.00    +0.000 NA
ATOM      4  C   UNL     1       0.319  13.760  20.954  0.00  0.00    +0.000 C 
ATOM      5  C   UNL     1       0.720  12.357  21.301  0.00  0.00    +0.000 C 
ATOM      6  C   UNL     1      -0.554  11.428  21.188  0.00  0.00    +0.000 A 
ATOM      7  C   UNL     1      -0.364  10.635  20.043  0.00  0.00    +0.000 A 
ATOM      8  C   UNL     1       0.426   9.507  20.354  0.00  0.00    +0.000 A 
ATOM      9  C   UNL     1       0.670   9.189  21.728  0.00  0.00    +0.000 A 
ATOM     10  C   UNL     1      -0.044   9.808  22.750  0.00  0.00    +0.000 A 
ATOM     11  C   UNL     1      -0.861  10.838  22.403  0.00  0.00    +0.000 A 
ATOM     12 CL   UNL     1      -2.012  11.569  23.433  0.00  0.00    +0.000 Cl
ENDROOT
BRANCH   1  16
ATOM     13  C   UNL     1      -3.756  10.369  15.806  0.00  0.00    +0.000 A 
ATOM     14  C   UNL     1      -2.533   9.704  15.787  0.00  0.00    +0.000 A 
ATOM     15  C   UNL     1      -1.567   9.992  16.774  0.00  0.00    +0.000 A 
ATOM     16  C   UNL     1      -1.790  10.933  17.809  0.00  0.00    +0.000 A 
ATOM     17  C   UNL     1      -3.027  11.617  17.776  0.00  0.00    +0.000 A 
ATOM     18  C   UNL     1      -3.999  11.334  16.788  0.00  0.00    +0.000 A 
ATOM     19 CL   UNL     1      -5.472  12.240  16.781  0.00  0.00    +0.000 Cl
BRANCH  13  20
ATOM     20  O   UNL     1      -4.690  10.098  14.846  0.00  0.00    +0.000 OA
ATOM     21  H   UNL     1      -4.920   9.151  14.853  0.00  0.00    +0.000 HD
ENDBRANCH  13  20
ENDBRANCH   1  16
BRANCH   9  22
ATOM     22  O   UNL     1       1.730   8.393  22.093  0.00  0.00    +0.000 OA
ATOM     23  H   UNL     1       2.223   8.900  22.775  0.00  0.00    +0.000 HD
ENDBRANCH   9  22
BRANCH  10  24
ATOM     24  O   UNL     1       0.222   9.531  24.064  0.00  0.00    +0.000 OA
ATOM     25  H   UNL     1       0.067   8.566  24.190  0.00  0.00    +0.000 HD
ENDBRANCH  10  24
BRANCH   3  26
ATOM     26  C   UNL     1       1.316  14.132  18.764  0.00  0.00    +0.000 C 
BRANCH  26  27
ATOM     27  C   UNL     1       1.998  15.379  19.204  0.00  0.00    +0.000 A 
ATOM     28  C   UNL     1       3.215  15.626  19.800  0.00  0.00    +0.000 A 
ATOM     29  C   UNL     1       3.279  17.019  20.010  0.00  0.00    +0.000 A 
ATOM     30  C   UNL     1       2.094  17.533  19.536  0.00  0.00    +0.000 A 
ATOM     31  O   UNL     1       1.316  16.547  19.031  0.00  0.00    +0.000 OA
ENDBRANCH  26  27
ENDBRANCH   3  26
TORSDOF 6
ENDMDL
MODEL 8
REMARK VINA RESULT:      -7.1      2.246      4.667
REMARK  Name = 
REMARK  6 active torsions:
REMARK  status: ('A' for Active; 'I' for Inactive)
REMARK    1  A    between atoms: O_1  and  C_2
REMARK    2  A    between atoms: C_5  and  C_6
REMARK    3  A    between atoms: N_8  and  C_9
REMARK    4  A    between atoms: C_9  and  C_10
REMARK    5  A    between atoms: C_20  and  O_21
REMARK    6  A    between atoms: C_22  and  O_23
REMARK                            x       y       z     vdW  Elec       q    Type
REMARK                         _______ _______ _______ _____ _____    ______ ____
ROOT
ATOM      1  C   UNL     1       2.870   5.679  19.164  0.00  0.00    +0.000 C 
ATOM      2  C   UNL     1       1.746   5.155  18.124  0.00  0.00    +0.000 C 
ATOM      3  N   UNL     1       1.698   3.786  17.544  0.00  0.00    +0.000 NA
ATOM      4  C   UNL     1       2.755   3.469  16.589  0.00  0.00    +0.000 C 
ATOM      5  C   UNL     1       4.121   3.735  17.149  0.00  0.00    +0.000 C 
ATOM      6  C   UNL     1       4.345   5.300  17.203  0.00  0.00    +0.000 A 
ATOM      7  C   UNL     1       4.297   5.657  18.562  0.00  0.00    +0.000 A 
ATOM      8  C   UNL     1       5.559   5.460  19.164  0.00  0.00    +0.000 A 
ATOM      9  C   UNL     1       6.697   5.218  18.329  0.00  0.00    +0.000 A 
ATOM     10  C   UNL     1       6.636   5.415  16.952  0.00  0.00    +0.000 A 
ATOM     11  C   UNL     1       5.416   5.686  16.415  0.00  0.00    +0.000 A 
ATOM     12 CL   UNL     1       5.143   6.211  14.812  0.00  0.00    +0.000 Cl
ENDROOT
BRANCH   1  16
ATOM     13  C   UNL     1       0.790   9.364  20.404  0.00  0.00    +0.000 A 
ATOM     14  C   UNL     1       0.869   8.268  21.260  0.00  0.00    +0.000 A 
ATOM     15  C   UNL     1       1.606   7.130  20.870  0.00  0.00    +0.000 A 
ATOM     16  C   UNL     1       2.293   7.052  19.634  0.00  0.00    +0.000 A 
ATOM     17  C   UNL     1       2.162   8.167  18.775  0.00  0.00    +0.000 A 
ATOM     18  C   UNL     1       1.423   9.310  19.158  0.00  0.00    +0.000 A 
ATOM     19 CL   UNL     1       1.268  10.619  18.039  0.00  0.00    +0.000 Cl
BRANCH  13  20
ATOM     20  O   UNL     1       0.071  10.465  20.775  0.00  0.00    +0.000 OA
ATOM     21  H   UNL     1       0.134  11.157  20.094  0.00  0.00    +0.000 HD
ENDBRANCH  13  20
ENDBRANCH   1  16
BRANCH   9  22
ATOM     22  O   UNL     1       7.829   4.621  18.830  0.00  0.00    +0.000 OA
ATOM     23  H   UNL     1       7.578   3.691  19.022  0.00  0.00    +0.000 HD
ENDBRANCH   9  22
BRANCH  10  24
ATOM     24  O   UNL     1       7.712   5.142  16.153  0.00  0.00    +0.000 OA
ATOM     25  H   UNL     1       8.435   5.753  16.427  0.00  0.00    +0.000 HD
ENDBRANCH  10  24
BRANCH   3  26
ATOM     26  C   UNL     1       1.470   2.709  18.512  0.00  0.00    +0.000 C 
BRANCH  26  27
ATOM     27  C   UNL     1       2.759   2.250  19.096  0.00  0.00    +0.000 A 
ATOM     28  C   UNL     1       3.678   1.297  18.714  0.00  0.00    +0.000 A 
ATOM     29  C   UNL     1       4.683   1.296  19.704  0.00  0.00    +0.000 A 
ATOM     30  C   UNL     1       4.310   2.243  20.630  0.00  0.00    +0.000 A 
ATOM     31  O   UNL     1       3.151   2.838  20.262  0.00  0.00    +0.000 OA
ENDBRANCH  26  27
ENDBRANCH   3  26
TORSDOF 6
ENDMDL
MODEL 9
REMARK VINA RESULT:      -7.0      6.130      9.707
REMARK  Name = 
REMARK  6 active torsions:
REMARK  status: ('A' for Active; 'I' for Inactive)
REMARK    1  A    between atoms: O_1  and  C_2
REMARK    2  A    between atoms: C_5  and  C_6
REMARK    3  A    between atoms: N_8  and  C_9
REMARK    4  A    between atoms: C_9  and  C_10
REMARK    5  A    between atoms: C_20  and  O_21
REMARK    6  A    between atoms: C_22  and  O_23
REMARK                            x       y       z     vdW  Elec       q    Type
REMARK                         _______ _______ _______ _____ _____    ______ ____
ROOT
ATOM      1  C   UNL     1      -1.408  12.034  18.926  0.00  0.00    +0.000 C 
ATOM      2  C   UNL     1      -1.467  13.254  19.988  0.00  0.00    +0.000 C 
ATOM      3  N   UNL     1      -0.286  14.018  20.471  0.00  0.00    +0.000 NA
ATOM      4  C   UNL     1       0.628  13.282  21.339  0.00  0.00    +0.000 C 
ATOM      5  C   UNL     1       1.076  11.990  20.724  0.00  0.00    +0.000 C 
ATOM      6  C   UNL     1      -0.130  10.968  20.768  0.00  0.00    +0.000 A 
ATOM      7  C   UNL     1      -0.580  10.832  19.443  0.00  0.00    +0.000 A 
ATOM      8  C   UNL     1       0.200   9.875  18.758  0.00  0.00    +0.000 A 
ATOM      9  C   UNL     1       1.082   9.033  19.508  0.00  0.00    +0.000 A 
ATOM     10  C   UNL     1       1.009   8.965  20.897  0.00  0.00    +0.000 A 
ATOM     11  C   UNL     1       0.183   9.848  21.519  0.00  0.00    +0.000 A 
ATOM     12 CL   UNL     1      -0.259   9.783  23.169  0.00  0.00    +0.000 Cl
ENDROOT
BRANCH   1  16
ATOM     13  C   UNL     1      -5.634  11.775  17.695  0.00  0.00    +0.000 A 
ATOM     14  C   UNL     1      -4.616  11.371  16.835  0.00  0.00    +0.000 A 
ATOM     15  C   UNL     1      -3.278  11.390  17.280  0.00  0.00    +0.000 A 
ATOM     16  C   UNL     1      -2.915  11.796  18.588  0.00  0.00    +0.000 A 
ATOM     17  C   UNL     1      -3.969  12.235  19.422  0.00  0.00    +0.000 A 
ATOM     18  C   UNL     1      -5.312  12.219  18.981  0.00  0.00    +0.000 A 
ATOM     19 CL   UNL     1      -6.546  12.811  20.038  0.00  0.00    +0.000 Cl
BRANCH  13  20
ATOM     20  O   UNL     1      -6.931  11.764  17.263  0.00  0.00    +0.000 OA
ATOM     21  H   UNL     1      -7.174  12.633  16.898  0.00  0.00    +0.000 HD
ENDBRANCH  13  20
ENDBRANCH   1  16
BRANCH   9  22
ATOM     22  O   UNL     1       2.140   8.398  18.902  0.00  0.00    +0.000 OA
ATOM     23  H   UNL     1       1.744   7.691  18.346  0.00  0.00    +0.000 HD
ENDBRANCH   9  22
BRANCH  10  24
ATOM     24  O   UNL     1       1.881   8.192  21.612  0.00  0.00    +0.000 OA
ATOM     25  H   UNL     1       1.493   7.287  21.656  0.00  0.00    +0.000 HD
ENDBRANCH  10  24
BRANCH   3  26
ATOM     26  C   UNL     1       0.414  14.794  19.443  0.00  0.00    +0.000 C 
BRANCH  26  27
ATOM     27  C   UNL     1      -0.295  16.075  19.182  0.00  0.00    +0.000 A 
ATOM     28  C   UNL     1      -0.455  16.849  18.053  0.00  0.00    +0.000 A 
ATOM     29  C   UNL     1      -1.202  17.979  18.449  0.00  0.00    +0.000 A 
ATOM     30  C   UNL     1      -1.444  17.825  19.795  0.00  0.00    +0.000 A 
ATOM     31  O   UNL     1      -0.911  16.666  20.246  0.00  0.00    +0.000 OA
ENDBRANCH  26  27
ENDBRANCH   3  26
TORSDOF 6
ENDMDL
