MODEL 1
REMARK VINA RESULT:      -7.7      0.000      0.000
REMARK  Name = 
REMARK  6 active torsions:
REMARK  status: ('A' for Active; 'I' for Inactive)
REMARK    1  A    between atoms: C_1  and  C_2
REMARK    2  A    between atoms: C_7  and  C_8
REMARK    3  A    between atoms: C_8  and  S_9
REMARK    4  A    between atoms: S_9  and  C_10
REMARK    5  A    between atoms: C_12  and  C_13
REMARK    6  A    between atoms: C_16  and  C_17
REMARK                            x       y       z     vdW  Elec       q    Type
REMARK                         _______ _______ _______ _____ _____    ______ ____
ROOT
ATOM      1  C   UNL     1       8.378   7.455  18.726  0.00  0.00    +0.000 C 
ATOM      2  C   UNL     1       7.384   6.502  18.133  0.00  0.00    +0.000 A 
ATOM      3  C   UNL     1       7.049   6.548  16.772  0.00  0.00    +0.000 A 
ATOM      4  C   UNL     1       6.120   5.660  16.210  0.00  0.00    +0.000 A 
ATOM      5  C   UNL     1       5.546   4.728  17.077  0.00  0.00    +0.000 A 
ATOM      6  N   UNL     1       4.627   3.730  16.888  0.00  0.00    +0.000 N 
ATOM      7  C   UNL     1       4.436   3.078  18.085  0.00  0.00    +0.000 A 
ATOM      8  N   UNL     1       5.163   3.635  19.035  0.00  0.00    +0.000 NA
ATOM      9  C   UNL     1       5.858   4.647  18.426  0.00  0.00    +0.000 A 
ATOM     10  C   UNL     1       6.785   5.545  18.971  0.00  0.00    +0.000 A 
ATOM     11  H   UNL     1       4.188   3.478  16.017  0.00  0.00    +0.000 HD
ENDROOT
BRANCH   7  12
ATOM     12  C   UNL     1       3.489   1.925  18.247  0.00  0.00    +0.000 C 
BRANCH  12  13
ATOM     13  S   UNL     1       1.727   2.474  18.293  0.00  0.00    +0.000 S 
BRANCH  13  14
ATOM     14  C   UNL     1       1.880   4.078  19.067  0.00  0.00    +0.000 A 
ATOM     15  N   UNL     1       2.104   5.105  18.209  0.00  0.00    +0.000 NA
ATOM     16  C   UNL     1       2.230   6.357  18.701  0.00  0.00    +0.000 A 
ATOM     17  C   UNL     1       2.492   7.451  17.711  0.00  0.00    +0.000 C 
ATOM     18  C   UNL     1       2.126   6.645  20.052  0.00  0.00    +0.000 A 
ATOM     19  C   UNL     1       1.893   5.593  20.933  0.00  0.00    +0.000 A 
ATOM     20  C   UNL     1       1.773   4.284  20.446  0.00  0.00    +0.000 A 
BRANCH  20  21
ATOM     21  C   UNL     1       1.547   3.234  21.398  0.00  0.00    +0.000 C 
ATOM     22  N   UNL     1       1.440   2.418  22.213  0.00  0.00    +0.000 NA
ENDBRANCH  20  21
ENDBRANCH  13  14
ENDBRANCH  12  13
ENDBRANCH   7  12
TORSDOF 4
ENDMDL
MODEL 2
REMARK VINA RESULT:      -7.2      2.982      4.405
REMARK  Name = 
REMARK  6 active torsions:
REMARK  status: ('A' for Active; 'I' for Inactive)
REMARK    1  A    between atoms: C_1  and  C_2
REMARK    2  A    between atoms: C_7  and  C_8
REMARK    3  A    between atoms: C_8  and  S_9
REMARK    4  A    between atoms: S_9  and  C_10
REMARK    5  A    between atoms: C_12  and  C_13
REMARK    6  A    between atoms: C_16  and  C_17
REMARK                            x       y       z     vdW  Elec       q    Type
REMARK                         _______ _______ _______ _____ _____    ______ ____
ROOT
ATOM      1  C   UNL     1       4.691   2.741  11.276  0.00  0.00    +0.000 C 
ATOM      2  C   UNL     1       5.564   3.498  12.232  0.00  0.00    +0.000 A 
ATOM      3  C   UNL     1       6.865   3.887  11.883  0.00  0.00    +0.000 A 
ATOM      4  C   UNL     1       7.687   4.595  12.773  0.00  0.00    +0.000 A 
ATOM      5  C   UNL     1       7.141   4.892  14.023  0.00  0.00    +0.000 A 
ATOM      6  N   UNL     1       7.635   5.553  15.117  0.00  0.00    +0.000 N 
ATOM      7  C   UNL     1       6.656   5.595  16.083  0.00  0.00    +0.000 A 
ATOM      8  N   UNL     1       5.575   4.961  15.671  0.00  0.00    +0.000 NA
ATOM      9  C   UNL     1       5.856   4.530  14.401  0.00  0.00    +0.000 A 
ATOM     10  C   UNL     1       5.051   3.820  13.501  0.00  0.00    +0.000 A 
ATOM     11  H   UNL     1       8.545   5.978  15.198  0.00  0.00    +0.000 HD
ENDROOT
BRANCH   7  12
ATOM     12  C   UNL     1       6.853   6.245  17.421  0.00  0.00    +0.000 C 
BRANCH  12  13
ATOM     13  S   UNL     1       6.460   5.100  18.815  0.00  0.00    +0.000 S 
BRANCH  13  14
ATOM     14  C   UNL     1       4.677   5.223  18.876  0.00  0.00    +0.000 A 
ATOM     15  N   UNL     1       4.172   6.401  18.433  0.00  0.00    +0.000 NA
ATOM     16  C   UNL     1       2.834   6.587  18.438  0.00  0.00    +0.000 A 
ATOM     17  C   UNL     1       2.331   7.912  17.953  0.00  0.00    +0.000 C 
ATOM     18  C   UNL     1       1.945   5.614  18.865  0.00  0.00    +0.000 A 
ATOM     19  C   UNL     1       2.461   4.403  19.317  0.00  0.00    +0.000 A 
ATOM     20  C   UNL     1       3.848   4.195  19.334  0.00  0.00    +0.000 A 
BRANCH  20  21
ATOM     21  C   UNL     1       4.329   2.934  19.823  0.00  0.00    +0.000 C 
ATOM     22  N   UNL     1       4.794   1.931  20.167  0.00  0.00    +0.000 NA
ENDBRANCH  20  21
ENDBRANCH  13  14
ENDBRANCH  12  13
ENDBRANCH   7  12
TORSDOF 4
ENDMDL
MODEL 3
REMARK VINA RESULT:      -6.9      1.343      3.140
REMARK  Name = 
REMARK  6 active torsions:
REMARK  status: ('A' for Active; 'I' for Inactive)
REMARK    1  A    between atoms: C_1  and  C_2
REMARK    2  A    between atoms: C_7  and  C_8
REMARK    3  A    between atoms: C_8  and  S_9
REMARK    4  A    between atoms: S_9  and  C_10
REMARK    5  A    between atoms: C_12  and  C_13
REMARK    6  A    between atoms: C_16  and  C_17
REMARK                            x       y       z     vdW  Elec       q    Type
REMARK                         _______ _______ _______ _____ _____    ______ ____
ROOT
ATOM      1  C   UNL     1       8.348   9.275  17.757  0.00  0.00    +0.000 C 
ATOM      2  C   UNL     1       7.843   7.884  18.001  0.00  0.00    +0.000 A 
ATOM      3  C   UNL     1       8.397   7.070  19.000  0.00  0.00    +0.000 A 
ATOM      4  C   UNL     1       7.930   5.768  19.234  0.00  0.00    +0.000 A 
ATOM      5  C   UNL     1       6.886   5.325  18.420  0.00  0.00    +0.000 A 
ATOM      6  N   UNL     1       6.192   4.145  18.363  0.00  0.00    +0.000 N 
ATOM      7  C   UNL     1       5.228   4.251  17.387  0.00  0.00    +0.000 A 
ATOM      8  N   UNL     1       5.297   5.428  16.796  0.00  0.00    +0.000 NA
ATOM      9  C   UNL     1       6.308   6.103  17.428  0.00  0.00    +0.000 A 
ATOM     10  C   UNL     1       6.789   7.400  17.206  0.00  0.00    +0.000 A 
ATOM     11  H   UNL     1       6.327   3.342  18.957  0.00  0.00    +0.000 HD
ENDROOT
BRANCH   7  12
ATOM     12  C   UNL     1       4.280   3.137  17.049  0.00  0.00    +0.000 C 
BRANCH  12  13
ATOM     13  S   UNL     1       2.526   3.710  16.994  0.00  0.00    +0.000 S 
BRANCH  13  14
ATOM     14  C   UNL     1       2.277   4.240  18.684  0.00  0.00    +0.000 A 
ATOM     15  N   UNL     1       2.050   3.236  19.567  0.00  0.00    +0.000 NA
ATOM     16  C   UNL     1       1.854   3.537  20.870  0.00  0.00    +0.000 A 
ATOM     17  C   UNL     1       1.593   2.392  21.799  0.00  0.00    +0.000 C 
ATOM     18  C   UNL     1       1.889   4.836  21.350  0.00  0.00    +0.000 A 
ATOM     19  C   UNL     1       2.124   5.867  20.445  0.00  0.00    +0.000 A 
ATOM     20  C   UNL     1       2.316   5.577  19.087  0.00  0.00    +0.000 A 
BRANCH  20  21
ATOM     21  C   UNL     1       2.541   6.678  18.194  0.00  0.00    +0.000 C 
ATOM     22  N   UNL     1       2.703   7.623  17.544  0.00  0.00    +0.000 NA
ENDBRANCH  20  21
ENDBRANCH  13  14
ENDBRANCH  12  13
ENDBRANCH   7  12
TORSDOF 4
ENDMDL
MODEL 4
REMARK VINA RESULT:      -6.8      2.899      6.330
REMARK  Name = 
REMARK  6 active torsions:
REMARK  status: ('A' for Active; 'I' for Inactive)
REMARK    1  A    between atoms: C_1  and  C_2
REMARK    2  A    between atoms: C_7  and  C_8
REMARK    3  A    between atoms: C_8  and  S_9
REMARK    4  A    between atoms: S_9  and  C_10
REMARK    5  A    between atoms: C_12  and  C_13
REMARK    6  A    between atoms: C_16  and  C_17
REMARK                            x       y       z     vdW  Elec       q    Type
REMARK                         _______ _______ _______ _____ _____    ______ ____
ROOT
ATOM      1  C   UNL     1      -0.792  10.140  23.160  0.00  0.00    +0.000 C 
ATOM      2  C   UNL     1      -0.163   9.905  21.818  0.00  0.00    +0.000 A 
ATOM      3  C   UNL     1      -0.393  10.774  20.741  0.00  0.00    +0.000 A 
ATOM      4  C   UNL     1       0.191  10.561  19.484  0.00  0.00    +0.000 A 
ATOM      5  C   UNL     1       1.013   9.439  19.361  0.00  0.00    +0.000 A 
ATOM      6  N   UNL     1       1.734   8.928  18.313  0.00  0.00    +0.000 N 
ATOM      7  C   UNL     1       2.405   7.808  18.749  0.00  0.00    +0.000 A 
ATOM      8  N   UNL     1       2.120   7.561  20.012  0.00  0.00    +0.000 NA
ATOM      9  C   UNL     1       1.269   8.562  20.405  0.00  0.00    +0.000 A 
ATOM     10  C   UNL     1       0.675   8.788  21.653  0.00  0.00    +0.000 A 
ATOM     11  H   UNL     1       1.802   9.320  17.388  0.00  0.00    +0.000 HD
ENDROOT
BRANCH   7  12
ATOM     12  C   UNL     1       3.295   6.990  17.859  0.00  0.00    +0.000 C 
BRANCH  12  13
ATOM     13  S   UNL     1       4.507   5.984  18.822  0.00  0.00    +0.000 S 
BRANCH  13  14
ATOM     14  C   UNL     1       3.736   4.371  18.778  0.00  0.00    +0.000 A 
ATOM     15  N   UNL     1       2.919   4.102  19.826  0.00  0.00    +0.000 NA
ATOM     16  C   UNL     1       2.288   2.908  19.880  0.00  0.00    +0.000 A 
ATOM     17  C   UNL     1       1.410   2.658  21.066  0.00  0.00    +0.000 C 
ATOM     18  C   UNL     1       2.428   1.944  18.895  0.00  0.00    +0.000 A 
ATOM     19  C   UNL     1       3.265   2.219  17.817  0.00  0.00    +0.000 A 
ATOM     20  C   UNL     1       3.939   3.446  17.750  0.00  0.00    +0.000 A 
BRANCH  20  21
ATOM     21  C   UNL     1       4.800   3.675  16.624  0.00  0.00    +0.000 C 
ATOM     22  N   UNL     1       5.433   3.814  15.664  0.00  0.00    +0.000 NA
ENDBRANCH  20  21
ENDBRANCH  13  14
ENDBRANCH  12  13
ENDBRANCH   7  12
TORSDOF 4
ENDMDL
MODEL 5
REMARK VINA RESULT:      -6.7      0.879      1.495
REMARK  Name = 
REMARK  6 active torsions:
REMARK  status: ('A' for Active; 'I' for Inactive)
REMARK    1  A    between atoms: C_1  and  C_2
REMARK    2  A    between atoms: C_7  and  C_8
REMARK    3  A    between atoms: C_8  and  S_9
REMARK    4  A    between atoms: S_9  and  C_10
REMARK    5  A    between atoms: C_12  and  C_13
REMARK    6  A    between atoms: C_16  and  C_17
REMARK                            x       y       z     vdW  Elec       q    Type
REMARK                         _______ _______ _______ _____ _____    ______ ____
ROOT
ATOM      1  C   UNL     1       8.247   8.458  17.718  0.00  0.00    +0.000 C 
ATOM      2  C   UNL     1       7.487   7.187  17.955  0.00  0.00    +0.000 A 
ATOM      3  C   UNL     1       7.828   6.317  19.002  0.00  0.00    +0.000 A 
ATOM      4  C   UNL     1       7.122   5.126  19.230  0.00  0.00    +0.000 A 
ATOM      5  C   UNL     1       6.063   4.853  18.361  0.00  0.00    +0.000 A 
ATOM      6  N   UNL     1       5.173   3.814  18.282  0.00  0.00    +0.000 N 
ATOM      7  C   UNL     1       4.301   4.062  17.247  0.00  0.00    +0.000 A 
ATOM      8  N   UNL     1       4.615   5.191  16.640  0.00  0.00    +0.000 NA
ATOM      9  C   UNL     1       5.693   5.693  17.321  0.00  0.00    +0.000 A 
ATOM     10  C   UNL     1       6.412   6.876  17.105  0.00  0.00    +0.000 A 
ATOM     11  H   UNL     1       5.128   3.018  18.898  0.00  0.00    +0.000 HD
ENDROOT
BRANCH   7  12
ATOM     12  C   UNL     1       3.190   3.126  16.871  0.00  0.00    +0.000 C 
BRANCH  12  13
ATOM     13  S   UNL     1       1.944   2.948  18.221  0.00  0.00    +0.000 S 
BRANCH  13  14
ATOM     14  C   UNL     1       2.047   4.552  19.007  0.00  0.00    +0.000 A 
ATOM     15  N   UNL     1       2.136   5.600  18.150  0.00  0.00    +0.000 NA
ATOM     16  C   UNL     1       2.214   6.853  18.650  0.00  0.00    +0.000 A 
ATOM     17  C   UNL     1       2.326   7.971  17.660  0.00  0.00    +0.000 C 
ATOM     18  C   UNL     1       2.193   7.119  20.009  0.00  0.00    +0.000 A 
ATOM     19  C   UNL     1       2.099   6.044  20.889  0.00  0.00    +0.000 A 
ATOM     20  C   UNL     1       2.031   4.735  20.392  0.00  0.00    +0.000 A 
BRANCH  20  21
ATOM     21  C   UNL     1       1.949   3.663  21.342  0.00  0.00    +0.000 C 
ATOM     22  N   UNL     1       1.962   2.763  22.072  0.00  0.00    +0.000 NA
ENDBRANCH  20  21
ENDBRANCH  13  14
ENDBRANCH  12  13
ENDBRANCH   7  12
TORSDOF 4
ENDMDL
MODEL 6
REMARK VINA RESULT:      -6.7      2.763      6.258
REMARK  Name = 
REMARK  6 active torsions:
REMARK  status: ('A' for Active; 'I' for Inactive)
REMARK    1  A    between atoms: C_1  and  C_2
REMARK    2  A    between atoms: C_7  and  C_8
REMARK    3  A    between atoms: C_8  and  S_9
REMARK    4  A    between atoms: S_9  and  C_10
REMARK    5  A    between atoms: C_12  and  C_13
REMARK    6  A    between atoms: C_16  and  C_17
REMARK                            x       y       z     vdW  Elec       q    Type
REMARK                         _______ _______ _______ _____ _____    ______ ____
ROOT
ATOM      1  C   UNL     1      -1.332  11.495  20.275  0.00  0.00    +0.000 C 
ATOM      2  C   UNL     1      -0.358  10.356  20.242  0.00  0.00    +0.000 A 
ATOM      3  C   UNL     1      -0.193   9.502  21.343  0.00  0.00    +0.000 A 
ATOM      4  C   UNL     1       0.717   8.434  21.319  0.00  0.00    +0.000 A 
ATOM      5  C   UNL     1       1.449   8.266  20.142  0.00  0.00    +0.000 A 
ATOM      6  N   UNL     1       2.401   7.356  19.766  0.00  0.00    +0.000 N 
ATOM      7  C   UNL     1       2.775   7.625  18.469  0.00  0.00    +0.000 A 
ATOM      8  N   UNL     1       2.134   8.684  18.014  0.00  0.00    +0.000 NA
ATOM      9  C   UNL     1       1.308   9.085  19.032  0.00  0.00    +0.000 A 
ATOM     10  C   UNL     1       0.397  10.149  19.074  0.00  0.00    +0.000 A 
ATOM     11  H   UNL     1       2.746   6.588  20.319  0.00  0.00    +0.000 HD
ENDROOT
BRANCH   7  12
ATOM     12  C   UNL     1       3.806   6.822  17.731  0.00  0.00    +0.000 C 
BRANCH  12  13
ATOM     13  S   UNL     1       4.819   5.778  18.869  0.00  0.00    +0.000 S 
BRANCH  13  14
ATOM     14  C   UNL     1       3.923   4.232  18.816  0.00  0.00    +0.000 A 
ATOM     15  N   UNL     1       3.084   4.024  19.861  0.00  0.00    +0.000 NA
ATOM     16  C   UNL     1       2.360   2.884  19.908  0.00  0.00    +0.000 A 
ATOM     17  C   UNL     1       1.462   2.699  21.092  0.00  0.00    +0.000 C 
ATOM     18  C   UNL     1       2.426   1.915  18.920  0.00  0.00    +0.000 A 
ATOM     19  C   UNL     1       3.284   2.128  17.845  0.00  0.00    +0.000 A 
ATOM     20  C   UNL     1       4.054   3.298  17.784  0.00  0.00    +0.000 A 
BRANCH  20  21
ATOM     21  C   UNL     1       4.933   3.462  16.661  0.00  0.00    +0.000 C 
ATOM     22  N   UNL     1       5.714   3.586  15.815  0.00  0.00    +0.000 NA
ENDBRANCH  20  21
ENDBRANCH  13  14
ENDBRANCH  12  13
ENDBRANCH   7  12
TORSDOF 4
ENDMDL
MODEL 7
REMARK VINA RESULT:      -6.7      3.143      5.089
REMARK  Name = 
REMARK  6 active torsions:
REMARK  status: ('A' for Active; 'I' for Inactive)
REMARK    1  A    between atoms: C_1  and  C_2
REMARK    2  A    between atoms: C_7  and  C_8
REMARK    3  A    between atoms: C_8  and  S_9
REMARK    4  A    between atoms: S_9  and  C_10
REMARK    5  A    between atoms: C_12  and  C_13
REMARK    6  A    between atoms: C_16  and  C_17
REMARK                            x       y       z     vdW  Elec       q    Type
REMARK                         _______ _______ _______ _____ _____    ______ ____
ROOT
ATOM      1  C   UNL     1       4.184   3.061  11.125  0.00  0.00    +0.000 C 
ATOM      2  C   UNL     1       5.210   3.589  12.084  0.00  0.00    +0.000 A 
ATOM      3  C   UNL     1       6.427   4.119  11.632  0.00  0.00    +0.000 A 
ATOM      4  C   UNL     1       7.391   4.615  12.523  0.00  0.00    +0.000 A 
ATOM      5  C   UNL     1       7.075   4.552  13.881  0.00  0.00    +0.000 A 
ATOM      6  N   UNL     1       7.753   4.934  15.009  0.00  0.00    +0.000 N 
ATOM      7  C   UNL     1       6.960   4.677  16.104  0.00  0.00    +0.000 A 
ATOM      8  N   UNL     1       5.826   4.118  15.731  0.00  0.00    +0.000 NA
ATOM      9  C   UNL     1       5.879   4.042  14.364  0.00  0.00    +0.000 A 
ATOM     10  C   UNL     1       4.929   3.548  13.461  0.00  0.00    +0.000 A 
ATOM     11  H   UNL     1       8.661   5.369  15.042  0.00  0.00    +0.000 HD
ENDROOT
BRANCH   7  12
ATOM     12  C   UNL     1       7.390   4.970  17.512  0.00  0.00    +0.000 C 
BRANCH  12  13
ATOM     13  S   UNL     1       6.326   6.250  18.311  0.00  0.00    +0.000 S 
BRANCH  13  14
ATOM     14  C   UNL     1       4.900   5.278  18.779  0.00  0.00    +0.000 A 
ATOM     15  N   UNL     1       5.188   4.068  19.318  0.00  0.00    +0.000 NA
ATOM     16  C   UNL     1       4.175   3.262  19.706  0.00  0.00    +0.000 A 
ATOM     17  C   UNL     1       4.550   1.931  20.281  0.00  0.00    +0.000 C 
ATOM     18  C   UNL     1       2.844   3.626  19.590  0.00  0.00    +0.000 A 
ATOM     19  C   UNL     1       2.546   4.869  19.039  0.00  0.00    +0.000 A 
ATOM     20  C   UNL     1       3.582   5.714  18.617  0.00  0.00    +0.000 A 
BRANCH  20  21
ATOM     21  C   UNL     1       3.220   6.979  18.044  0.00  0.00    +0.000 C 
ATOM     22  N   UNL     1       2.880   8.017  17.658  0.00  0.00    +0.000 NA
ENDBRANCH  20  21
ENDBRANCH  13  14
ENDBRANCH  12  13
ENDBRANCH   7  12
TORSDOF 4
ENDMDL
MODEL 8
REMARK VINA RESULT:      -6.6      3.543      7.002
REMARK  Name = 
REMARK  6 active torsions:
REMARK  status: ('A' for Active; 'I' for Inactive)
REMARK    1  A    between atoms: C_1  and  C_2
REMARK    2  A    between atoms: C_7  and  C_8
REMARK    3  A    between atoms: C_8  and  S_9
REMARK    4  A    between atoms: S_9  and  C_10
REMARK    5  A    between atoms: C_12  and  C_13
REMARK    6  A    between atoms: C_16  and  C_17
REMARK                            x       y       z     vdW  Elec       q    Type
REMARK                         _______ _______ _______ _____ _____    ______ ____
ROOT
ATOM      1  C   UNL     1      -1.572  12.597  22.156  0.00  0.00    +0.000 C 
ATOM      2  C   UNL     1      -0.789  11.329  21.984  0.00  0.00    +0.000 A 
ATOM      3  C   UNL     1      -0.639  10.414  23.036  0.00  0.00    +0.000 A 
ATOM      4  C   UNL     1       0.092   9.227  22.882  0.00  0.00    +0.000 A 
ATOM      5  C   UNL     1       0.662   9.004  21.627  0.00  0.00    +0.000 A 
ATOM      6  N   UNL     1       1.421   7.981  21.123  0.00  0.00    +0.000 N 
ATOM      7  C   UNL     1       1.693   8.249  19.800  0.00  0.00    +0.000 A 
ATOM      8  N   UNL     1       1.174   9.410  19.449  0.00  0.00    +0.000 NA
ATOM      9  C   UNL     1       0.529   9.882  20.562  0.00  0.00    +0.000 A 
ATOM     10  C   UNL     1      -0.201  11.065  20.734  0.00  0.00    +0.000 A 
ATOM     11  H   UNL     1       1.704   7.148  21.613  0.00  0.00    +0.000 HD
ENDROOT
BRANCH   7  12
ATOM     12  C   UNL     1       2.508   7.337  18.931  0.00  0.00    +0.000 C 
BRANCH  12  13
ATOM     13  S   UNL     1       2.948   5.765  19.794  0.00  0.00    +0.000 S 
BRANCH  13  14
ATOM     14  C   UNL     1       4.352   5.218  18.830  0.00  0.00    +0.000 A 
ATOM     15  N   UNL     1       5.543   5.744  19.210  0.00  0.00    +0.000 NA
ATOM     16  C   UNL     1       6.663   5.387  18.542  0.00  0.00    +0.000 A 
ATOM     17  C   UNL     1       7.948   6.009  18.993  0.00  0.00    +0.000 C 
ATOM     18  C   UNL     1       6.650   4.489  17.488  0.00  0.00    +0.000 A 
ATOM     19  C   UNL     1       5.429   3.946  17.098  0.00  0.00    +0.000 A 
ATOM     20  C   UNL     1       4.254   4.314  17.768  0.00  0.00    +0.000 A 
BRANCH  20  21
ATOM     21  C   UNL     1       3.019   3.736  17.318  0.00  0.00    +0.000 C 
ATOM     22  N   UNL     1       2.038   3.200  17.016  0.00  0.00    +0.000 NA
ENDBRANCH  20  21
ENDBRANCH  13  14
ENDBRANCH  12  13
ENDBRANCH   7  12
TORSDOF 4
ENDMDL
MODEL 9
REMARK VINA RESULT:      -6.6      3.905      7.385
REMARK  Name = 
REMARK  6 active torsions:
REMARK  status: ('A' for Active; 'I' for Inactive)
REMARK    1  A    between atoms: C_1  and  C_2
REMARK    2  A    between atoms: C_7  and  C_8
REMARK    3  A    between atoms: C_8  and  S_9
REMARK    4  A    between atoms: S_9  and  C_10
REMARK    5  A    between atoms: C_12  and  C_13
REMARK    6  A    between atoms: C_16  and  C_17
REMARK                            x       y       z     vdW  Elec       q    Type
REMARK                         _______ _______ _______ _____ _____    ______ ____
ROOT
ATOM      1  C   UNL     1      -1.943  13.041  21.294  0.00  0.00    +0.000 C 
ATOM      2  C   UNL     1      -1.165  11.787  21.564  0.00  0.00    +0.000 A 
ATOM      3  C   UNL     1      -1.123  11.214  22.843  0.00  0.00    +0.000 A 
ATOM      4  C   UNL     1      -0.398  10.042  23.103  0.00  0.00    +0.000 A 
ATOM      5  C   UNL     1       0.280   9.476  22.021  0.00  0.00    +0.000 A 
ATOM      6  N   UNL     1       1.067   8.361  21.901  0.00  0.00    +0.000 N 
ATOM      7  C   UNL     1       1.460   8.242  20.588  0.00  0.00    +0.000 A 
ATOM      8  N   UNL     1       0.991   9.246  19.873  0.00  0.00    +0.000 NA
ATOM      9  C   UNL     1       0.255  10.010  20.741  0.00  0.00    +0.000 A 
ATOM     10  C   UNL     1      -0.471  11.183  20.501  0.00  0.00    +0.000 A 
ATOM     11  H   UNL     1       1.293   7.708  22.634  0.00  0.00    +0.000 HD
ENDROOT
BRANCH   7  12
ATOM     12  C   UNL     1       2.338   7.129  20.094  0.00  0.00    +0.000 C 
BRANCH  12  13
ATOM     13  S   UNL     1       2.550   7.172  18.261  0.00  0.00    +0.000 S 
BRANCH  13  14
ATOM     14  C   UNL     1       2.879   5.450  17.906  0.00  0.00    +0.000 A 
ATOM     15  N   UNL     1       1.959   4.583  18.397  0.00  0.00    +0.000 NA
ATOM     16  C   UNL     1       2.119   3.259  18.177  0.00  0.00    +0.000 A 
ATOM     17  C   UNL     1       1.083   2.345  18.754  0.00  0.00    +0.000 C 
ATOM     18  C   UNL     1       3.183   2.745  17.453  0.00  0.00    +0.000 A 
ATOM     19  C   UNL     1       4.126   3.634  16.946  0.00  0.00    +0.000 A 
ATOM     20  C   UNL     1       3.986   5.010  17.175  0.00  0.00    +0.000 A 
BRANCH  20  21
ATOM     21  C   UNL     1       4.994   5.883  16.643  0.00  0.00    +0.000 C 
ATOM     22  N   UNL     1       5.867   6.516  16.221  0.00  0.00    +0.000 NA
ENDBRANCH  20  21
ENDBRANCH  13  14
ENDBRANCH  12  13
ENDBRANCH   7  12
TORSDOF 4
ENDMDL
