MODEL 1
REMARK VINA RESULT:      -7.8      0.000      0.000
REMARK  Name = 
REMARK  9 active torsions:
REMARK  status: ('A' for Active; 'I' for Inactive)
REMARK    1  A    between atoms: C_1  and  O_2
REMARK    2  A    between atoms: O_2  and  C_3
REMARK    3  A    between atoms: C_3  and  C_5
REMARK    4  A    between atoms: C_5  and  N_6
REMARK    5  A    between atoms: C_5  and  C_23
REMARK    6  A    between atoms: C_15  and  O_16
REMARK    7  A    between atoms: O_16  and  C_17
REMARK    8  A    between atoms: CA_19  and  C_20
REMARK    9  A    between atoms: C_20  and  O_21
REMARK                            x       y       z     vdW  Elec       q    Type
REMARK                         _______ _______ _______ _____ _____    ______ ____
ROOT
ATOM      1  N   UNL     1       0.962  10.091  20.957  0.00  0.00    +0.000 N 
ATOM      2  C   UNL     1       1.285   9.078  20.085  0.00  0.00    +0.000 C 
ATOM      3  O   UNL     1       1.127   9.183  18.874  0.00  0.00    +0.000 OA
ATOM      4  N   UNL     1       1.733   7.955  20.739  0.00  0.00    +0.000 N 
ATOM      5  C   UNL     1       2.042   6.779  20.040  0.00  0.00    +0.000 A 
ATOM      6  C   UNL     1       2.840   6.821  18.910  0.00  0.00    +0.000 A 
ATOM      7  C   UNL     1       3.090   5.595  18.308  0.00  0.00    +0.000 A 
ATOM      8  N   UNL     1       3.843   5.273  17.214  0.00  0.00    +0.000 N 
ATOM      9  N   UNL     1       3.836   3.975  16.905  0.00  0.00    +0.000 NA
ATOM     10  C   UNL     1       3.038   3.436  17.837  0.00  0.00    +0.000 A 
ATOM     11  C   UNL     1       2.542   4.394  18.763  0.00  0.00    +0.000 A 
ATOM     12  CA  UNL     1       1.707   4.432  19.897  0.00  0.00    +0.000 A 
ATOM     13  N   UNL     1       1.529   5.641  20.551  0.00  0.00    +0.000 NA
ATOM     14  H   UNL     1       1.611  10.215  21.722  0.00  0.00    +0.000 HD
ATOM     15  H   UNL     1       1.294   7.782  21.632  0.00  0.00    +0.000 HD
ATOM     16  H   UNL     1       4.389   5.902  16.634  0.00  0.00    +0.000 HD
ENDROOT
BRANCH  10  17
ATOM     17  O   UNL     1       2.801   2.103  17.819  0.00  0.00    +0.000 OA
ATOM     18  C   UNL     1       3.714   1.353  18.627  0.00  0.00    +0.000 C 
ENDBRANCH  10  17
BRANCH   1  19
ATOM     19  C   UNL     1       0.374  11.317  20.413  0.00  0.00    +0.000 C 
BRANCH  19  20
ATOM     20  C   UNL     1      -0.858  11.701  21.220  0.00  0.00    +0.000 A 
ATOM     21  C   UNL     1      -0.941  11.300  22.568  0.00  0.00    +0.000 A 
ATOM     22  C   UNL     1      -2.060  11.616  23.341  0.00  0.00    +0.000 A 
ATOM     23  C   UNL     1      -3.100  12.341  22.776  0.00  0.00    +0.000 A 
ATOM     24  F   UNL     1      -4.178  12.635  23.513  0.00  0.00    +0.000 F 
ATOM     25  C   UNL     1      -3.036  12.768  21.457  0.00  0.00    +0.000 A 
ATOM     26  C   UNL     1      -1.912  12.462  20.682  0.00  0.00    +0.000 A 
ENDBRANCH  19  20
BRANCH  19  27
ATOM     27  C   UNL     1       1.425  12.442  20.332  0.00  0.00    +0.000 C 
ATOM     28  O   UNL     1       2.084  12.846  21.286  0.00  0.00    +0.000 OA
BRANCH  27  30
ATOM     29  C   UNL     1       2.448  12.416  18.207  0.00  0.00    +0.000 C 
ATOM     30  O   UNL     1       1.460  12.973  19.075  0.00  0.00    +0.000 OA
ENDBRANCH  27  30
ENDBRANCH  19  27
ENDBRANCH   1  19
BRANCH  12  31
ATOM     31  C   UNL     1       0.946   3.264  20.469  0.00  0.00    +0.000 C 
BRANCH  31  32
ATOM     32  O   UNL     1       0.160   2.642  19.443  0.00  0.00    +0.000 OA
ATOM     33  H   UNL     1       0.291   1.680  19.569  0.00  0.00    +0.000 HD
ENDBRANCH  31  32
ENDBRANCH  12  31
TORSDOF 7
ENDMDL
MODEL 2
REMARK VINA RESULT:      -7.8      2.337      2.823
REMARK  Name = 
REMARK  9 active torsions:
REMARK  status: ('A' for Active; 'I' for Inactive)
REMARK    1  A    between atoms: C_1  and  O_2
REMARK    2  A    between atoms: O_2  and  C_3
REMARK    3  A    between atoms: C_3  and  C_5
REMARK    4  A    between atoms: C_5  and  N_6
REMARK    5  A    between atoms: C_5  and  C_23
REMARK    6  A    between atoms: C_15  and  O_16
REMARK    7  A    between atoms: O_16  and  C_17
REMARK    8  A    between atoms: CA_19  and  C_20
REMARK    9  A    between atoms: C_20  and  O_21
REMARK                            x       y       z     vdW  Elec       q    Type
REMARK                         _______ _______ _______ _____ _____    ______ ____
ROOT
ATOM      1  N   UNL     1       0.626  10.030  19.645  0.00  0.00    +0.000 N 
ATOM      2  C   UNL     1       1.367   8.933  19.272  0.00  0.00    +0.000 C 
ATOM      3  O   UNL     1       1.756   8.768  18.120  0.00  0.00    +0.000 OA
ATOM      4  N   UNL     1       1.550   8.053  20.312  0.00  0.00    +0.000 N 
ATOM      5  C   UNL     1       2.212   6.831  20.124  0.00  0.00    +0.000 A 
ATOM      6  C   UNL     1       3.425   6.782  19.457  0.00  0.00    +0.000 A 
ATOM      7  C   UNL     1       3.994   5.521  19.342  0.00  0.00    +0.000 A 
ATOM      8  N   UNL     1       5.173   5.120  18.779  0.00  0.00    +0.000 N 
ATOM      9  N   UNL     1       5.387   3.804  18.831  0.00  0.00    +0.000 NA
ATOM     10  C   UNL     1       4.296   3.334  19.451  0.00  0.00    +0.000 A 
ATOM     11  C   UNL     1       3.380   4.359  19.814  0.00  0.00    +0.000 A 
ATOM     12  CA  UNL     1       2.128   4.480  20.450  0.00  0.00    +0.000 A 
ATOM     13  N   UNL     1       1.601   5.747  20.644  0.00  0.00    +0.000 NA
ATOM     14  H   UNL     1       0.859  10.409  20.553  0.00  0.00    +0.000 HD
ATOM     15  H   UNL     1       0.774   7.988  20.953  0.00  0.00    +0.000 HD
ATOM     16  H   UNL     1       5.877   5.704  18.340  0.00  0.00    +0.000 HD
ENDROOT
BRANCH  10  17
ATOM     17  O   UNL     1       4.178   2.004  19.672  0.00  0.00    +0.000 OA
ATOM     18  C   UNL     1       3.620   1.292  18.562  0.00  0.00    +0.000 C 
ENDBRANCH  10  17
BRANCH   1  19
ATOM     19  C   UNL     1       0.263  11.007  18.618  0.00  0.00    +0.000 C 
BRANCH  19  20
ATOM     20  C   UNL     1      -1.237  10.948  18.356  0.00  0.00    +0.000 A 
ATOM     21  C   UNL     1      -1.732   9.989  17.452  0.00  0.00    +0.000 A 
ATOM     22  C   UNL     1      -3.098   9.909  17.170  0.00  0.00    +0.000 A 
ATOM     23  C   UNL     1      -3.977  10.783  17.794  0.00  0.00    +0.000 A 
ATOM     24  F   UNL     1      -5.285  10.715  17.515  0.00  0.00    +0.000 F 
ATOM     25  C   UNL     1      -3.520  11.724  18.705  0.00  0.00    +0.000 A 
ATOM     26  C   UNL     1      -2.154  11.800  18.998  0.00  0.00    +0.000 A 
ENDBRANCH  19  20
BRANCH  19  27
ATOM     27  C   UNL     1       0.760  12.416  18.998  0.00  0.00    +0.000 C 
ATOM     28  O   UNL     1       0.816  13.366  18.222  0.00  0.00    +0.000 OA
BRANCH  27  30
ATOM     29  C   UNL     1       0.504  13.331  21.157  0.00  0.00    +0.000 C 
ATOM     30  O   UNL     1       1.199  12.434  20.291  0.00  0.00    +0.000 OA
ENDBRANCH  27  30
ENDBRANCH  19  27
ENDBRANCH   1  19
BRANCH  12  31
ATOM     31  C   UNL     1       1.270   3.337  20.927  0.00  0.00    +0.000 C 
BRANCH  31  32
ATOM     32  O   UNL     1       1.961   2.597  21.943  0.00  0.00    +0.000 OA
ATOM     33  H   UNL     1       1.735   1.659  21.773  0.00  0.00    +0.000 HD
ENDBRANCH  31  32
ENDBRANCH  12  31
TORSDOF 7
ENDMDL
MODEL 3
REMARK VINA RESULT:      -7.7      3.548      8.677
REMARK  Name = 
REMARK  9 active torsions:
REMARK  status: ('A' for Active; 'I' for Inactive)
REMARK    1  A    between atoms: C_1  and  O_2
REMARK    2  A    between atoms: O_2  and  C_3
REMARK    3  A    between atoms: C_3  and  C_5
REMARK    4  A    between atoms: C_5  and  N_6
REMARK    5  A    between atoms: C_5  and  C_23
REMARK    6  A    between atoms: C_15  and  O_16
REMARK    7  A    between atoms: O_16  and  C_17
REMARK    8  A    between atoms: CA_19  and  C_20
REMARK    9  A    between atoms: C_20  and  O_21
REMARK                            x       y       z     vdW  Elec       q    Type
REMARK                         _______ _______ _______ _____ _____    ______ ____
ROOT
ATOM      1  N   UNL     1       3.184   7.027  18.575  0.00  0.00    +0.000 N 
ATOM      2  C   UNL     1       2.255   7.818  19.210  0.00  0.00    +0.000 C 
ATOM      3  O   UNL     1       1.891   7.603  20.361  0.00  0.00    +0.000 OA
ATOM      4  N   UNL     1       1.764   8.803  18.386  0.00  0.00    +0.000 N 
ATOM      5  C   UNL     1       0.748   9.671  18.812  0.00  0.00    +0.000 A 
ATOM      6  C   UNL     1       0.833  10.304  20.041  0.00  0.00    +0.000 A 
ATOM      7  C   UNL     1      -0.224  11.150  20.352  0.00  0.00    +0.000 A 
ATOM      8  N   UNL     1      -0.446  11.937  21.447  0.00  0.00    +0.000 N 
ATOM      9  N   UNL     1      -1.598  12.608  21.416  0.00  0.00    +0.000 NA
ATOM     10  C   UNL     1      -2.147  12.233  20.252  0.00  0.00    +0.000 A 
ATOM     11  C   UNL     1      -1.332  11.326  19.522  0.00  0.00    +0.000 A 
ATOM     12  CA  UNL     1      -1.369  10.618  18.303  0.00  0.00    +0.000 A 
ATOM     13  N   UNL     1      -0.275   9.844  17.951  0.00  0.00    +0.000 NA
ATOM     14  H   UNL     1       3.840   7.529  17.992  0.00  0.00    +0.000 HD
ATOM     15  H   UNL     1       1.678   8.539  17.415  0.00  0.00    +0.000 HD
ATOM     16  H   UNL     1       0.159  12.058  22.253  0.00  0.00    +0.000 HD
ENDROOT
BRANCH  10  17
ATOM     17  O   UNL     1      -3.353  12.733  19.894  0.00  0.00    +0.000 OA
ATOM     18  C   UNL     1      -4.264  12.860  20.991  0.00  0.00    +0.000 C 
ENDBRANCH  10  17
BRANCH   1  19
ATOM     19  C   UNL     1       3.722   5.871  19.295  0.00  0.00    +0.000 C 
BRANCH  19  20
ATOM     20  C   UNL     1       2.777   4.686  19.149  0.00  0.00    +0.000 A 
ATOM     21  C   UNL     1       2.734   3.998  17.921  0.00  0.00    +0.000 A 
ATOM     22  C   UNL     1       1.870   2.915  17.737  0.00  0.00    +0.000 A 
ATOM     23  C   UNL     1       1.050   2.510  18.780  0.00  0.00    +0.000 A 
ATOM     24  F   UNL     1       0.214   1.479  18.601  0.00  0.00    +0.000 F 
ATOM     25  C   UNL     1       1.087   3.156  20.008  0.00  0.00    +0.000 A 
ATOM     26  C   UNL     1       1.958   4.234  20.200  0.00  0.00    +0.000 A 
ENDBRANCH  19  20
BRANCH  19  27
ATOM     27  C   UNL     1       5.162   5.562  18.840  0.00  0.00    +0.000 C 
ATOM     28  O   UNL     1       5.931   4.809  19.431  0.00  0.00    +0.000 OA
BRANCH  27  30
ATOM     29  C   UNL     1       5.947   5.549  16.616  0.00  0.00    +0.000 C 
ATOM     30  O   UNL     1       5.483   6.301  17.738  0.00  0.00    +0.000 OA
ENDBRANCH  27  30
ENDBRANCH  19  27
ENDBRANCH   1  19
BRANCH  12  31
ATOM     31  C   UNL     1      -2.522  10.599  17.333  0.00  0.00    +0.000 C 
BRANCH  31  32
ATOM     32  O   UNL     1      -2.866  11.938  16.954  0.00  0.00    +0.000 OA
ATOM     33  H   UNL     1      -3.845  11.969  16.988  0.00  0.00    +0.000 HD
ENDBRANCH  31  32
ENDBRANCH  12  31
TORSDOF 7
ENDMDL
MODEL 4
REMARK VINA RESULT:      -7.7      7.083      7.921
REMARK  Name = 
REMARK  9 active torsions:
REMARK  status: ('A' for Active; 'I' for Inactive)
REMARK    1  A    between atoms: C_1  and  O_2
REMARK    2  A    between atoms: O_2  and  C_3
REMARK    3  A    between atoms: C_3  and  C_5
REMARK    4  A    between atoms: C_5  and  N_6
REMARK    5  A    between atoms: C_5  and  C_23
REMARK    6  A    between atoms: C_15  and  O_16
REMARK    7  A    between atoms: O_16  and  C_17
REMARK    8  A    between atoms: CA_19  and  C_20
REMARK    9  A    between atoms: C_20  and  O_21
REMARK                            x       y       z     vdW  Elec       q    Type
REMARK                         _______ _______ _______ _____ _____    ______ ____
ROOT
ATOM      1  N   UNL     1       9.420   9.753  19.323  0.00  0.00    +0.000 N 
ATOM      2  C   UNL     1       8.534   9.023  18.566  0.00  0.00    +0.000 C 
ATOM      3  O   UNL     1       7.808   9.543  17.726  0.00  0.00    +0.000 OA
ATOM      4  N   UNL     1       8.531   7.693  18.912  0.00  0.00    +0.000 N 
ATOM      5  C   UNL     1       7.643   6.786  18.315  0.00  0.00    +0.000 A 
ATOM      6  C   UNL     1       7.491   6.751  16.939  0.00  0.00    +0.000 A 
ATOM      7  C   UNL     1       6.594   5.806  16.460  0.00  0.00    +0.000 A 
ATOM      8  N   UNL     1       6.229   5.487  15.182  0.00  0.00    +0.000 N 
ATOM      9  N   UNL     1       5.308   4.526  15.098  0.00  0.00    +0.000 NA
ATOM     10  C   UNL     1       5.063   4.214  16.378  0.00  0.00    +0.000 A 
ATOM     11  C   UNL     1       5.847   4.970  17.292  0.00  0.00    +0.000 A 
ATOM     12  CA  UNL     1       6.025   5.088  18.685  0.00  0.00    +0.000 A 
ATOM     13  N   UNL     1       6.983   5.968  19.160  0.00  0.00    +0.000 NA
ATOM     14  H   UNL     1      10.311   9.303  19.484  0.00  0.00    +0.000 HD
ATOM     15  H   UNL     1       8.684   7.510  19.893  0.00  0.00    +0.000 HD
ATOM     16  H   UNL     1       6.578   5.894  14.321  0.00  0.00    +0.000 HD
ENDROOT
BRANCH  10  17
ATOM     17  O   UNL     1       4.153   3.255  16.667  0.00  0.00    +0.000 OA
ATOM     18  C   UNL     1       2.876   3.779  17.047  0.00  0.00    +0.000 C 
ENDBRANCH  10  17
BRANCH   1  19
ATOM     19  C   UNL     1       9.462  11.205  19.138  0.00  0.00    +0.000 C 
BRANCH  19  20
ATOM     20  C   UNL     1       9.228  11.902  20.471  0.00  0.00    +0.000 A 
ATOM     21  C   UNL     1       9.471  13.286  20.567  0.00  0.00    +0.000 A 
ATOM     22  C   UNL     1       9.286  13.964  21.774  0.00  0.00    +0.000 A 
ATOM     23  C   UNL     1       8.849  13.265  22.891  0.00  0.00    +0.000 A 
ATOM     24  F   UNL     1       8.682  13.911  24.052  0.00  0.00    +0.000 F 
ATOM     25  C   UNL     1       8.581  11.905  22.820  0.00  0.00    +0.000 A 
ATOM     26  C   UNL     1       8.755  11.225  21.610  0.00  0.00    +0.000 A 
ENDBRANCH  19  20
BRANCH  19  27
ATOM     27  C   UNL     1      10.772  11.634  18.448  0.00  0.00    +0.000 C 
ATOM     28  O   UNL     1      11.896  11.383  18.873  0.00  0.00    +0.000 OA
BRANCH  27  30
ATOM     29  C   UNL     1      11.564  13.255  16.928  0.00  0.00    +0.000 C 
ATOM     30  O   UNL     1      10.503  12.396  17.346  0.00  0.00    +0.000 OA
ENDBRANCH  27  30
ENDBRANCH  19  27
ENDBRANCH   1  19
BRANCH  12  31
ATOM     31  C   UNL     1       5.236   4.352  19.738  0.00  0.00    +0.000 C 
BRANCH  31  32
ATOM     32  O   UNL     1       5.318   2.938  19.512  0.00  0.00    +0.000 OA
ATOM     33  H   UNL     1       5.413   2.840  18.541  0.00  0.00    +0.000 HD
ENDBRANCH  31  32
ENDBRANCH  12  31
TORSDOF 7
ENDMDL
MODEL 5
REMARK VINA RESULT:      -7.7      3.609      8.663
REMARK  Name = 
REMARK  9 active torsions:
REMARK  status: ('A' for Active; 'I' for Inactive)
REMARK    1  A    between atoms: C_1  and  O_2
REMARK    2  A    between atoms: O_2  and  C_3
REMARK    3  A    between atoms: C_3  and  C_5
REMARK    4  A    between atoms: C_5  and  N_6
REMARK    5  A    between atoms: C_5  and  C_23
REMARK    6  A    between atoms: C_15  and  O_16
REMARK    7  A    between atoms: O_16  and  C_17
REMARK    8  A    between atoms: CA_19  and  C_20
REMARK    9  A    between atoms: C_20  and  O_21
REMARK                            x       y       z     vdW  Elec       q    Type
REMARK                         _______ _______ _______ _____ _____    ______ ____
ROOT
ATOM      1  N   UNL     1       2.615   7.779  17.807  0.00  0.00    +0.000 N 
ATOM      2  C   UNL     1       1.797   8.572  18.577  0.00  0.00    +0.000 C 
ATOM      3  O   UNL     1       1.740   8.464  19.797  0.00  0.00    +0.000 OA
ATOM      4  N   UNL     1       1.035   9.425  17.814  0.00  0.00    +0.000 N 
ATOM      5  C   UNL     1       0.076  10.266  18.398  0.00  0.00    +0.000 A 
ATOM      6  C   UNL     1       0.394  11.036  19.503  0.00  0.00    +0.000 A 
ATOM      7  C   UNL     1      -0.630  11.839  19.988  0.00  0.00    +0.000 A 
ATOM      8  N   UNL     1      -0.654  12.727  21.026  0.00  0.00    +0.000 N 
ATOM      9  N   UNL     1      -1.837  13.313  21.221  0.00  0.00    +0.000 NA
ATOM     10  C   UNL     1      -2.612  12.776  20.269  0.00  0.00    +0.000 A 
ATOM     11  C   UNL     1      -1.916  11.848  19.445  0.00  0.00    +0.000 A 
ATOM     12  CA  UNL     1      -2.179  11.009  18.344  0.00  0.00    +0.000 A 
ATOM     13  N   UNL     1      -1.135  10.275  17.805  0.00  0.00    +0.000 NA
ATOM     14  H   UNL     1       3.064   8.256  17.037  0.00  0.00    +0.000 HD
ATOM     15  H   UNL     1       0.743   9.050  16.923  0.00  0.00    +0.000 HD
ATOM     16  H   UNL     1       0.112  12.977  21.643  0.00  0.00    +0.000 HD
ENDROOT
BRANCH  10  17
ATOM     17  O   UNL     1      -3.909  13.151  20.176  0.00  0.00    +0.000 OA
ATOM     18  C   UNL     1      -4.717  12.675  21.258  0.00  0.00    +0.000 C 
ENDBRANCH  10  17
BRANCH   1  19
ATOM     19  C   UNL     1       3.413   6.749  18.474  0.00  0.00    +0.000 C 
BRANCH  19  20
ATOM     20  C   UNL     1       2.553   5.519  18.737  0.00  0.00    +0.000 A 
ATOM     21  C   UNL     1       2.179   5.223  20.062  0.00  0.00    +0.000 A 
ATOM     22  C   UNL     1       1.405   4.097  20.352  0.00  0.00    +0.000 A 
ATOM     23  C   UNL     1       0.994   3.264  19.320  0.00  0.00    +0.000 A 
ATOM     24  F   UNL     1       0.262   2.179  19.598  0.00  0.00    +0.000 F 
ATOM     25  C   UNL     1       1.330   3.544  18.003  0.00  0.00    +0.000 A 
ATOM     26  C   UNL     1       2.097   4.677  17.707  0.00  0.00    +0.000 A 
ENDBRANCH  19  20
BRANCH  19  27
ATOM     27  C   UNL     1       4.691   6.437  17.671  0.00  0.00    +0.000 C 
ATOM     28  O   UNL     1       4.906   6.830  16.528  0.00  0.00    +0.000 OA
BRANCH  27  30
ATOM     29  C   UNL     1       6.346   4.759  17.589  0.00  0.00    +0.000 C 
ATOM     30  O   UNL     1       5.508   5.603  18.379  0.00  0.00    +0.000 OA
ENDBRANCH  27  30
ENDBRANCH  19  27
ENDBRANCH   1  19
BRANCH  12  31
ATOM     31  C   UNL     1      -3.524  10.806  17.695  0.00  0.00    +0.000 C 
BRANCH  31  32
ATOM     32  O   UNL     1      -4.035  12.060  17.224  0.00  0.00    +0.000 OA
ATOM     33  H   UNL     1      -3.414  12.339  16.519  0.00  0.00    +0.000 HD
ENDBRANCH  31  32
ENDBRANCH  12  31
TORSDOF 7
ENDMDL
MODEL 6
REMARK VINA RESULT:      -7.5      2.780      3.540
REMARK  Name = 
REMARK  9 active torsions:
REMARK  status: ('A' for Active; 'I' for Inactive)
REMARK    1  A    between atoms: C_1  and  O_2
REMARK    2  A    between atoms: O_2  and  C_3
REMARK    3  A    between atoms: C_3  and  C_5
REMARK    4  A    between atoms: C_5  and  N_6
REMARK    5  A    between atoms: C_5  and  C_23
REMARK    6  A    between atoms: C_15  and  O_16
REMARK    7  A    between atoms: O_16  and  C_17
REMARK    8  A    between atoms: CA_19  and  C_20
REMARK    9  A    between atoms: C_20  and  O_21
REMARK                            x       y       z     vdW  Elec       q    Type
REMARK                         _______ _______ _______ _____ _____    ______ ____
ROOT
ATOM      1  N   UNL     1       0.779   9.824  19.265  0.00  0.00    +0.000 N 
ATOM      2  C   UNL     1       1.723   9.217  18.471  0.00  0.00    +0.000 C 
ATOM      3  O   UNL     1       2.128   9.726  17.431  0.00  0.00    +0.000 OA
ATOM      4  N   UNL     1       2.087   7.982  18.952  0.00  0.00    +0.000 N 
ATOM      5  C   UNL     1       2.981   7.160  18.249  0.00  0.00    +0.000 A 
ATOM      6  C   UNL     1       4.173   7.670  17.763  0.00  0.00    +0.000 A 
ATOM      7  C   UNL     1       4.984   6.763  17.094  0.00  0.00    +0.000 A 
ATOM      8  N   UNL     1       6.215   6.917  16.522  0.00  0.00    +0.000 N 
ATOM      9  N   UNL     1       6.690   5.816  15.938  0.00  0.00    +0.000 NA
ATOM     10  C   UNL     1       5.721   4.912  16.137  0.00  0.00    +0.000 A 
ATOM     11  C   UNL     1       4.620   5.434  16.870  0.00  0.00    +0.000 A 
ATOM     12  CA  UNL     1       3.374   4.993  17.360  0.00  0.00    +0.000 A 
ATOM     13  N   UNL     1       2.605   5.873  18.104  0.00  0.00    +0.000 NA
ATOM     14  H   UNL     1       0.937   9.730  20.259  0.00  0.00    +0.000 HD
ATOM     15  H   UNL     1       1.344   7.466  19.401  0.00  0.00    +0.000 HD
ATOM     16  H   UNL     1       6.784   7.757  16.498  0.00  0.00    +0.000 HD
ENDROOT
BRANCH  10  17
ATOM     17  O   UNL     1       5.875   3.655  15.659  0.00  0.00    +0.000 OA
ATOM     18  C   UNL     1       6.097   3.608  14.246  0.00  0.00    +0.000 C 
ENDBRANCH  10  17
BRANCH   1  19
ATOM     19  C   UNL     1       0.218  11.103  18.826  0.00  0.00    +0.000 C 
BRANCH  19  20
ATOM     20  C   UNL     1      -1.243  10.919  18.436  0.00  0.00    +0.000 A 
ATOM     21  C   UNL     1      -2.197  11.834  18.922  0.00  0.00    +0.000 A 
ATOM     22  C   UNL     1      -3.550  11.695  18.603  0.00  0.00    +0.000 A 
ATOM     23  C   UNL     1      -3.957  10.646  17.792  0.00  0.00    +0.000 A 
ATOM     24  F   UNL     1      -5.255  10.505  17.495  0.00  0.00    +0.000 F 
ATOM     25  C   UNL     1      -3.036   9.742  17.281  0.00  0.00    +0.000 A 
ATOM     26  C   UNL     1      -1.679   9.884  17.589  0.00  0.00    +0.000 A 
ENDBRANCH  19  20
BRANCH  19  27
ATOM     27  C   UNL     1       0.430  12.193  19.894  0.00  0.00    +0.000 C 
ATOM     28  O   UNL     1       0.800  13.339  19.654  0.00  0.00    +0.000 OA
BRANCH  27  30
ATOM     29  C   UNL     1      -0.450  12.552  22.053  0.00  0.00    +0.000 C 
ATOM     30  O   UNL     1       0.226  11.682  21.144  0.00  0.00    +0.000 OA
ENDBRANCH  27  30
ENDBRANCH  19  27
ENDBRANCH   1  19
BRANCH  12  31
ATOM     31  C   UNL     1       2.768   3.634  17.126  0.00  0.00    +0.000 C 
BRANCH  31  32
ATOM     32  O   UNL     1       3.649   2.614  17.616  0.00  0.00    +0.000 OA
ATOM     33  H   UNL     1       4.190   2.351  16.842  0.00  0.00    +0.000 HD
ENDBRANCH  31  32
ENDBRANCH  12  31
TORSDOF 7
ENDMDL
MODEL 7
REMARK VINA RESULT:      -7.4      6.752     10.605
REMARK  Name = 
REMARK  9 active torsions:
REMARK  status: ('A' for Active; 'I' for Inactive)
REMARK    1  A    between atoms: C_1  and  O_2
REMARK    2  A    between atoms: O_2  and  C_3
REMARK    3  A    between atoms: C_3  and  C_5
REMARK    4  A    between atoms: C_5  and  N_6
REMARK    5  A    between atoms: C_5  and  C_23
REMARK    6  A    between atoms: C_15  and  O_16
REMARK    7  A    between atoms: O_16  and  C_17
REMARK    8  A    between atoms: CA_19  and  C_20
REMARK    9  A    between atoms: C_20  and  O_21
REMARK                            x       y       z     vdW  Elec       q    Type
REMARK                         _______ _______ _______ _____ _____    ______ ____
ROOT
ATOM      1  N   UNL     1       7.253   7.595  17.208  0.00  0.00    +0.000 N 
ATOM      2  C   UNL     1       8.082   8.470  17.870  0.00  0.00    +0.000 C 
ATOM      3  O   UNL     1       8.658   8.166  18.908  0.00  0.00    +0.000 OA
ATOM      4  N   UNL     1       8.123   9.703  17.263  0.00  0.00    +0.000 N 
ATOM      5  C   UNL     1       8.848  10.766  17.821  0.00  0.00    +0.000 A 
ATOM      6  C   UNL     1      10.154  10.582  18.243  0.00  0.00    +0.000 A 
ATOM      7  C   UNL     1      10.778  11.707  18.767  0.00  0.00    +0.000 A 
ATOM      8  N   UNL     1      12.046  11.885  19.244  0.00  0.00    +0.000 N 
ATOM      9  N   UNL     1      12.294  13.115  19.697  0.00  0.00    +0.000 NA
ATOM     10  C   UNL     1      11.133  13.758  19.509  0.00  0.00    +0.000 A 
ATOM     11  C   UNL     1      10.135  12.938  18.915  0.00  0.00    +0.000 A 
ATOM     12  CA  UNL     1       8.793  13.041  18.498  0.00  0.00    +0.000 A 
ATOM     13  N   UNL     1       8.198  11.945  17.895  0.00  0.00    +0.000 NA
ATOM     14  H   UNL     1       7.321   7.626  16.200  0.00  0.00    +0.000 HD
ATOM     15  H   UNL     1       7.255   9.995  16.839  0.00  0.00    +0.000 HD
ATOM     16  H   UNL     1      12.792  11.199  19.286  0.00  0.00    +0.000 HD
ENDROOT
BRANCH  10  17
ATOM     17  O   UNL     1      11.026  15.058  19.871  0.00  0.00    +0.000 OA
ATOM     18  C   UNL     1      10.556  15.237  21.211  0.00  0.00    +0.000 C 
ENDBRANCH  10  17
BRANCH   1  19
ATOM     19  C   UNL     1       7.028   6.272  17.794  0.00  0.00    +0.000 C 
BRANCH  19  20
ATOM     20  C   UNL     1       5.560   6.114  18.167  0.00  0.00    +0.000 A 
ATOM     21  C   UNL     1       5.214   5.233  19.209  0.00  0.00    +0.000 A 
ATOM     22  C   UNL     1       3.878   5.045  19.574  0.00  0.00    +0.000 A 
ATOM     23  C   UNL     1       2.882   5.741  18.904  0.00  0.00    +0.000 A 
ATOM     24  F   UNL     1       1.601   5.554  19.246  0.00  0.00    +0.000 F 
ATOM     25  C   UNL     1       3.196   6.633  17.888  0.00  0.00    +0.000 A 
ATOM     26  C   UNL     1       4.532   6.832  17.527  0.00  0.00    +0.000 A 
ENDBRANCH  19  20
BRANCH  19  27
ATOM     27  C   UNL     1       7.541   5.161  16.856  0.00  0.00    +0.000 C 
ATOM     28  O   UNL     1       8.128   4.150  17.232  0.00  0.00    +0.000 OA
BRANCH  27  30
ATOM     29  C   UNL     1       6.564   4.550  14.798  0.00  0.00    +0.000 C 
ATOM     30  O   UNL     1       7.319   5.499  15.551  0.00  0.00    +0.000 OA
ENDBRANCH  27  30
ENDBRANCH  19  27
ENDBRANCH   1  19
BRANCH  12  31
ATOM     31  C   UNL     1       7.909  14.249  18.674  0.00  0.00    +0.000 C 
BRANCH  31  32
ATOM     32  O   UNL     1       7.848  14.994  17.451  0.00  0.00    +0.000 OA
ATOM     33  H   UNL     1       8.428  15.770  17.597  0.00  0.00    +0.000 HD
ENDBRANCH  31  32
ENDBRANCH  12  31
TORSDOF 7
ENDMDL
MODEL 8
REMARK VINA RESULT:      -7.4      0.733      1.387
REMARK  Name = 
REMARK  9 active torsions:
REMARK  status: ('A' for Active; 'I' for Inactive)
REMARK    1  A    between atoms: C_1  and  O_2
REMARK    2  A    between atoms: O_2  and  C_3
REMARK    3  A    between atoms: C_3  and  C_5
REMARK    4  A    between atoms: C_5  and  N_6
REMARK    5  A    between atoms: C_5  and  C_23
REMARK    6  A    between atoms: C_15  and  O_16
REMARK    7  A    between atoms: O_16  and  C_17
REMARK    8  A    between atoms: CA_19  and  C_20
REMARK    9  A    between atoms: C_20  and  O_21
REMARK                            x       y       z     vdW  Elec       q    Type
REMARK                         _______ _______ _______ _____ _____    ______ ____
ROOT
ATOM      1  N   UNL     1       0.933  10.157  20.833  0.00  0.00    +0.000 N 
ATOM      2  C   UNL     1       1.239   9.099  20.011  0.00  0.00    +0.000 C 
ATOM      3  O   UNL     1       0.990   9.111  18.810  0.00  0.00    +0.000 OA
ATOM      4  N   UNL     1       1.783   8.044  20.705  0.00  0.00    +0.000 N 
ATOM      5  C   UNL     1       2.094   6.834  20.067  0.00  0.00    +0.000 A 
ATOM      6  C   UNL     1       2.807   6.828  18.880  0.00  0.00    +0.000 A 
ATOM      7  C   UNL     1       3.069   5.573  18.345  0.00  0.00    +0.000 A 
ATOM      8  N   UNL     1       3.756   5.205  17.223  0.00  0.00    +0.000 N 
ATOM      9  N   UNL     1       3.786   3.890  17.005  0.00  0.00    +0.000 NA
ATOM     10  C   UNL     1       3.082   3.386  18.028  0.00  0.00    +0.000 A 
ATOM     11  C   UNL     1       2.610   4.387  18.921  0.00  0.00    +0.000 A 
ATOM     12  CA  UNL     1       1.857   4.472  20.109  0.00  0.00    +0.000 A 
ATOM     13  N   UNL     1       1.671   5.716  20.690  0.00  0.00    +0.000 NA
ATOM     14  H   UNL     1       1.628  10.361  21.538  0.00  0.00    +0.000 HD
ATOM     15  H   UNL     1       1.417   7.917  21.637  0.00  0.00    +0.000 HD
ATOM     16  H   UNL     1       4.230   5.813  16.563  0.00  0.00    +0.000 HD
ENDROOT
BRANCH  10  17
ATOM     17  O   UNL     1       2.905   2.048  18.119  0.00  0.00    +0.000 OA
ATOM     18  C   UNL     1       3.875   1.401  18.949  0.00  0.00    +0.000 C 
ENDBRANCH  10  17
BRANCH   1  19
ATOM     19  C   UNL     1       0.253  11.317  20.252  0.00  0.00    +0.000 C 
BRANCH  19  20
ATOM     20  C   UNL     1      -0.933  11.710  21.123  0.00  0.00    +0.000 A 
ATOM     21  C   UNL     1      -1.993  12.433  20.542  0.00  0.00    +0.000 A 
ATOM     22  C   UNL     1      -3.093  12.829  21.306  0.00  0.00    +0.000 A 
ATOM     23  C   UNL     1      -3.145  12.498  22.653  0.00  0.00    +0.000 A 
ATOM     24  F   UNL     1      -4.194  12.887  23.389  0.00  0.00    +0.000 F 
ATOM     25  C   UNL     1      -2.125  11.767  23.247  0.00  0.00    +0.000 A 
ATOM     26  C   UNL     1      -1.026  11.361  22.483  0.00  0.00    +0.000 A 
ENDBRANCH  19  20
BRANCH  19  27
ATOM     27  C   UNL     1       1.244  12.473  20.014  0.00  0.00    +0.000 C 
ATOM     28  O   UNL     1       1.419  13.027  18.932  0.00  0.00    +0.000 OA
BRANCH  27  30
ATOM     29  C   UNL     1       2.710  13.947  21.129  0.00  0.00    +0.000 C 
ATOM     30  O   UNL     1       1.949  12.738  21.153  0.00  0.00    +0.000 OA
ENDBRANCH  27  30
ENDBRANCH  19  27
ENDBRANCH   1  19
BRANCH  12  31
ATOM     31  C   UNL     1       1.192   3.318  20.813  0.00  0.00    +0.000 C 
BRANCH  31  32
ATOM     32  O   UNL     1       1.943   2.958  21.981  0.00  0.00    +0.000 OA
ATOM     33  H   UNL     1       1.750   2.009  22.126  0.00  0.00    +0.000 HD
ENDBRANCH  31  32
ENDBRANCH  12  31
TORSDOF 7
ENDMDL
MODEL 9
REMARK VINA RESULT:      -7.4      2.815      3.439
REMARK  Name = 
REMARK  9 active torsions:
REMARK  status: ('A' for Active; 'I' for Inactive)
REMARK    1  A    between atoms: C_1  and  O_2
REMARK    2  A    between atoms: O_2  and  C_3
REMARK    3  A    between atoms: C_3  and  C_5
REMARK    4  A    between atoms: C_5  and  N_6
REMARK    5  A    between atoms: C_5  and  C_23
REMARK    6  A    between atoms: C_15  and  O_16
REMARK    7  A    between atoms: O_16  and  C_17
REMARK    8  A    between atoms: CA_19  and  C_20
REMARK    9  A    between atoms: C_20  and  O_21
REMARK                            x       y       z     vdW  Elec       q    Type
REMARK                         _______ _______ _______ _____ _____    ______ ____
ROOT
ATOM      1  N   UNL     1       0.704   9.856  19.085  0.00  0.00    +0.000 N 
ATOM      2  C   UNL     1       1.693   9.247  18.350  0.00  0.00    +0.000 C 
ATOM      3  O   UNL     1       2.155   9.751  17.331  0.00  0.00    +0.000 OA
ATOM      4  N   UNL     1       2.035   8.017  18.859  0.00  0.00    +0.000 N 
ATOM      5  C   UNL     1       2.969   7.194  18.212  0.00  0.00    +0.000 A 
ATOM      6  C   UNL     1       4.185   7.706  17.791  0.00  0.00    +0.000 A 
ATOM      7  C   UNL     1       5.035   6.797  17.175  0.00  0.00    +0.000 A 
ATOM      8  N   UNL     1       6.296   6.952  16.672  0.00  0.00    +0.000 N 
ATOM      9  N   UNL     1       6.808   5.850  16.123  0.00  0.00    +0.000 NA
ATOM     10  C   UNL     1       5.832   4.944  16.274  0.00  0.00    +0.000 A 
ATOM     11  C   UNL     1       4.690   5.465  16.940  0.00  0.00    +0.000 A 
ATOM     12  CA  UNL     1       3.420   5.023  17.362  0.00  0.00    +0.000 A 
ATOM     13  N   UNL     1       2.606   5.905  18.055  0.00  0.00    +0.000 NA
ATOM     14  H   UNL     1       0.807   9.769  20.087  0.00  0.00    +0.000 HD
ATOM     15  H   UNL     1       1.270   7.501  19.268  0.00  0.00    +0.000 HD
ATOM     16  H   UNL     1       6.863   7.795  16.675  0.00  0.00    +0.000 HD
ENDROOT
BRANCH  10  17
ATOM     17  O   UNL     1       6.017   3.684  15.813  0.00  0.00    +0.000 OA
ATOM     18  C   UNL     1       6.125   3.610  14.388  0.00  0.00    +0.000 C 
ENDBRANCH  10  17
BRANCH   1  19
ATOM     19  C   UNL     1       0.164  11.130  18.607  0.00  0.00    +0.000 C 
BRANCH  19  20
ATOM     20  C   UNL     1      -1.337  11.003  18.381  0.00  0.00    +0.000 A 
ATOM     21  C   UNL     1      -1.815   9.964  17.558  0.00  0.00    +0.000 A 
ATOM     22  C   UNL     1      -3.182   9.820  17.310  0.00  0.00    +0.000 A 
ATOM     23  C   UNL     1      -4.079  10.707  17.888  0.00  0.00    +0.000 A 
ATOM     24  F   UNL     1      -5.389  10.575  17.642  0.00  0.00    +0.000 F 
ATOM     25  C   UNL     1      -3.638  11.726  18.720  0.00  0.00    +0.000 A 
ATOM     26  C   UNL     1      -2.271  11.868  18.979  0.00  0.00    +0.000 A 
ENDBRANCH  19  20
BRANCH  19  27
ATOM     27  C   UNL     1       0.541  12.280  19.561  0.00  0.00    +0.000 C 
ATOM     28  O   UNL     1       0.465  12.222  20.785  0.00  0.00    +0.000 OA
BRANCH  27  30
ATOM     29  C   UNL     1       0.142  14.568  19.149  0.00  0.00    +0.000 C 
ATOM     30  O   UNL     1       0.895  13.392  18.851  0.00  0.00    +0.000 OA
ENDBRANCH  27  30
ENDBRANCH  19  27
ENDBRANCH   1  19
BRANCH  12  31
ATOM     31  C   UNL     1       2.833   3.660  17.103  0.00  0.00    +0.000 C 
BRANCH  31  32
ATOM     32  O   UNL     1       3.694   2.646  17.638  0.00  0.00    +0.000 OA
ATOM     33  H   UNL     1       4.579   3.063  17.688  0.00  0.00    +0.000 HD
ENDBRANCH  31  32
ENDBRANCH  12  31
TORSDOF 7
ENDMDL
