MODEL 1
REMARK VINA RESULT:      -7.9      0.000      0.000
REMARK  Name = 
REMARK  5 active torsions:
REMARK  status: ('A' for Active; 'I' for Inactive)
REMARK    1  A    between atoms: C_2  and  C_11
REMARK    2  A    between atoms: N_3  and  C_4
REMARK    3  A    between atoms: C_11  and  C_12
REMARK    4  A    between atoms: C_11  and  N_19
REMARK    5  A    between atoms: C_23  and  C_25
REMARK                            x       y       z     vdW  Elec       q    Type
REMARK                         _______ _______ _______ _____ _____    ______ ____
ROOT
ATOM      1  C   UNL     1       3.497   5.730  19.391  0.00  0.00    +0.000 C 
ENDROOT
BRANCH   1   2
ATOM      2  N   UNL     1       4.244   6.725  18.570  0.00  0.00    +0.000 NA
ATOM      3  C   UNL     1       5.686   6.838  18.836  0.00  0.00    +0.000 C 
ATOM      4  C   UNL     1       6.577   5.798  18.126  0.00  0.00    +0.000 C 
ATOM      5  N   UNL     1       6.255   5.583  16.715  0.00  0.00    +0.000 N 
ATOM      6  C   UNL     1       7.120   4.705  16.031  0.00  0.00    +0.000 C 
ATOM      7  O   UNL     1       8.060   4.162  16.617  0.00  0.00    +0.000 OA
ATOM      8  C   UNL     1       4.828   5.621  16.363  0.00  0.00    +0.000 C 
ATOM      9  C   UNL     1       4.046   6.704  17.112  0.00  0.00    +0.000 C 
BRANCH   6  10
ATOM     10  C   UNL     1       6.869   4.453  14.624  0.00  0.00    +0.000 A 
ATOM     11  C   UNL     1       6.074   3.507  14.004  0.00  0.00    +0.000 A 
ATOM     12  C   UNL     1       6.239   3.684  12.609  0.00  0.00    +0.000 A 
ATOM     13  C   UNL     1       7.145   4.705  12.459  0.00  0.00    +0.000 A 
ATOM     14  O   UNL     1       7.545   5.167  13.670  0.00  0.00    +0.000 OA
ENDBRANCH   6  10
ENDBRANCH   1   2
BRANCH   1  15
ATOM     15  C   UNL     1       3.055   4.404  18.762  0.00  0.00    +0.000 A 
ATOM     16  C   UNL     1       1.854   4.264  18.038  0.00  0.00    +0.000 A 
ATOM     17  C   UNL     1       1.416   3.021  17.570  0.00  0.00    +0.000 A 
ATOM     18  C   UNL     1       2.188   1.888  17.788  0.00  0.00    +0.000 A 
ATOM     19  C   UNL     1       3.392   2.011  18.466  0.00  0.00    +0.000 A 
ATOM     20  F   UNL     1       4.152   0.924  18.657  0.00  0.00    +0.000 F 
ATOM     21  C   UNL     1       3.822   3.242  18.963  0.00  0.00    +0.000 A 
ENDBRANCH   1  15
BRANCH   1  23
ATOM     22  O   UNL     1       1.481   5.788  20.776  0.00  0.00    +0.000 OA
ATOM     23  C   UNL     1       2.309   6.429  20.129  0.00  0.00    +0.000 C 
ATOM     24  N   UNL     1       2.249   7.812  19.986  0.00  0.00    +0.000 N 
ATOM     25  H   UNL     1       2.791   8.225  19.238  0.00  0.00    +0.000 HD
BRANCH  24  26
ATOM     26  C   UNL     1       1.280   8.634  20.609  0.00  0.00    +0.000 A 
ATOM     27  C   UNL     1       0.426   9.483  19.890  0.00  0.00    +0.000 A 
ATOM     28  C   UNL     1      -0.442  10.353  20.549  0.00  0.00    +0.000 A 
ATOM     29  C   UNL     1      -0.476  10.356  21.934  0.00  0.00    +0.000 A 
ATOM     30  F   UNL     1      -1.275  11.216  22.573  0.00  0.00    +0.000 F 
ATOM     31  C   UNL     1       0.320   9.479  22.666  0.00  0.00    +0.000 A 
ATOM     32  C   UNL     1       1.189   8.606  22.004  0.00  0.00    +0.000 A 
ENDBRANCH  24  26
ENDBRANCH   1  23
TORSDOF 5
ENDMDL
MODEL 2
REMARK VINA RESULT:      -7.8      1.179      1.556
REMARK  Name = 
REMARK  5 active torsions:
REMARK  status: ('A' for Active; 'I' for Inactive)
REMARK    1  A    between atoms: C_2  and  C_11
REMARK    2  A    between atoms: N_3  and  C_4
REMARK    3  A    between atoms: C_11  and  C_12
REMARK    4  A    between atoms: C_11  and  N_19
REMARK    5  A    between atoms: C_23  and  C_25
REMARK                            x       y       z     vdW  Elec       q    Type
REMARK                         _______ _______ _______ _____ _____    ______ ____
ROOT
ATOM      1  C   UNL     1       3.554   6.585  18.824  0.00  0.00    +0.000 C 
ENDROOT
BRANCH   1   2
ATOM      2  N   UNL     1       4.374   7.408  17.891  0.00  0.00    +0.000 NA
ATOM      3  C   UNL     1       5.820   7.453  18.160  0.00  0.00    +0.000 C 
ATOM      4  C   UNL     1       6.637   6.269  17.605  0.00  0.00    +0.000 C 
ATOM      5  N   UNL     1       6.307   5.893  16.229  0.00  0.00    +0.000 N 
ATOM      6  C   UNL     1       7.111   4.874  15.678  0.00  0.00    +0.000 C 
ATOM      7  O   UNL     1       8.006   4.348  16.344  0.00  0.00    +0.000 OA
ATOM      8  C   UNL     1       4.888   5.984  15.856  0.00  0.00    +0.000 C 
ATOM      9  C   UNL     1       4.182   7.209  16.445  0.00  0.00    +0.000 C 
BRANCH   6  10
ATOM     10  C   UNL     1       6.848   4.457  14.313  0.00  0.00    +0.000 A 
ATOM     11  C   UNL     1       6.063   3.433  13.817  0.00  0.00    +0.000 A 
ATOM     12  C   UNL     1       6.209   3.451  12.409  0.00  0.00    +0.000 A 
ATOM     13  C   UNL     1       7.096   4.462  12.130  0.00  0.00    +0.000 A 
ATOM     14  O   UNL     1       7.501   5.067  13.275  0.00  0.00    +0.000 OA
ENDBRANCH   6  10
ENDBRANCH   1   2
BRANCH   1  15
ATOM     15  C   UNL     1       3.111   5.178  18.408  0.00  0.00    +0.000 A 
ATOM     16  C   UNL     1       1.891   4.924  17.751  0.00  0.00    +0.000 A 
ATOM     17  C   UNL     1       1.456   3.622  17.481  0.00  0.00    +0.000 A 
ATOM     18  C   UNL     1       2.249   2.539  17.836  0.00  0.00    +0.000 A 
ATOM     19  C   UNL     1       3.471   2.770  18.451  0.00  0.00    +0.000 A 
ATOM     20  F   UNL     1       4.251   1.729  18.773  0.00  0.00    +0.000 F 
ATOM     21  C   UNL     1       3.899   4.064  18.751  0.00  0.00    +0.000 A 
ENDBRANCH   1  15
BRANCH   1  23
ATOM     22  O   UNL     1       1.714   7.085  20.357  0.00  0.00    +0.000 OA
ATOM     23  C   UNL     1       2.347   7.423  19.357  0.00  0.00    +0.000 C 
ATOM     24  N   UNL     1       2.034   8.556  18.613  0.00  0.00    +0.000 N 
ATOM     25  H   UNL     1       2.415   8.617  17.678  0.00  0.00    +0.000 HD
BRANCH  24  26
ATOM     26  C   UNL     1       1.007   9.470  18.952  0.00  0.00    +0.000 A 
ATOM     27  C   UNL     1       0.974  10.160  20.172  0.00  0.00    +0.000 A 
ATOM     28  C   UNL     1      -0.109  10.971  20.509  0.00  0.00    +0.000 A 
ATOM     29  C   UNL     1      -1.155  11.112  19.611  0.00  0.00    +0.000 A 
ATOM     30  F   UNL     1      -2.215  11.854  19.944  0.00  0.00    +0.000 F 
ATOM     31  C   UNL     1      -1.115  10.484  18.370  0.00  0.00    +0.000 A 
ATOM     32  C   UNL     1      -0.027   9.672  18.032  0.00  0.00    +0.000 A 
ENDBRANCH  24  26
ENDBRANCH   1  23
TORSDOF 5
ENDMDL
MODEL 3
REMARK VINA RESULT:      -7.6      2.596      8.326
REMARK  Name = 
REMARK  5 active torsions:
REMARK  status: ('A' for Active; 'I' for Inactive)
REMARK    1  A    between atoms: C_2  and  C_11
REMARK    2  A    between atoms: N_3  and  C_4
REMARK    3  A    between atoms: C_11  and  C_12
REMARK    4  A    between atoms: C_11  and  N_19
REMARK    5  A    between atoms: C_23  and  C_25
REMARK                            x       y       z     vdW  Elec       q    Type
REMARK                         _______ _______ _______ _____ _____    ______ ____
ROOT
ATOM      1  C   UNL     1       3.405   5.026  17.549  0.00  0.00    +0.000 C 
ENDROOT
BRANCH   1   2
ATOM      2  N   UNL     1       4.045   6.208  18.192  0.00  0.00    +0.000 NA
ATOM      3  C   UNL     1       3.906   7.490  17.484  0.00  0.00    +0.000 C 
ATOM      4  C   UNL     1       2.586   8.249  17.734  0.00  0.00    +0.000 C 
ATOM      5  N   UNL     1       2.173   8.305  19.136  0.00  0.00    +0.000 N 
ATOM      6  C   UNL     1       1.018   9.074  19.390  0.00  0.00    +0.000 C 
ATOM      7  O   UNL     1       0.417   9.630  18.467  0.00  0.00    +0.000 OA
ATOM      8  C   UNL     1       2.436   7.100  19.938  0.00  0.00    +0.000 C 
ATOM      9  C   UNL     1       3.782   6.442  19.621  0.00  0.00    +0.000 C 
BRANCH   6  10
ATOM     10  C   UNL     1       0.555   9.184  20.760  0.00  0.00    +0.000 A 
ATOM     11  C   UNL     1      -0.594   8.711  21.366  0.00  0.00    +0.000 A 
ATOM     12  C   UNL     1      -0.557   9.149  22.712  0.00  0.00    +0.000 A 
ATOM     13  C   UNL     1       0.594   9.887  22.842  0.00  0.00    +0.000 A 
ATOM     14  O   UNL     1       1.266   9.928  21.665  0.00  0.00    +0.000 OA
ENDBRANCH   6  10
ENDBRANCH   1   2
BRANCH   1  15
ATOM     15  C   UNL     1       2.684   3.987  18.414  0.00  0.00    +0.000 A 
ATOM     16  C   UNL     1       1.412   3.473  18.092  0.00  0.00    +0.000 A 
ATOM     17  C   UNL     1       0.724   2.612  18.953  0.00  0.00    +0.000 A 
ATOM     18  C   UNL     1       1.309   2.217  20.148  0.00  0.00    +0.000 A 
ATOM     19  C   UNL     1       2.577   2.682  20.467  0.00  0.00    +0.000 A 
ATOM     20  F   UNL     1       3.155   2.283  21.608  0.00  0.00    +0.000 F 
ATOM     21  C   UNL     1       3.256   3.565  19.628  0.00  0.00    +0.000 A 
ENDBRANCH   1  15
BRANCH   1  23
ATOM     22  O   UNL     1       4.911   3.245  16.811  0.00  0.00    +0.000 OA
ATOM     23  C   UNL     1       4.411   4.343  16.567  0.00  0.00    +0.000 C 
ATOM     24  N   UNL     1       4.709   5.069  15.418  0.00  0.00    +0.000 N 
ATOM     25  H   UNL     1       4.476   6.053  15.418  0.00  0.00    +0.000 HD
BRANCH  24  26
ATOM     26  C   UNL     1       5.560   4.607  14.385  0.00  0.00    +0.000 A 
ATOM     27  C   UNL     1       6.894   5.020  14.256  0.00  0.00    +0.000 A 
ATOM     28  C   UNL     1       7.666   4.622  13.165  0.00  0.00    +0.000 A 
ATOM     29  C   UNL     1       7.109   3.788  12.210  0.00  0.00    +0.000 A 
ATOM     30  F   UNL     1       7.829   3.436  11.140  0.00  0.00    +0.000 F 
ATOM     31  C   UNL     1       5.807   3.318  12.348  0.00  0.00    +0.000 A 
ATOM     32  C   UNL     1       5.033   3.716  13.444  0.00  0.00    +0.000 A 
ENDBRANCH  24  26
ENDBRANCH   1  23
TORSDOF 5
ENDMDL
MODEL 4
REMARK VINA RESULT:      -7.5      1.287      1.514
REMARK  Name = 
REMARK  5 active torsions:
REMARK  status: ('A' for Active; 'I' for Inactive)
REMARK    1  A    between atoms: C_2  and  C_11
REMARK    2  A    between atoms: N_3  and  C_4
REMARK    3  A    between atoms: C_11  and  C_12
REMARK    4  A    between atoms: C_11  and  N_19
REMARK    5  A    between atoms: C_23  and  C_25
REMARK                            x       y       z     vdW  Elec       q    Type
REMARK                         _______ _______ _______ _____ _____    ______ ____
ROOT
ATOM      1  C   UNL     1       3.583   6.523  18.823  0.00  0.00    +0.000 C 
ENDROOT
BRANCH   1   2
ATOM      2  N   UNL     1       4.410   7.346  17.897  0.00  0.00    +0.000 NA
ATOM      3  C   UNL     1       5.854   7.388  18.175  0.00  0.00    +0.000 C 
ATOM      4  C   UNL     1       6.673   6.202  17.623  0.00  0.00    +0.000 C 
ATOM      5  N   UNL     1       6.350   5.831  16.244  0.00  0.00    +0.000 N 
ATOM      6  C   UNL     1       7.155   4.811  15.696  0.00  0.00    +0.000 C 
ATOM      7  O   UNL     1       8.045   4.282  16.366  0.00  0.00    +0.000 OA
ATOM      8  C   UNL     1       4.934   5.926  15.862  0.00  0.00    +0.000 C 
ATOM      9  C   UNL     1       4.227   7.151  16.450  0.00  0.00    +0.000 C 
BRANCH   6  10
ATOM     10  C   UNL     1       6.901   4.398  14.328  0.00  0.00    +0.000 A 
ATOM     11  C   UNL     1       7.453   4.832  13.136  0.00  0.00    +0.000 A 
ATOM     12  C   UNL     1       6.801   4.120  12.101  0.00  0.00    +0.000 A 
ATOM     13  C   UNL     1       5.872   3.317  12.716  0.00  0.00    +0.000 A 
ATOM     14  O   UNL     1       5.912   3.489  14.061  0.00  0.00    +0.000 OA
ENDBRANCH   6  10
ENDBRANCH   1   2
BRANCH   1  15
ATOM     15  C   UNL     1       3.172   5.103  18.417  0.00  0.00    +0.000 A 
ATOM     16  C   UNL     1       1.986   4.823  17.710  0.00  0.00    +0.000 A 
ATOM     17  C   UNL     1       1.575   3.512  17.449  0.00  0.00    +0.000 A 
ATOM     18  C   UNL     1       2.360   2.445  17.862  0.00  0.00    +0.000 A 
ATOM     19  C   UNL     1       3.551   2.700  18.527  0.00  0.00    +0.000 A 
ATOM     20  F   UNL     1       4.325   1.674  18.906  0.00  0.00    +0.000 F 
ATOM     21  C   UNL     1       3.953   4.004  18.819  0.00  0.00    +0.000 A 
ENDBRANCH   1  15
BRANCH   1  23
ATOM     22  O   UNL     1       1.685   6.999  20.292  0.00  0.00    +0.000 OA
ATOM     23  C   UNL     1       2.351   7.348  19.317  0.00  0.00    +0.000 C 
ATOM     24  N   UNL     1       2.055   8.483  18.568  0.00  0.00    +0.000 N 
ATOM     25  H   UNL     1       2.469   8.553  17.648  0.00  0.00    +0.000 HD
BRANCH  24  26
ATOM     26  C   UNL     1       1.009   9.387  18.875  0.00  0.00    +0.000 A 
ATOM     27  C   UNL     1      -0.049   9.653  17.994  0.00  0.00    +0.000 A 
ATOM     28  C   UNL     1      -1.002  10.628  18.291  0.00  0.00    +0.000 A 
ATOM     29  C   UNL     1      -0.910  11.322  19.486  0.00  0.00    +0.000 A 
ATOM     30  F   UNL     1      -1.795  12.286  19.759  0.00  0.00    +0.000 F 
ATOM     31  C   UNL     1       0.098  11.033  20.401  0.00  0.00    +0.000 A 
ATOM     32  C   UNL     1       1.052  10.054  20.103  0.00  0.00    +0.000 A 
ENDBRANCH  24  26
ENDBRANCH   1  23
TORSDOF 5
ENDMDL
MODEL 5
REMARK VINA RESULT:      -7.2      2.645      8.386
REMARK  Name = 
REMARK  5 active torsions:
REMARK  status: ('A' for Active; 'I' for Inactive)
REMARK    1  A    between atoms: C_2  and  C_11
REMARK    2  A    between atoms: N_3  and  C_4
REMARK    3  A    between atoms: C_11  and  C_12
REMARK    4  A    between atoms: C_11  and  N_19
REMARK    5  A    between atoms: C_23  and  C_25
REMARK                            x       y       z     vdW  Elec       q    Type
REMARK                         _______ _______ _______ _____ _____    ______ ____
ROOT
ATOM      1  C   UNL     1       3.568   5.105  17.533  0.00  0.00    +0.000 C 
ENDROOT
BRANCH   1   2
ATOM      2  N   UNL     1       4.147   6.336  18.141  0.00  0.00    +0.000 NA
ATOM      3  C   UNL     1       3.992   7.579  17.369  0.00  0.00    +0.000 C 
ATOM      4  C   UNL     1       2.640   8.303  17.540  0.00  0.00    +0.000 C 
ATOM      5  N   UNL     1       2.177   8.409  18.924  0.00  0.00    +0.000 N 
ATOM      6  C   UNL     1       0.991   9.150  19.103  0.00  0.00    +0.000 C 
ATOM      7  O   UNL     1       0.404   9.643  18.136  0.00  0.00    +0.000 OA
ATOM      8  C   UNL     1       2.451   7.252  19.789  0.00  0.00    +0.000 C 
ATOM      9  C   UNL     1       3.828   6.626  19.548  0.00  0.00    +0.000 C 
BRANCH   6  10
ATOM     10  C   UNL     1       0.478   9.307  20.451  0.00  0.00    +0.000 A 
ATOM     11  C   UNL     1      -0.172   8.411  21.281  0.00  0.00    +0.000 A 
ATOM     12  C   UNL     1      -0.491   9.111  22.469  0.00  0.00    +0.000 A 
ATOM     13  C   UNL     1      -0.047  10.398  22.285  0.00  0.00    +0.000 A 
ATOM     14  O   UNL     1       0.526  10.531  21.063  0.00  0.00    +0.000 OA
ENDBRANCH   6  10
ENDBRANCH   1   2
BRANCH   1  15
ATOM     15  C   UNL     1       2.904   4.054  18.429  0.00  0.00    +0.000 A 
ATOM     16  C   UNL     1       3.519   3.537  19.586  0.00  0.00    +0.000 A 
ATOM     17  C   UNL     1       2.944   2.498  20.326  0.00  0.00    +0.000 A 
ATOM     18  C   UNL     1       1.718   1.971  19.942  0.00  0.00    +0.000 A 
ATOM     19  C   UNL     1       1.078   2.493  18.827  0.00  0.00    +0.000 A 
ATOM     20  F   UNL     1      -0.117   2.004  18.467  0.00  0.00    +0.000 F 
ATOM     21  C   UNL     1       1.659   3.508  18.066  0.00  0.00    +0.000 A 
ENDBRANCH   1  15
BRANCH   1  23
ATOM     22  O   UNL     1       5.292   3.485  16.909  0.00  0.00    +0.000 OA
ATOM     23  C   UNL     1       4.606   4.448  16.566  0.00  0.00    +0.000 C 
ATOM     24  N   UNL     1       4.706   5.037  15.309  0.00  0.00    +0.000 N 
ATOM     25  H   UNL     1       4.317   5.964  15.199  0.00  0.00    +0.000 HD
BRANCH  24  26
ATOM     26  C   UNL     1       5.552   4.566  14.277  0.00  0.00    +0.000 A 
ATOM     27  C   UNL     1       6.878   4.997  14.122  0.00  0.00    +0.000 A 
ATOM     28  C   UNL     1       7.643   4.588  13.030  0.00  0.00    +0.000 A 
ATOM     29  C   UNL     1       7.088   3.722  12.101  0.00  0.00    +0.000 A 
ATOM     30  F   UNL     1       7.801   3.358  11.030  0.00  0.00    +0.000 F 
ATOM     31  C   UNL     1       5.795   3.235  12.267  0.00  0.00    +0.000 A 
ATOM     32  C   UNL     1       5.029   3.645  13.363  0.00  0.00    +0.000 A 
ENDBRANCH  24  26
ENDBRANCH   1  23
TORSDOF 5
ENDMDL
MODEL 6
REMARK VINA RESULT:      -7.1      2.930      8.288
REMARK  Name = 
REMARK  5 active torsions:
REMARK  status: ('A' for Active; 'I' for Inactive)
REMARK    1  A    between atoms: C_2  and  C_11
REMARK    2  A    between atoms: N_3  and  C_4
REMARK    3  A    between atoms: C_11  and  C_12
REMARK    4  A    between atoms: C_11  and  N_19
REMARK    5  A    between atoms: C_23  and  C_25
REMARK                            x       y       z     vdW  Elec       q    Type
REMARK                         _______ _______ _______ _____ _____    ______ ____
ROOT
ATOM      1  C   UNL     1       2.731   5.256  18.222  0.00  0.00    +0.000 C 
ENDROOT
BRANCH   1   2
ATOM      2  N   UNL     1       3.374   6.546  18.602  0.00  0.00    +0.000 NA
ATOM      3  C   UNL     1       3.144   7.681  17.695  0.00  0.00    +0.000 C 
ATOM      4  C   UNL     1       1.820   8.444  17.905  0.00  0.00    +0.000 C 
ATOM      5  N   UNL     1       1.502   8.736  19.303  0.00  0.00    +0.000 N 
ATOM      6  C   UNL     1       0.343   9.514  19.503  0.00  0.00    +0.000 C 
ATOM      7  O   UNL     1      -0.339   9.887  18.545  0.00  0.00    +0.000 OA
ATOM      8  C   UNL     1       1.859   7.697  20.280  0.00  0.00    +0.000 C 
ATOM      9  C   UNL     1       3.202   7.022  19.984  0.00  0.00    +0.000 C 
BRANCH   6  10
ATOM     10  C   UNL     1      -0.029   9.853  20.864  0.00  0.00    +0.000 A 
ATOM     11  C   UNL     1      -0.310   9.046  21.951  0.00  0.00    +0.000 A 
ATOM     12  C   UNL     1      -0.661   9.907  23.019  0.00  0.00    +0.000 A 
ATOM     13  C   UNL     1      -0.603  11.183  22.516  0.00  0.00    +0.000 A 
ATOM     14  O   UNL     1      -0.237  11.162  21.210  0.00  0.00    +0.000 OA
ENDBRANCH   6  10
ENDBRANCH   1   2
BRANCH   1  15
ATOM     15  C   UNL     1       2.396   4.225  19.306  0.00  0.00    +0.000 A 
ATOM     16  C   UNL     1       1.093   4.039  19.807  0.00  0.00    +0.000 A 
ATOM     17  C   UNL     1       0.830   3.172  20.873  0.00  0.00    +0.000 A 
ATOM     18  C   UNL     1       1.865   2.445  21.446  0.00  0.00    +0.000 A 
ATOM     19  C   UNL     1       3.150   2.586  20.941  0.00  0.00    +0.000 A 
ATOM     20  F   UNL     1       4.147   1.867  21.474  0.00  0.00    +0.000 F 
ATOM     21  C   UNL     1       3.426   3.471  19.898  0.00  0.00    +0.000 A 
ENDBRANCH   1  15
BRANCH   1  23
ATOM     22  O   UNL     1       3.190   3.502  16.579  0.00  0.00    +0.000 OA
ATOM     23  C   UNL     1       3.512   4.599  17.038  0.00  0.00    +0.000 C 
ATOM     24  N   UNL     1       4.596   5.328  16.560  0.00  0.00    +0.000 N 
ATOM     25  H   UNL     1       4.952   6.070  17.150  0.00  0.00    +0.000 HD
BRANCH  24  26
ATOM     26  C   UNL     1       5.402   4.929  15.468  0.00  0.00    +0.000 A 
ATOM     27  C   UNL     1       6.766   5.245  15.372  0.00  0.00    +0.000 A 
ATOM     28  C   UNL     1       7.499   4.923  14.231  0.00  0.00    +0.000 A 
ATOM     29  C   UNL     1       6.872   4.259  13.188  0.00  0.00    +0.000 A 
ATOM     30  F   UNL     1       7.557   3.984  12.074  0.00  0.00    +0.000 F 
ATOM     31  C   UNL     1       5.535   3.884  13.286  0.00  0.00    +0.000 A 
ATOM     32  C   UNL     1       4.801   4.206  14.433  0.00  0.00    +0.000 A 
ENDBRANCH  24  26
ENDBRANCH   1  23
TORSDOF 5
ENDMDL
MODEL 7
REMARK VINA RESULT:      -7.1      5.209      9.773
REMARK  Name = 
REMARK  5 active torsions:
REMARK  status: ('A' for Active; 'I' for Inactive)
REMARK    1  A    between atoms: C_2  and  C_11
REMARK    2  A    between atoms: N_3  and  C_4
REMARK    3  A    between atoms: C_11  and  C_12
REMARK    4  A    between atoms: C_11  and  N_19
REMARK    5  A    between atoms: C_23  and  C_25
REMARK                            x       y       z     vdW  Elec       q    Type
REMARK                         _______ _______ _______ _____ _____    ______ ____
ROOT
ATOM      1  C   UNL     1       0.167  11.105  18.946  0.00  0.00    +0.000 C 
ENDROOT
BRANCH   1   2
ATOM      2  N   UNL     1       0.387  12.136  20.000  0.00  0.00    +0.000 NA
ATOM      3  C   UNL     1       1.785  12.388  20.383  0.00  0.00    +0.000 C 
ATOM      4  C   UNL     1       2.560  13.361  19.471  0.00  0.00    +0.000 C 
ATOM      5  N   UNL     1       1.823  14.572  19.109  0.00  0.00    +0.000 N 
ATOM      6  C   UNL     1       2.552  15.513  18.353  0.00  0.00    +0.000 C 
ATOM      7  O   UNL     1       3.720  15.289  18.025  0.00  0.00    +0.000 OA
ATOM      8  C   UNL     1       0.381  14.406  18.870  0.00  0.00    +0.000 C 
ATOM      9  C   UNL     1      -0.288  13.434  19.846  0.00  0.00    +0.000 C 
BRANCH   6  10
ATOM     10  C   UNL     1       1.889  16.744  17.967  0.00  0.00    +0.000 A 
ATOM     11  C   UNL     1       1.992  17.503  16.815  0.00  0.00    +0.000 A 
ATOM     12  C   UNL     1       1.155  18.630  16.991  0.00  0.00    +0.000 A 
ATOM     13  C   UNL     1       0.614  18.512  18.248  0.00  0.00    +0.000 A 
ATOM     14  O   UNL     1       1.063  17.384  18.853  0.00  0.00    +0.000 OA
ENDBRANCH   6  10
ENDBRANCH   1   2
BRANCH   1  15
ATOM     15  C   UNL     1      -1.240  10.882  18.382  0.00  0.00    +0.000 A 
ATOM     16  C   UNL     1      -1.501  10.027  17.294  0.00  0.00    +0.000 A 
ATOM     17  C   UNL     1      -2.775   9.925  16.725  0.00  0.00    +0.000 A 
ATOM     18  C   UNL     1      -3.830  10.656  17.253  0.00  0.00    +0.000 A 
ATOM     19  C   UNL     1      -3.602  11.476  18.349  0.00  0.00    +0.000 A 
ATOM     20  F   UNL     1      -4.622  12.164  18.878  0.00  0.00    +0.000 F 
ATOM     21  C   UNL     1      -2.328  11.607  18.903  0.00  0.00    +0.000 A 
ENDBRANCH   1  15
BRANCH   1  23
ATOM     22  O   UNL     1       0.588   9.236  20.468  0.00  0.00    +0.000 OA
ATOM     23  C   UNL     1       0.824   9.753  19.376  0.00  0.00    +0.000 C 
ATOM     24  N   UNL     1       1.700   9.195  18.450  0.00  0.00    +0.000 N 
ATOM     25  H   UNL     1       2.042   9.797  17.713  0.00  0.00    +0.000 HD
BRANCH  24  26
ATOM     26  C   UNL     1       2.361   7.956  18.629  0.00  0.00    +0.000 A 
ATOM     27  C   UNL     1       2.114   7.112  19.721  0.00  0.00    +0.000 A 
ATOM     28  C   UNL     1       2.861   5.950  19.914  0.00  0.00    +0.000 A 
ATOM     29  C   UNL     1       3.845   5.618  18.997  0.00  0.00    +0.000 A 
ATOM     30  F   UNL     1       4.594   4.529  19.198  0.00  0.00    +0.000 F 
ATOM     31  C   UNL     1       4.067   6.410  17.874  0.00  0.00    +0.000 A 
ATOM     32  C   UNL     1       3.315   7.574  17.680  0.00  0.00    +0.000 A 
ENDBRANCH  24  26
ENDBRANCH   1  23
TORSDOF 5
ENDMDL
MODEL 8
REMARK VINA RESULT:      -7.1      0.853      1.161
REMARK  Name = 
REMARK  5 active torsions:
REMARK  status: ('A' for Active; 'I' for Inactive)
REMARK    1  A    between atoms: C_2  and  C_11
REMARK    2  A    between atoms: N_3  and  C_4
REMARK    3  A    between atoms: C_11  and  C_12
REMARK    4  A    between atoms: C_11  and  N_19
REMARK    5  A    between atoms: C_23  and  C_25
REMARK                            x       y       z     vdW  Elec       q    Type
REMARK                         _______ _______ _______ _____ _____    ______ ____
ROOT
ATOM      1  C   UNL     1       3.552   5.819  19.391  0.00  0.00    +0.000 C 
ENDROOT
BRANCH   1   2
ATOM      2  N   UNL     1       4.133   6.785  18.415  0.00  0.00    +0.000 NA
ATOM      3  C   UNL     1       5.575   7.050  18.541  0.00  0.00    +0.000 C 
ATOM      4  C   UNL     1       6.502   6.023  17.858  0.00  0.00    +0.000 C 
ATOM      5  N   UNL     1       6.091   5.637  16.508  0.00  0.00    +0.000 N 
ATOM      6  C   UNL     1       6.980   4.771  15.837  0.00  0.00    +0.000 C 
ATOM      7  O   UNL     1       8.010   4.375  16.388  0.00  0.00    +0.000 OA
ATOM      8  C   UNL     1       4.644   5.513  16.282  0.00  0.00    +0.000 C 
ATOM      9  C   UNL     1       3.824   6.596  16.989  0.00  0.00    +0.000 C 
BRANCH   6  10
ATOM     10  C   UNL     1       6.643   4.354  14.489  0.00  0.00    +0.000 A 
ATOM     11  C   UNL     1       5.747   3.403  14.035  0.00  0.00    +0.000 A 
ATOM     12  C   UNL     1       5.860   3.376  12.624  0.00  0.00    +0.000 A 
ATOM     13  C   UNL     1       6.835   4.287  12.301  0.00  0.00    +0.000 A 
ATOM     14  O   UNL     1       7.327   4.873  13.421  0.00  0.00    +0.000 OA
ENDBRANCH   6  10
ENDBRANCH   1   2
BRANCH   1  15
ATOM     15  C   UNL     1       3.164   4.411  18.927  0.00  0.00    +0.000 A 
ATOM     16  C   UNL     1       4.110   3.458  18.499  0.00  0.00    +0.000 A 
ATOM     17  C   UNL     1       3.725   2.220  17.974  0.00  0.00    +0.000 A 
ATOM     18  C   UNL     1       2.379   1.891  17.893  0.00  0.00    +0.000 A 
ATOM     19  C   UNL     1       1.433   2.801  18.343  0.00  0.00    +0.000 A 
ATOM     20  F   UNL     1       0.134   2.477  18.290  0.00  0.00    +0.000 F 
ATOM     21  C   UNL     1       1.807   4.050  18.840  0.00  0.00    +0.000 A 
ENDBRANCH   1  15
BRANCH   1  23
ATOM     22  O   UNL     1       1.651   5.850  20.930  0.00  0.00    +0.000 OA
ATOM     23  C   UNL     1       2.386   6.495  20.182  0.00  0.00    +0.000 C 
ATOM     24  N   UNL     1       2.230   7.860  19.965  0.00  0.00    +0.000 N 
ATOM     25  H   UNL     1       2.686   8.256  19.153  0.00  0.00    +0.000 HD
BRANCH  24  26
ATOM     26  C   UNL     1       1.264   8.663  20.618  0.00  0.00    +0.000 A 
ATOM     27  C   UNL     1       0.380   9.503  19.926  0.00  0.00    +0.000 A 
ATOM     28  C   UNL     1      -0.485  10.356  20.611  0.00  0.00    +0.000 A 
ATOM     29  C   UNL     1      -0.483  10.350  21.997  0.00  0.00    +0.000 A 
ATOM     30  F   UNL     1      -1.279  11.194  22.661  0.00  0.00    +0.000 F 
ATOM     31  C   UNL     1       0.344   9.482  22.704  0.00  0.00    +0.000 A 
ATOM     32  C   UNL     1       1.210   8.627  22.015  0.00  0.00    +0.000 A 
ENDBRANCH  24  26
ENDBRANCH   1  23
TORSDOF 5
ENDMDL
MODEL 9
REMARK VINA RESULT:      -7.1      1.043      1.057
REMARK  Name = 
REMARK  5 active torsions:
REMARK  status: ('A' for Active; 'I' for Inactive)
REMARK    1  A    between atoms: C_2  and  C_11
REMARK    2  A    between atoms: N_3  and  C_4
REMARK    3  A    between atoms: C_11  and  C_12
REMARK    4  A    between atoms: C_11  and  N_19
REMARK    5  A    between atoms: C_23  and  C_25
REMARK                            x       y       z     vdW  Elec       q    Type
REMARK                         _______ _______ _______ _____ _____    ______ ____
ROOT
ATOM      1  C   UNL     1       3.606   6.811  18.612  0.00  0.00    +0.000 C 
ENDROOT
BRANCH   1   2
ATOM      2  N   UNL     1       4.539   7.520  17.690  0.00  0.00    +0.000 NA
ATOM      3  C   UNL     1       5.973   7.398  17.994  0.00  0.00    +0.000 C 
ATOM      4  C   UNL     1       6.658   6.118  17.472  0.00  0.00    +0.000 C 
ATOM      5  N   UNL     1       6.318   5.765  16.093  0.00  0.00    +0.000 N 
ATOM      6  C   UNL     1       7.009   4.651  15.574  0.00  0.00    +0.000 C 
ATOM      7  O   UNL     1       7.820   4.033  16.267  0.00  0.00    +0.000 OA
ATOM      8  C   UNL     1       4.929   6.017  15.684  0.00  0.00    +0.000 C 
ATOM      9  C   UNL     1       4.359   7.325  16.242  0.00  0.00    +0.000 C 
BRANCH   6  10
ATOM     10  C   UNL     1       6.731   4.250  14.207  0.00  0.00    +0.000 A 
ATOM     11  C   UNL     1       5.834   3.326  13.702  0.00  0.00    +0.000 A 
ATOM     12  C   UNL     1       6.019   3.303  12.298  0.00  0.00    +0.000 A 
ATOM     13  C   UNL     1       7.035   4.188  12.032  0.00  0.00    +0.000 A 
ATOM     14  O   UNL     1       7.483   4.754  13.180  0.00  0.00    +0.000 OA
ENDBRANCH   6  10
ENDBRANCH   1   2
BRANCH   1  15
ATOM     15  C   UNL     1       3.132   5.394  18.272  0.00  0.00    +0.000 A 
ATOM     16  C   UNL     1       1.874   5.125  17.698  0.00  0.00    +0.000 A 
ATOM     17  C   UNL     1       1.417   3.818  17.500  0.00  0.00    +0.000 A 
ATOM     18  C   UNL     1       2.225   2.743  17.845  0.00  0.00    +0.000 A 
ATOM     19  C   UNL     1       3.483   2.986  18.378  0.00  0.00    +0.000 A 
ATOM     20  F   UNL     1       4.276   1.952  18.688  0.00  0.00    +0.000 F 
ATOM     21  C   UNL     1       3.934   4.287  18.606  0.00  0.00    +0.000 A 
ENDBRANCH   1  15
BRANCH   1  23
ATOM     22  O   UNL     1       1.667   8.212  18.101  0.00  0.00    +0.000 OA
ATOM     23  C   UNL     1       2.401   7.740  18.969  0.00  0.00    +0.000 C 
ATOM     24  N   UNL     1       2.233   8.003  20.325  0.00  0.00    +0.000 N 
ATOM     25  H   UNL     1       3.014   7.806  20.936  0.00  0.00    +0.000 HD
BRANCH  24  26
ATOM     26  C   UNL     1       1.178   8.782  20.858  0.00  0.00    +0.000 A 
ATOM     27  C   UNL     1       0.747   9.982  20.273  0.00  0.00    +0.000 A 
ATOM     28  C   UNL     1      -0.225  10.772  20.888  0.00  0.00    +0.000 A 
ATOM     29  C   UNL     1      -0.787  10.347  22.081  0.00  0.00    +0.000 A 
ATOM     30  F   UNL     1      -1.688  11.118  22.698  0.00  0.00    +0.000 F 
ATOM     31  C   UNL     1      -0.417   9.131  22.648  0.00  0.00    +0.000 A 
ATOM     32  C   UNL     1       0.557   8.339  22.030  0.00  0.00    +0.000 A 
ENDBRANCH  24  26
ENDBRANCH   1  23
TORSDOF 5
ENDMDL
