MODEL 1
REMARK VINA RESULT:      -7.9      0.000      0.000
REMARK  Name = 
REMARK  4 active torsions:
REMARK  status: ('A' for Active; 'I' for Inactive)
REMARK    1  A    between atoms: C_1  and  C_2
REMARK    2  A    between atoms: C_2  and  N_3
REMARK    3  A    between atoms: C_2  and  C_22
REMARK    4  A    between atoms: C_7  and  C_8
REMARK                            x       y       z     vdW  Elec       q    Type
REMARK                         _______ _______ _______ _____ _____    ______ ____
ROOT
ATOM      1  N   UNL     1       0.351  10.424  20.210  0.00  0.00    +0.000 N 
ATOM      2  C   UNL     1       1.086   9.259  20.093  0.00  0.00    +0.000 A 
ATOM      3  N   UNL     1       1.752   8.982  18.964  0.00  0.00    +0.000 NA
ATOM      4  C   UNL     1       2.260   7.740  18.843  0.00  0.00    +0.000 A 
ATOM      5  C   UNL     1       2.077   6.759  19.788  0.00  0.00    +0.000 A 
ATOM      6  C   UNL     1       1.497   7.170  20.959  0.00  0.00    +0.000 A 
ATOM      7  N   UNL     1       1.014   8.418  21.136  0.00  0.00    +0.000 NA
ATOM      8  H   UNL     1       0.958  11.074  20.699  0.00  0.00    +0.000 HD
ENDROOT
BRANCH   5   9
ATOM      9  C   UNL     1       2.301   5.333  19.516  0.00  0.00    +0.000 C 
ATOM     10  O   UNL     1       1.410   4.536  19.783  0.00  0.00    +0.000 OA
ATOM     11  N   UNL     1       3.493   4.990  18.890  0.00  0.00    +0.000 N 
ATOM     12  C   UNL     1       3.784   3.634  18.479  0.00  0.00    +0.000 C 
ATOM     13  C   UNL     1       4.450   3.808  17.121  0.00  0.00    +0.000 C 
ATOM     14  C   UNL     1       5.220   5.147  17.224  0.00  0.00    +0.000 C 
ATOM     15  C   UNL     1       5.181   5.932  15.900  0.00  0.00    +0.000 C 
ATOM     16  C   UNL     1       6.080   5.300  14.849  0.00  0.00    +0.000 C 
ATOM     17  O   UNL     1       7.420   5.232  15.332  0.00  0.00    +0.000 OA
ATOM     18  C   UNL     1       7.541   4.410  16.491  0.00  0.00    +0.000 C 
ATOM     19  C   UNL     1       6.691   4.947  17.638  0.00  0.00    +0.000 C 
ATOM     20  C   UNL     1       4.450   5.923  18.303  0.00  0.00    +0.000 C 
ENDBRANCH   5   9
BRANCH   1  22
ATOM     21  C   UNL     1      -1.693  10.984  18.909  0.00  0.00    +0.000 C 
ATOM     22  C   UNL     1      -0.156  11.017  18.968  0.00  0.00    +0.000 C 
BRANCH  22  23
ATOM     23  C   UNL     1       0.325  12.462  18.905  0.00  0.00    +0.000 A 
ATOM     24  C   UNL     1       1.668  12.758  18.672  0.00  0.00    +0.000 A 
ATOM     25  N   UNL     1       2.141  14.023  18.567  0.00  0.00    +0.000 NA
ATOM     26  C   UNL     1       1.212  14.994  18.693  0.00  0.00    +0.000 A 
ATOM     27  C   UNL     1      -0.123  14.716  18.927  0.00  0.00    +0.000 A 
ATOM     28  N   UNL     1      -0.597  13.454  19.040  0.00  0.00    +0.000 NA
ENDBRANCH  22  23
ENDBRANCH   1  22
TORSDOF 3
ENDMDL
MODEL 2
REMARK VINA RESULT:      -7.8      0.709      1.197
REMARK  Name = 
REMARK  4 active torsions:
REMARK  status: ('A' for Active; 'I' for Inactive)
REMARK    1  A    between atoms: C_1  and  C_2
REMARK    2  A    between atoms: C_2  and  N_3
REMARK    3  A    between atoms: C_2  and  C_22
REMARK    4  A    between atoms: C_7  and  C_8
REMARK                            x       y       z     vdW  Elec       q    Type
REMARK                         _______ _______ _______ _____ _____    ______ ____
ROOT
ATOM      1  N   UNL     1       0.324  10.612  20.237  0.00  0.00    +0.000 N 
ATOM      2  C   UNL     1       1.057   9.448  20.099  0.00  0.00    +0.000 A 
ATOM      3  N   UNL     1       1.629   9.136  18.928  0.00  0.00    +0.000 NA
ATOM      4  C   UNL     1       2.137   7.894  18.809  0.00  0.00    +0.000 A 
ATOM      5  C   UNL     1       2.043   6.945  19.798  0.00  0.00    +0.000 A 
ATOM      6  C   UNL     1       1.559   7.393  20.999  0.00  0.00    +0.000 A 
ATOM      7  N   UNL     1       1.080   8.643  21.172  0.00  0.00    +0.000 NA
ATOM      8  H   UNL     1       0.963  11.282  20.651  0.00  0.00    +0.000 HD
ENDROOT
BRANCH   5   9
ATOM      9  C   UNL     1       2.257   5.513  19.557  0.00  0.00    +0.000 C 
ATOM     10  O   UNL     1       1.357   4.729  19.835  0.00  0.00    +0.000 OA
ATOM     11  N   UNL     1       3.450   5.147  18.947  0.00  0.00    +0.000 N 
ATOM     12  C   UNL     1       3.732   3.779  18.566  0.00  0.00    +0.000 C 
ATOM     13  C   UNL     1       4.408   3.920  17.209  0.00  0.00    +0.000 C 
ATOM     14  C   UNL     1       5.189   5.255  17.290  0.00  0.00    +0.000 C 
ATOM     15  C   UNL     1       5.165   6.012  15.949  0.00  0.00    +0.000 C 
ATOM     16  C   UNL     1       6.065   5.351  14.918  0.00  0.00    +0.000 C 
ATOM     17  O   UNL     1       7.401   5.282  15.411  0.00  0.00    +0.000 OA
ATOM     18  C   UNL     1       7.509   4.483  16.588  0.00  0.00    +0.000 C 
ATOM     19  C   UNL     1       6.655   5.051  17.718  0.00  0.00    +0.000 C 
ATOM     20  C   UNL     1       4.418   6.059  18.348  0.00  0.00    +0.000 C 
ENDBRANCH   5   9
BRANCH   1  22
ATOM     21  C   UNL     1      -1.627  10.468  18.702  0.00  0.00    +0.000 C 
ATOM     22  C   UNL     1      -0.290  11.158  19.022  0.00  0.00    +0.000 C 
BRANCH  22  23
ATOM     23  C   UNL     1      -0.526  12.648  19.241  0.00  0.00    +0.000 A 
ATOM     24  C   UNL     1      -1.433  13.092  20.203  0.00  0.00    +0.000 A 
ATOM     25  N   UNL     1      -1.651  14.403  20.467  0.00  0.00    +0.000 NA
ATOM     26  C   UNL     1      -0.915  15.265  19.733  0.00  0.00    +0.000 A 
ATOM     27  C   UNL     1      -0.014  14.839  18.773  0.00  0.00    +0.000 A 
ATOM     28  N   UNL     1       0.200  13.530  18.503  0.00  0.00    +0.000 NA
ENDBRANCH  22  23
ENDBRANCH   1  22
TORSDOF 3
ENDMDL
MODEL 3
REMARK VINA RESULT:      -7.7      2.964      8.697
REMARK  Name = 
REMARK  4 active torsions:
REMARK  status: ('A' for Active; 'I' for Inactive)
REMARK    1  A    between atoms: C_1  and  C_2
REMARK    2  A    between atoms: C_2  and  N_3
REMARK    3  A    between atoms: C_2  and  C_22
REMARK    4  A    between atoms: C_7  and  C_8
REMARK                            x       y       z     vdW  Elec       q    Type
REMARK                         _______ _______ _______ _____ _____    ______ ____
ROOT
ATOM      1  N   UNL     1       4.865   4.609  16.316  0.00  0.00    +0.000 N 
ATOM      2  C   UNL     1       3.983   5.385  17.046  0.00  0.00    +0.000 A 
ATOM      3  N   UNL     1       4.141   6.713  17.119  0.00  0.00    +0.000 NA
ATOM      4  C   UNL     1       3.382   7.369  18.017  0.00  0.00    +0.000 A 
ATOM      5  C   UNL     1       2.516   6.736  18.876  0.00  0.00    +0.000 A 
ATOM      6  C   UNL     1       2.328   5.399  18.641  0.00  0.00    +0.000 A 
ATOM      7  N   UNL     1       3.038   4.712  17.721  0.00  0.00    +0.000 NA
ATOM      8  H   UNL     1       4.412   4.465  15.419  0.00  0.00    +0.000 HD
ENDROOT
BRANCH   5   9
ATOM      9  C   UNL     1       1.968   7.376  20.078  0.00  0.00    +0.000 C 
ATOM     10  O   UNL     1       2.219   6.884  21.172  0.00  0.00    +0.000 OA
ATOM     11  N   UNL     1       1.260   8.558  19.897  0.00  0.00    +0.000 N 
ATOM     12  C   UNL     1       0.760   9.333  21.011  0.00  0.00    +0.000 C 
ATOM     13  C   UNL     1       1.031  10.772  20.594  0.00  0.00    +0.000 C 
ATOM     14  C   UNL     1       0.875  10.776  19.054  0.00  0.00    +0.000 C 
ATOM     15  C   UNL     1       1.892  11.715  18.379  0.00  0.00    +0.000 C 
ATOM     16  C   UNL     1       1.529  13.176  18.590  0.00  0.00    +0.000 C 
ATOM     17  O   UNL     1       0.222  13.431  18.080  0.00  0.00    +0.000 OA
ATOM     18  C   UNL     1      -0.785  12.680  18.757  0.00  0.00    +0.000 C 
ATOM     19  C   UNL     1      -0.544  11.181  18.609  0.00  0.00    +0.000 C 
ATOM     20  C   UNL     1       1.178   9.323  18.658  0.00  0.00    +0.000 C 
ENDBRANCH   5   9
BRANCH   1  22
ATOM     21  C   UNL     1       7.211   4.504  17.132  0.00  0.00    +0.000 C 
ATOM     22  C   UNL     1       6.222   5.136  16.138  0.00  0.00    +0.000 C 
BRANCH  22  23
ATOM     23  C   UNL     1       6.665   4.825  14.713  0.00  0.00    +0.000 A 
ATOM     24  C   UNL     1       5.968   3.901  13.934  0.00  0.00    +0.000 A 
ATOM     25  N   UNL     1       6.294   3.618  12.651  0.00  0.00    +0.000 NA
ATOM     26  C   UNL     1       7.348   4.305  12.162  0.00  0.00    +0.000 A 
ATOM     27  C   UNL     1       8.052   5.222  12.924  0.00  0.00    +0.000 A 
ATOM     28  N   UNL     1       7.732   5.502  14.208  0.00  0.00    +0.000 NA
ENDBRANCH  22  23
ENDBRANCH   1  22
TORSDOF 3
ENDMDL
MODEL 4
REMARK VINA RESULT:      -7.4      0.992      1.068
REMARK  Name = 
REMARK  4 active torsions:
REMARK  status: ('A' for Active; 'I' for Inactive)
REMARK    1  A    between atoms: C_1  and  C_2
REMARK    2  A    between atoms: C_2  and  N_3
REMARK    3  A    between atoms: C_2  and  C_22
REMARK    4  A    between atoms: C_7  and  C_8
REMARK                            x       y       z     vdW  Elec       q    Type
REMARK                         _______ _______ _______ _____ _____    ______ ____
ROOT
ATOM      1  N   UNL     1       0.455  10.118  20.660  0.00  0.00    +0.000 N 
ATOM      2  C   UNL     1       1.133   8.931  20.450  0.00  0.00    +0.000 A 
ATOM      3  N   UNL     1       1.894   8.763  19.360  0.00  0.00    +0.000 NA
ATOM      4  C   UNL     1       2.343   7.518  19.115  0.00  0.00    +0.000 A 
ATOM      5  C   UNL     1       2.012   6.433  19.892  0.00  0.00    +0.000 A 
ATOM      6  C   UNL     1       1.340   6.722  21.050  0.00  0.00    +0.000 A 
ATOM      7  N   UNL     1       0.910   7.965  21.354  0.00  0.00    +0.000 NA
ATOM      8  H   UNL     1       1.044  10.654  21.290  0.00  0.00    +0.000 HD
ENDROOT
BRANCH   5   9
ATOM      9  C   UNL     1       2.184   5.045  19.445  0.00  0.00    +0.000 C 
ATOM     10  O   UNL     1       1.258   4.258  19.601  0.00  0.00    +0.000 OA
ATOM     11  N   UNL     1       3.372   4.734  18.794  0.00  0.00    +0.000 N 
ATOM     12  C   UNL     1       3.615   3.429  18.219  0.00  0.00    +0.000 C 
ATOM     13  C   UNL     1       4.309   3.744  16.901  0.00  0.00    +0.000 C 
ATOM     14  C   UNL     1       5.129   5.028  17.180  0.00  0.00    +0.000 C 
ATOM     15  C   UNL     1       5.141   5.973  15.964  0.00  0.00    +0.000 C 
ATOM     16  C   UNL     1       6.031   5.441  14.852  0.00  0.00    +0.000 C 
ATOM     17  O   UNL     1       7.360   5.259  15.337  0.00  0.00    +0.000 OA
ATOM     18  C   UNL     1       7.431   4.293  16.385  0.00  0.00    +0.000 C 
ATOM     19  C   UNL     1       6.584   4.717  17.581  0.00  0.00    +0.000 C 
ATOM     20  C   UNL     1       4.373   5.693  18.340  0.00  0.00    +0.000 C 
ENDBRANCH   5   9
BRANCH   1  22
ATOM     21  C   UNL     1      -1.355  11.374  19.506  0.00  0.00    +0.000 C 
ATOM     22  C   UNL     1       0.110  10.905  19.471  0.00  0.00    +0.000 C 
BRANCH  22  23
ATOM     23  C   UNL     1       1.032  12.118  19.425  0.00  0.00    +0.000 A 
ATOM     24  C   UNL     1       1.286  12.865  20.575  0.00  0.00    +0.000 A 
ATOM     25  N   UNL     1       2.127  13.927  20.598  0.00  0.00    +0.000 NA
ATOM     26  C   UNL     1       2.720  14.213  19.420  0.00  0.00    +0.000 A 
ATOM     27  C   UNL     1       2.475  13.484  18.270  0.00  0.00    +0.000 A 
ATOM     28  N   UNL     1       1.630  12.427  18.243  0.00  0.00    +0.000 NA
ENDBRANCH  22  23
ENDBRANCH   1  22
TORSDOF 3
ENDMDL
MODEL 5
REMARK VINA RESULT:      -7.3      2.937      9.431
REMARK  Name = 
REMARK  4 active torsions:
REMARK  status: ('A' for Active; 'I' for Inactive)
REMARK    1  A    between atoms: C_1  and  C_2
REMARK    2  A    between atoms: C_2  and  N_3
REMARK    3  A    between atoms: C_2  and  C_22
REMARK    4  A    between atoms: C_7  and  C_8
REMARK                            x       y       z     vdW  Elec       q    Type
REMARK                         _______ _______ _______ _____ _____    ______ ____
ROOT
ATOM      1  N   UNL     1       3.150   5.749  19.850  0.00  0.00    +0.000 N 
ATOM      2  C   UNL     1       2.485   6.903  19.477  0.00  0.00    +0.000 A 
ATOM      3  N   UNL     1       2.355   7.228  18.184  0.00  0.00    +0.000 NA
ATOM      4  C   UNL     1       1.894   8.463  17.908  0.00  0.00    +0.000 A 
ATOM      5  C   UNL     1       1.613   9.395  18.879  0.00  0.00    +0.000 A 
ATOM      6  C   UNL     1       1.654   8.932  20.168  0.00  0.00    +0.000 A 
ATOM      7  N   UNL     1       2.069   7.687  20.484  0.00  0.00    +0.000 NA
ATOM      8  H   UNL     1       2.420   5.060  20.005  0.00  0.00    +0.000 HD
ENDROOT
BRANCH   5   9
ATOM      9  C   UNL     1       1.465  10.828  18.596  0.00  0.00    +0.000 C 
ATOM     10  O   UNL     1       2.390  11.417  18.048  0.00  0.00    +0.000 OA
ATOM     11  N   UNL     1       0.239  11.408  18.898  0.00  0.00    +0.000 N 
ATOM     12  C   UNL     1      -0.061  12.785  18.571  0.00  0.00    +0.000 C 
ATOM     13  C   UNL     1      -1.501  12.728  18.080  0.00  0.00    +0.000 C 
ATOM     14  C   UNL     1      -2.158  11.592  18.903  0.00  0.00    +0.000 C 
ATOM     15  C   UNL     1      -3.165  10.787  18.061  0.00  0.00    +0.000 C 
ATOM     16  C   UNL     1      -4.441  11.574  17.812  0.00  0.00    +0.000 C 
ATOM     17  O   UNL     1      -5.035  11.945  19.054  0.00  0.00    +0.000 OA
ATOM     18  C   UNL     1      -4.196  12.801  19.827  0.00  0.00    +0.000 C 
ATOM     19  C   UNL     1      -2.873  12.118  20.162  0.00  0.00    +0.000 C 
ATOM     20  C   UNL     1      -0.972  10.693  19.284  0.00  0.00    +0.000 C 
ENDBRANCH   5   9
BRANCH   1  22
ATOM     21  C   UNL     1       5.588   5.576  19.395  0.00  0.00    +0.000 C 
ATOM     22  C   UNL     1       4.164   5.237  18.923  0.00  0.00    +0.000 C 
BRANCH  22  23
ATOM     23  C   UNL     1       4.003   3.724  18.836  0.00  0.00    +0.000 A 
ATOM     24  C   UNL     1       3.189   3.148  17.861  0.00  0.00    +0.000 A 
ATOM     25  N   UNL     1       3.042   1.809  17.714  0.00  0.00    +0.000 NA
ATOM     26  C   UNL     1       3.753   1.057  18.580  0.00  0.00    +0.000 A 
ATOM     27  C   UNL     1       4.562   1.614  19.555  0.00  0.00    +0.000 A 
ATOM     28  N   UNL     1       4.705   2.951  19.708  0.00  0.00    +0.000 NA
ENDBRANCH  22  23
ENDBRANCH   1  22
TORSDOF 3
ENDMDL
MODEL 6
REMARK VINA RESULT:      -7.3      1.357      2.206
REMARK  Name = 
REMARK  4 active torsions:
REMARK  status: ('A' for Active; 'I' for Inactive)
REMARK    1  A    between atoms: C_1  and  C_2
REMARK    2  A    between atoms: C_2  and  N_3
REMARK    3  A    between atoms: C_2  and  C_22
REMARK    4  A    between atoms: C_7  and  C_8
REMARK                            x       y       z     vdW  Elec       q    Type
REMARK                         _______ _______ _______ _____ _____    ______ ____
ROOT
ATOM      1  N   UNL     1       1.704  11.285  17.970  0.00  0.00    +0.000 N 
ATOM      2  C   UNL     1       1.598   9.983  18.423  0.00  0.00    +0.000 A 
ATOM      3  N   UNL     1       1.324   9.728  19.709  0.00  0.00    +0.000 NA
ATOM      4  C   UNL     1       1.452   8.451  20.118  0.00  0.00    +0.000 A 
ATOM      5  C   UNL     1       1.896   7.440  19.300  0.00  0.00    +0.000 A 
ATOM      6  C   UNL     1       2.028   7.769  17.976  0.00  0.00    +0.000 A 
ATOM      7  N   UNL     1       1.866   9.029  17.518  0.00  0.00    +0.000 NA
ATOM      8  H   UNL     1       0.799  11.501  17.564  0.00  0.00    +0.000 HD
ENDROOT
BRANCH   5   9
ATOM      9  C   UNL     1       2.381   6.151  19.809  0.00  0.00    +0.000 C 
ATOM     10  O   UNL     1       1.649   5.495  20.541  0.00  0.00    +0.000 OA
ATOM     11  N   UNL     1       3.621   5.719  19.355  0.00  0.00    +0.000 N 
ATOM     12  C   UNL     1       4.159   4.423  19.705  0.00  0.00    +0.000 C 
ATOM     13  C   UNL     1       4.794   3.938  18.409  0.00  0.00    +0.000 C 
ATOM     14  C   UNL     1       5.303   5.224  17.711  0.00  0.00    +0.000 C 
ATOM     15  C   UNL     1       5.132   5.150  16.183  0.00  0.00    +0.000 C 
ATOM     16  C   UNL     1       6.140   4.203  15.552  0.00  0.00    +0.000 C 
ATOM     17  O   UNL     1       7.466   4.622  15.871  0.00  0.00    +0.000 OA
ATOM     18  C   UNL     1       7.727   4.588  17.273  0.00  0.00    +0.000 C 
ATOM     19  C   UNL     1       6.782   5.516  18.030  0.00  0.00    +0.000 C 
ATOM     20  C   UNL     1       4.394   6.325  18.277  0.00  0.00    +0.000 C 
ENDBRANCH   5   9
BRANCH   1  22
ATOM     21  C   UNL     1       2.871  13.456  18.304  0.00  0.00    +0.000 C 
ATOM     22  C   UNL     1       2.090  12.302  18.955  0.00  0.00    +0.000 C 
BRANCH  22  23
ATOM     23  C   UNL     1       0.818  12.846  19.595  0.00  0.00    +0.000 A 
ATOM     24  C   UNL     1      -0.408  12.753  18.936  0.00  0.00    +0.000 A 
ATOM     25  N   UNL     1      -1.574  13.184  19.474  0.00  0.00    +0.000 NA
ATOM     26  C   UNL     1      -1.472  13.707  20.715  0.00  0.00    +0.000 A 
ATOM     27  C   UNL     1      -0.263  13.809  21.380  0.00  0.00    +0.000 A 
ATOM     28  N   UNL     1       0.904  13.386  20.841  0.00  0.00    +0.000 NA
ENDBRANCH  22  23
ENDBRANCH   1  22
TORSDOF 3
ENDMDL
MODEL 7
REMARK VINA RESULT:      -7.2      3.477      8.851
REMARK  Name = 
REMARK  4 active torsions:
REMARK  status: ('A' for Active; 'I' for Inactive)
REMARK    1  A    between atoms: C_1  and  C_2
REMARK    2  A    between atoms: C_2  and  N_3
REMARK    3  A    between atoms: C_2  and  C_22
REMARK    4  A    between atoms: C_7  and  C_8
REMARK                            x       y       z     vdW  Elec       q    Type
REMARK                         _______ _______ _______ _____ _____    ______ ____
ROOT
ATOM      1  N   UNL     1       2.634   5.921  18.183  0.00  0.00    +0.000 N 
ATOM      2  C   UNL     1       2.374   7.134  18.795  0.00  0.00    +0.000 A 
ATOM      3  N   UNL     1       1.856   7.177  20.030  0.00  0.00    +0.000 NA
ATOM      4  C   UNL     1       1.430   8.376  20.471  0.00  0.00    +0.000 A 
ATOM      5  C   UNL     1       1.456   9.514  19.699  0.00  0.00    +0.000 A 
ATOM      6  C   UNL     1       2.117   9.399  18.505  0.00  0.00    +0.000 A 
ATOM      7  N   UNL     1       2.597   8.224  18.046  0.00  0.00    +0.000 NA
ATOM      8  H   UNL     1       3.622   5.751  18.337  0.00  0.00    +0.000 HD
ENDROOT
BRANCH   5   9
ATOM      9  C   UNL     1       0.679  10.718  20.020  0.00  0.00    +0.000 C 
ATOM     10  O   UNL     1       1.218  11.611  20.662  0.00  0.00    +0.000 OA
ATOM     11  N   UNL     1      -0.606  10.798  19.497  0.00  0.00    +0.000 N 
ATOM     12  C   UNL     1      -1.430  11.976  19.659  0.00  0.00    +0.000 C 
ATOM     13  C   UNL     1      -2.101  12.130  18.301  0.00  0.00    +0.000 C 
ATOM     14  C   UNL     1      -2.286  10.683  17.782  0.00  0.00    +0.000 C 
ATOM     15  C   UNL     1      -2.072  10.590  16.260  0.00  0.00    +0.000 C 
ATOM     16  C   UNL     1      -3.237  11.196  15.494  0.00  0.00    +0.000 C 
ATOM     17  O   UNL     1      -4.450  10.538  15.853  0.00  0.00    +0.000 OA
ATOM     18  C   UNL     1      -4.770  10.698  17.234  0.00  0.00    +0.000 C 
ATOM     19  C   UNL     1      -3.677  10.112  18.122  0.00  0.00    +0.000 C 
ATOM     20  C   UNL     1      -1.182   9.897  18.505  0.00  0.00    +0.000 C 
ENDBRANCH   5   9
BRANCH   1  22
ATOM     21  C   UNL     1       1.210   4.030  17.422  0.00  0.00    +0.000 C 
ATOM     22  C   UNL     1       1.832   4.772  18.617  0.00  0.00    +0.000 C 
BRANCH  22  23
ATOM     23  C   UNL     1       2.744   3.824  19.386  0.00  0.00    +0.000 A 
ATOM     24  C   UNL     1       4.031   3.543  18.927  0.00  0.00    +0.000 A 
ATOM     25  N   UNL     1       4.896   2.740  19.591  0.00  0.00    +0.000 NA
ATOM     26  C   UNL     1       4.429   2.230  20.750  0.00  0.00    +0.000 A 
ATOM     27  C   UNL     1       3.154   2.497  21.217  0.00  0.00    +0.000 A 
ATOM     28  N   UNL     1       2.285   3.293  20.552  0.00  0.00    +0.000 NA
ENDBRANCH  22  23
ENDBRANCH   1  22
TORSDOF 3
ENDMDL
MODEL 8
REMARK VINA RESULT:      -7.2      1.642      2.374
REMARK  Name = 
REMARK  4 active torsions:
REMARK  status: ('A' for Active; 'I' for Inactive)
REMARK    1  A    between atoms: C_1  and  C_2
REMARK    2  A    between atoms: C_2  and  N_3
REMARK    3  A    between atoms: C_2  and  C_22
REMARK    4  A    between atoms: C_7  and  C_8
REMARK                            x       y       z     vdW  Elec       q    Type
REMARK                         _______ _______ _______ _____ _____    ______ ____
ROOT
ATOM      1  N   UNL     1      -0.050  10.870  20.042  0.00  0.00    +0.000 N 
ATOM      2  C   UNL     1       0.764   9.753  20.010  0.00  0.00    +0.000 A 
ATOM      3  N   UNL     1       1.284   9.320  18.854  0.00  0.00    +0.000 NA
ATOM      4  C   UNL     1       1.881   8.113  18.868  0.00  0.00    +0.000 A 
ATOM      5  C   UNL     1       1.924   7.308  19.982  0.00  0.00    +0.000 A 
ATOM      6  C   UNL     1       1.482   7.886  21.143  0.00  0.00    +0.000 A 
ATOM      7  N   UNL     1       0.917   9.112  21.179  0.00  0.00    +0.000 NA
ATOM      8  H   UNL     1       0.559  11.636  20.313  0.00  0.00    +0.000 HD
ENDROOT
BRANCH   5   9
ATOM      9  C   UNL     1       2.237   5.875  19.923  0.00  0.00    +0.000 C 
ATOM     10  O   UNL     1       1.402   5.074  20.330  0.00  0.00    +0.000 OA
ATOM     11  N   UNL     1       3.439   5.514  19.327  0.00  0.00    +0.000 N 
ATOM     12  C   UNL     1       3.810   4.132  19.119  0.00  0.00    +0.000 C 
ATOM     13  C   UNL     1       4.444   4.137  17.735  0.00  0.00    +0.000 C 
ATOM     14  C   UNL     1       5.127   5.522  17.615  0.00  0.00    +0.000 C 
ATOM     15  C   UNL     1       5.017   6.091  16.189  0.00  0.00    +0.000 C 
ATOM     16  C   UNL     1       5.939   5.363  15.224  0.00  0.00    +0.000 C 
ATOM     17  O   UNL     1       7.288   5.453  15.679  0.00  0.00    +0.000 OA
ATOM     18  C   UNL     1       7.480   4.826  16.946  0.00  0.00    +0.000 C 
ATOM     19  C   UNL     1       6.613   5.478  18.019  0.00  0.00    +0.000 C 
ATOM     20  C   UNL     1       4.324   6.404  18.583  0.00  0.00    +0.000 C 
ENDBRANCH   5   9
BRANCH   1  22
ATOM     21  C   UNL     1      -1.011   9.948  17.942  0.00  0.00    +0.000 C 
ATOM     22  C   UNL     1      -0.781  11.195  18.812  0.00  0.00    +0.000 C 
BRANCH  22  23
ATOM     23  C   UNL     1      -2.125  11.795  19.207  0.00  0.00    +0.000 A 
ATOM     24  C   UNL     1      -3.277  11.508  18.474  0.00  0.00    +0.000 A 
ATOM     25  N   UNL     1      -4.503  11.982  18.804  0.00  0.00    +0.000 NA
ATOM     26  C   UNL     1      -4.539  12.754  19.911  0.00  0.00    +0.000 A 
ATOM     27  C   UNL     1      -3.404  13.051  20.645  0.00  0.00    +0.000 A 
ATOM     28  N   UNL     1      -2.178  12.584  20.314  0.00  0.00    +0.000 NA
ENDBRANCH  22  23
ENDBRANCH   1  22
TORSDOF 3
ENDMDL
MODEL 9
REMARK VINA RESULT:      -7.1      3.126      8.913
REMARK  Name = 
REMARK  4 active torsions:
REMARK  status: ('A' for Active; 'I' for Inactive)
REMARK    1  A    between atoms: C_1  and  C_2
REMARK    2  A    between atoms: C_2  and  N_3
REMARK    3  A    between atoms: C_2  and  C_22
REMARK    4  A    between atoms: C_7  and  C_8
REMARK                            x       y       z     vdW  Elec       q    Type
REMARK                         _______ _______ _______ _____ _____    ______ ____
ROOT
ATOM      1  N   UNL     1       4.307   6.276  17.958  0.00  0.00    +0.000 N 
ATOM      2  C   UNL     1       3.244   7.120  18.223  0.00  0.00    +0.000 A 
ATOM      3  N   UNL     1       2.881   8.059  17.339  0.00  0.00    +0.000 NA
ATOM      4  C   UNL     1       1.988   8.977  17.756  0.00  0.00    +0.000 A 
ATOM      5  C   UNL     1       1.492   9.016  19.037  0.00  0.00    +0.000 A 
ATOM      6  C   UNL     1       1.820   7.945  19.828  0.00  0.00    +0.000 A 
ATOM      7  N   UNL     1       2.678   6.981  19.431  0.00  0.00    +0.000 NA
ATOM      8  H   UNL     1       3.887   5.425  17.597  0.00  0.00    +0.000 HD
ENDROOT
BRANCH   5   9
ATOM      9  C   UNL     1       0.820  10.193  19.601  0.00  0.00    +0.000 C 
ATOM     10  O   UNL     1       1.470  10.964  20.297  0.00  0.00    +0.000 OA
ATOM     11  N   UNL     1      -0.505  10.399  19.235  0.00  0.00    +0.000 N 
ATOM     12  C   UNL     1      -1.242  11.575  19.644  0.00  0.00    +0.000 C 
ATOM     13  C   UNL     1      -2.037  11.947  18.400  0.00  0.00    +0.000 C 
ATOM     14  C   UNL     1      -2.354  10.596  17.712  0.00  0.00    +0.000 C 
ATOM     15  C   UNL     1      -2.300  10.711  16.177  0.00  0.00    +0.000 C 
ATOM     16  C   UNL     1      -3.500  11.466  15.630  0.00  0.00    +0.000 C 
ATOM     17  O   UNL     1      -4.706  10.814  16.025  0.00  0.00    +0.000 OA
ATOM     18  C   UNL     1      -4.876  10.790  17.441  0.00  0.00    +0.000 C 
ATOM     19  C   UNL     1      -3.732  10.041  18.119  0.00  0.00    +0.000 C 
ATOM     20  C   UNL     1      -1.227   9.672  18.198  0.00  0.00    +0.000 C 
ENDBRANCH   5   9
BRANCH   1  22
ATOM     21  C   UNL     1       6.599   7.228  17.806  0.00  0.00    +0.000 C 
ATOM     22  C   UNL     1       5.341   6.776  17.045  0.00  0.00    +0.000 C 
BRANCH  22  23
ATOM     23  C   UNL     1       5.705   5.651  16.083  0.00  0.00    +0.000 A 
ATOM     24  C   UNL     1       4.933   4.491  16.017  0.00  0.00    +0.000 A 
ATOM     25  N   UNL     1       5.188   3.479  15.154  0.00  0.00    +0.000 NA
ATOM     26  C   UNL     1       6.248   3.673  14.341  0.00  0.00    +0.000 A 
ATOM     27  C   UNL     1       7.025   4.817  14.397  0.00  0.00    +0.000 A 
ATOM     28  N   UNL     1       6.777   5.826  15.264  0.00  0.00    +0.000 NA
ENDBRANCH  22  23
ENDBRANCH   1  22
TORSDOF 3
ENDMDL
