MODEL 1
REMARK VINA RESULT:      -7.5      0.000      0.000
REMARK  Name = 
REMARK  6 active torsions:
REMARK  status: ('A' for Active; 'I' for Inactive)
REMARK    1  A    between atoms: C_2  and  C_3
REMARK    2  A    between atoms: C_3  and  O_4
REMARK    3  A    between atoms: C_5  and  C_6
REMARK    4  A    between atoms: C_6  and  O_7
REMARK    5  A    between atoms: C_9  and  N_10
REMARK    6  A    between atoms: C_18  and  O_19
REMARK                            x       y       z     vdW  Elec       q    Type
REMARK                         _______ _______ _______ _____ _____    ______ ____
ROOT
ATOM      1  C   UNL     1       6.774   5.420  17.267  0.00  0.00    +0.000 C 
ATOM      2  C   UNL     1       5.682   5.605  16.194  0.00  0.00    +0.000 C 
ATOM      3  O   UNL     1       4.457   5.913  16.888  0.00  0.00    +0.000 OA
ATOM      4  C   UNL     1       4.531   5.397  18.235  0.00  0.00    +0.000 C 
ATOM      5  C   UNL     1       5.972   4.877  18.460  0.00  0.00    +0.000 C 
ENDROOT
BRANCH   4   6
ATOM      6  N   UNL     1       3.472   4.388  18.447  0.00  0.00    +0.000 N 
ATOM      7  C   UNL     1       3.528   3.136  17.856  0.00  0.00    +0.000 A 
ATOM      8  C   UNL     1       2.505   2.279  17.890  0.00  0.00    +0.000 A 
ATOM      9  C   UNL     1       1.268   2.681  18.569  0.00  0.00    +0.000 A 
ATOM     10  O   UNL     1       0.245   2.015  18.472  0.00  0.00    +0.000 OA
ATOM     11  N   UNL     1       1.341   3.849  19.266  0.00  0.00    +0.000 N 
ATOM     12  C   UNL     1       2.330   4.791  19.141  0.00  0.00    +0.000 A 
ATOM     13  O   UNL     1       2.157   5.918  19.595  0.00  0.00    +0.000 OA
ATOM     14  H   UNL     1       0.488   4.165  19.705  0.00  0.00    +0.000 HD
ENDBRANCH   4   6
BRANCH   1  16
ATOM     15  C   UNL     1       7.890   7.818  17.778  0.00  0.00    +0.000 C 
ATOM     16  C   UNL     1       7.428   6.733  17.538  0.00  0.00    +0.000 C 
ENDBRANCH   1  16
BRANCH   1  17
ATOM     17  O   UNL     1       7.826   4.517  16.931  0.00  0.00    +0.000 OA
ATOM     18  H   UNL     1       7.522   3.895  16.241  0.00  0.00    +0.000 HD
ENDBRANCH   1  17
BRANCH   5  19
ATOM     19  O   UNL     1       6.524   5.231  19.738  0.00  0.00    +0.000 OA
ATOM     20  H   UNL     1       6.054   4.738  20.434  0.00  0.00    +0.000 HD
ENDBRANCH   5  19
BRANCH   2  21
ATOM     21  C   UNL     1       5.442   4.403  15.275  0.00  0.00    +0.000 C 
BRANCH  21  22
ATOM     22  O   UNL     1       6.584   4.139  14.470  0.00  0.00    +0.000 OA
ATOM     23  H   UNL     1       6.383   3.359  13.919  0.00  0.00    +0.000 HD
ENDBRANCH  21  22
ENDBRANCH   2  21
TORSDOF 6
ENDMDL
MODEL 2
REMARK VINA RESULT:      -7.0      1.975      5.507
REMARK  Name = 
REMARK  6 active torsions:
REMARK  status: ('A' for Active; 'I' for Inactive)
REMARK    1  A    between atoms: C_2  and  C_3
REMARK    2  A    between atoms: C_3  and  O_4
REMARK    3  A    between atoms: C_5  and  C_6
REMARK    4  A    between atoms: C_6  and  O_7
REMARK    5  A    between atoms: C_9  and  N_10
REMARK    6  A    between atoms: C_18  and  O_19
REMARK                            x       y       z     vdW  Elec       q    Type
REMARK                         _______ _______ _______ _____ _____    ______ ____
ROOT
ATOM      1  C   UNL     1       2.477   3.718  19.519  0.00  0.00    +0.000 C 
ATOM      2  C   UNL     1       3.339   2.554  18.989  0.00  0.00    +0.000 C 
ATOM      3  O   UNL     1       4.713   2.983  19.053  0.00  0.00    +0.000 OA
ATOM      4  C   UNL     1       4.762   4.425  19.023  0.00  0.00    +0.000 C 
ATOM      5  C   UNL     1       3.307   4.947  19.119  0.00  0.00    +0.000 C 
ENDROOT
BRANCH   4   6
ATOM      6  N   UNL     1       5.501   4.880  17.826  0.00  0.00    +0.000 N 
ATOM      7  C   UNL     1       4.866   5.086  16.611  0.00  0.00    +0.000 A 
ATOM      8  C   UNL     1       5.537   5.323  15.482  0.00  0.00    +0.000 A 
ATOM      9  C   UNL     1       7.004   5.356  15.524  0.00  0.00    +0.000 A 
ATOM     10  O   UNL     1       7.667   5.386  14.495  0.00  0.00    +0.000 OA
ATOM     11  N   UNL     1       7.550   5.313  16.770  0.00  0.00    +0.000 N 
ATOM     12  C   UNL     1       6.892   4.947  17.917  0.00  0.00    +0.000 A 
ATOM     13  O   UNL     1       7.534   4.669  18.924  0.00  0.00    +0.000 OA
ATOM     14  H   UNL     1       8.558   5.291  16.818  0.00  0.00    +0.000 HD
ENDBRANCH   4   6
BRANCH   1  16
ATOM     15  C   UNL     1       2.171   3.382  22.175  0.00  0.00    +0.000 C 
ATOM     16  C   UNL     1       2.302   3.572  20.993  0.00  0.00    +0.000 C 
ENDBRANCH   1  16
BRANCH   1  17
ATOM     17  O   UNL     1       1.162   3.814  18.973  0.00  0.00    +0.000 OA
ATOM     18  H   UNL     1       0.787   2.920  18.851  0.00  0.00    +0.000 HD
ENDBRANCH   1  17
BRANCH   5  19
ATOM     19  O   UNL     1       3.149   6.066  20.006  0.00  0.00    +0.000 OA
ATOM     20  H   UNL     1       3.933   6.129  20.580  0.00  0.00    +0.000 HD
ENDBRANCH   5  19
BRANCH   2  21
ATOM     21  C   UNL     1       3.028   2.094  17.561  0.00  0.00    +0.000 C 
BRANCH  21  22
ATOM     22  O   UNL     1       1.693   1.619  17.454  0.00  0.00    +0.000 OA
ATOM     23  H   UNL     1       1.698   0.853  16.849  0.00  0.00    +0.000 HD
ENDBRANCH  21  22
ENDBRANCH   2  21
TORSDOF 6
ENDMDL
MODEL 3
REMARK VINA RESULT:      -6.9      2.019      5.639
REMARK  Name = 
REMARK  6 active torsions:
REMARK  status: ('A' for Active; 'I' for Inactive)
REMARK    1  A    between atoms: C_2  and  C_3
REMARK    2  A    between atoms: C_3  and  O_4
REMARK    3  A    between atoms: C_5  and  C_6
REMARK    4  A    between atoms: C_6  and  O_7
REMARK    5  A    between atoms: C_9  and  N_10
REMARK    6  A    between atoms: C_18  and  O_19
REMARK                            x       y       z     vdW  Elec       q    Type
REMARK                         _______ _______ _______ _____ _____    ______ ____
ROOT
ATOM      1  C   UNL     1       2.212   3.501  19.744  0.00  0.00    +0.000 C 
ATOM      2  C   UNL     1       3.284   2.535  19.199  0.00  0.00    +0.000 C 
ATOM      3  O   UNL     1       4.568   3.086  19.554  0.00  0.00    +0.000 OA
ATOM      4  C   UNL     1       4.436   4.511  19.745  0.00  0.00    +0.000 C 
ATOM      5  C   UNL     1       2.929   4.857  19.673  0.00  0.00    +0.000 C 
ENDROOT
BRANCH   4   6
ATOM      6  N   UNL     1       5.281   5.231  18.768  0.00  0.00    +0.000 N 
ATOM      7  C   UNL     1       4.832   5.520  17.489  0.00  0.00    +0.000 A 
ATOM      8  C   UNL     1       5.633   6.008  16.540  0.00  0.00    +0.000 A 
ATOM      9  C   UNL     1       7.048   6.237  16.858  0.00  0.00    +0.000 A 
ATOM     10  O   UNL     1       7.860   6.505  15.981  0.00  0.00    +0.000 OA
ATOM     11  N   UNL     1       7.380   6.090  18.171  0.00  0.00    +0.000 N 
ATOM     12  C   UNL     1       6.608   5.475  19.123  0.00  0.00    +0.000 A 
ATOM     13  O   UNL     1       7.110   5.146  20.193  0.00  0.00    +0.000 OA
ATOM     14  H   UNL     1       8.356   6.200  18.402  0.00  0.00    +0.000 HD
ENDBRANCH   4   6
BRANCH   1  16
ATOM     15  C   UNL     1       1.531   2.700  22.225  0.00  0.00    +0.000 C 
ATOM     16  C   UNL     1       1.841   3.095  21.131  0.00  0.00    +0.000 C 
ENDBRANCH   1  16
BRANCH   1  17
ATOM     17  O   UNL     1       0.992   3.551  19.006  0.00  0.00    +0.000 OA
ATOM     18  H   UNL     1       0.653   2.645  18.862  0.00  0.00    +0.000 HD
ENDBRANCH   1  17
BRANCH   5  19
ATOM     19  O   UNL     1       2.499   5.791  20.677  0.00  0.00    +0.000 OA
ATOM     20  H   UNL     1       2.244   5.301  21.478  0.00  0.00    +0.000 HD
ENDBRANCH   5  19
BRANCH   2  21
ATOM     21  C   UNL     1       3.251   2.289  17.688  0.00  0.00    +0.000 C 
BRANCH  21  22
ATOM     22  O   UNL     1       2.016   1.707  17.291  0.00  0.00    +0.000 OA
ATOM     23  H   UNL     1       1.403   2.434  17.069  0.00  0.00    +0.000 HD
ENDBRANCH  21  22
ENDBRANCH   2  21
TORSDOF 6
ENDMDL
MODEL 4
REMARK VINA RESULT:      -6.8      2.175      5.556
REMARK  Name = 
REMARK  6 active torsions:
REMARK  status: ('A' for Active; 'I' for Inactive)
REMARK    1  A    between atoms: C_2  and  C_3
REMARK    2  A    between atoms: C_3  and  O_4
REMARK    3  A    between atoms: C_5  and  C_6
REMARK    4  A    between atoms: C_6  and  O_7
REMARK    5  A    between atoms: C_9  and  N_10
REMARK    6  A    between atoms: C_18  and  O_19
REMARK                            x       y       z     vdW  Elec       q    Type
REMARK                         _______ _______ _______ _____ _____    ______ ____
ROOT
ATOM      1  C   UNL     1       2.394   2.888  18.955  0.00  0.00    +0.000 C 
ATOM      2  C   UNL     1       3.780   3.150  19.579  0.00  0.00    +0.000 C 
ATOM      3  O   UNL     1       4.217   4.440  19.108  0.00  0.00    +0.000 OA
ATOM      4  C   UNL     1       3.549   4.743  17.865  0.00  0.00    +0.000 C 
ATOM      5  C   UNL     1       2.488   3.643  17.621  0.00  0.00    +0.000 C 
ENDROOT
BRANCH   4   6
ATOM      6  N   UNL     1       4.544   4.890  16.781  0.00  0.00    +0.000 N 
ATOM      7  C   UNL     1       5.073   3.791  16.123  0.00  0.00    +0.000 A 
ATOM      8  C   UNL     1       6.095   3.888  15.269  0.00  0.00    +0.000 A 
ATOM      9  C   UNL     1       6.691   5.208  15.027  0.00  0.00    +0.000 A 
ATOM     10  O   UNL     1       7.737   5.326  14.403  0.00  0.00    +0.000 OA
ATOM     11  N   UNL     1       6.018   6.258  15.574  0.00  0.00    +0.000 N 
ATOM     12  C   UNL     1       5.053   6.168  16.544  0.00  0.00    +0.000 A 
ATOM     13  O   UNL     1       4.718   7.172  17.164  0.00  0.00    +0.000 OA
ATOM     14  H   UNL     1       6.435   7.170  15.455  0.00  0.00    +0.000 HD
ENDBRANCH   4   6
BRANCH   1  16
ATOM     15  C   UNL     1       0.506   3.911  20.584  0.00  0.00    +0.000 C 
ATOM     16  C   UNL     1       1.336   3.417  19.865  0.00  0.00    +0.000 C 
ENDBRANCH   1  16
BRANCH   1  17
ATOM     17  O   UNL     1       2.067   1.519  18.724  0.00  0.00    +0.000 OA
ATOM     18  H   UNL     1       1.243   1.457  18.202  0.00  0.00    +0.000 HD
ENDBRANCH   1  17
BRANCH   5  19
ATOM     19  O   UNL     1       1.227   4.146  17.151  0.00  0.00    +0.000 OA
ATOM     20  H   UNL     1       0.557   4.023  17.847  0.00  0.00    +0.000 HD
ENDBRANCH   5  19
BRANCH   2  21
ATOM     21  C   UNL     1       4.860   2.112  19.256  0.00  0.00    +0.000 C 
BRANCH  21  22
ATOM     22  O   UNL     1       5.330   1.478  20.438  0.00  0.00    +0.000 OA
ATOM     23  H   UNL     1       6.090   0.917  20.192  0.00  0.00    +0.000 HD
ENDBRANCH  21  22
ENDBRANCH   2  21
TORSDOF 6
ENDMDL
MODEL 5
REMARK VINA RESULT:      -6.8      1.138      1.316
REMARK  Name = 
REMARK  6 active torsions:
REMARK  status: ('A' for Active; 'I' for Inactive)
REMARK    1  A    between atoms: C_2  and  C_3
REMARK    2  A    between atoms: C_3  and  O_4
REMARK    3  A    between atoms: C_5  and  C_6
REMARK    4  A    between atoms: C_6  and  O_7
REMARK    5  A    between atoms: C_9  and  N_10
REMARK    6  A    between atoms: C_18  and  O_19
REMARK                            x       y       z     vdW  Elec       q    Type
REMARK                         _______ _______ _______ _____ _____    ______ ____
ROOT
ATOM      1  C   UNL     1       6.939   5.485  17.313  0.00  0.00    +0.000 C 
ATOM      2  C   UNL     1       5.897   5.808  16.222  0.00  0.00    +0.000 C 
ATOM      3  O   UNL     1       4.653   6.081  16.895  0.00  0.00    +0.000 OA
ATOM      4  C   UNL     1       4.658   5.432  18.185  0.00  0.00    +0.000 C 
ATOM      5  C   UNL     1       6.075   4.850  18.413  0.00  0.00    +0.000 C 
ENDROOT
BRANCH   4   6
ATOM      6  N   UNL     1       3.566   4.437  18.253  0.00  0.00    +0.000 N 
ATOM      7  C   UNL     1       2.320   4.682  17.697  0.00  0.00    +0.000 A 
ATOM      8  C   UNL     1       1.273   3.879  17.898  0.00  0.00    +0.000 A 
ATOM      9  C   UNL     1       1.442   2.697  18.752  0.00  0.00    +0.000 A 
ATOM     10  O   UNL     1       0.479   2.036  19.117  0.00  0.00    +0.000 OA
ATOM     11  N   UNL     1       2.724   2.430  19.127  0.00  0.00    +0.000 N 
ATOM     12  C   UNL     1       3.779   3.301  19.035  0.00  0.00    +0.000 A 
ATOM     13  O   UNL     1       4.814   3.069  19.652  0.00  0.00    +0.000 OA
ATOM     14  H   UNL     1       2.856   1.646  19.749  0.00  0.00    +0.000 HD
ENDBRANCH   4   6
BRANCH   1  16
ATOM     15  C   UNL     1       8.093   7.798  18.075  0.00  0.00    +0.000 C 
ATOM     16  C   UNL     1       7.613   6.746  17.740  0.00  0.00    +0.000 C 
ENDBRANCH   1  16
BRANCH   1  17
ATOM     17  O   UNL     1       7.981   4.590  16.929  0.00  0.00    +0.000 OA
ATOM     18  H   UNL     1       7.608   3.845  16.419  0.00  0.00    +0.000 HD
ENDBRANCH   1  17
BRANCH   5  19
ATOM     19  O   UNL     1       6.582   5.059  19.740  0.00  0.00    +0.000 OA
ATOM     20  H   UNL     1       6.830   5.995  19.841  0.00  0.00    +0.000 HD
ENDBRANCH   5  19
BRANCH   2  21
ATOM     21  C   UNL     1       5.667   4.711  15.179  0.00  0.00    +0.000 C 
BRANCH  21  22
ATOM     22  O   UNL     1       6.776   4.602  14.296  0.00  0.00    +0.000 OA
ATOM     23  H   UNL     1       7.581   4.512  14.842  0.00  0.00    +0.000 HD
ENDBRANCH  21  22
ENDBRANCH   2  21
TORSDOF 6
ENDMDL
MODEL 6
REMARK VINA RESULT:      -6.8      1.757      2.126
REMARK  Name = 
REMARK  6 active torsions:
REMARK  status: ('A' for Active; 'I' for Inactive)
REMARK    1  A    between atoms: C_2  and  C_3
REMARK    2  A    between atoms: C_3  and  O_4
REMARK    3  A    between atoms: C_5  and  C_6
REMARK    4  A    between atoms: C_6  and  O_7
REMARK    5  A    between atoms: C_9  and  N_10
REMARK    6  A    between atoms: C_18  and  O_19
REMARK                            x       y       z     vdW  Elec       q    Type
REMARK                         _______ _______ _______ _____ _____    ______ ____
ROOT
ATOM      1  C   UNL     1       6.664   5.384  17.625  0.00  0.00    +0.000 C 
ATOM      2  C   UNL     1       5.337   5.479  16.843  0.00  0.00    +0.000 C 
ATOM      3  O   UNL     1       4.333   5.934  17.771  0.00  0.00    +0.000 OA
ATOM      4  C   UNL     1       4.739   5.597  19.114  0.00  0.00    +0.000 C 
ATOM      5  C   UNL     1       6.183   5.043  19.044  0.00  0.00    +0.000 C 
ENDROOT
BRANCH   4   6
ATOM      6  N   UNL     1       3.755   4.677  19.723  0.00  0.00    +0.000 N 
ATOM      7  C   UNL     1       2.535   5.127  20.203  0.00  0.00    +0.000 A 
ATOM      8  C   UNL     1       1.711   4.351  20.911  0.00  0.00    +0.000 A 
ATOM      9  C   UNL     1       2.117   2.971  21.204  0.00  0.00    +0.000 A 
ATOM     10  O   UNL     1       1.490   2.281  21.998  0.00  0.00    +0.000 OA
ATOM     11  N   UNL     1       3.243   2.548  20.564  0.00  0.00    +0.000 N 
ATOM     12  C   UNL     1       4.157   3.359  19.942  0.00  0.00    +0.000 A 
ATOM     13  O   UNL     1       5.263   2.915  19.650  0.00  0.00    +0.000 OA
ATOM     14  H   UNL     1       3.562   1.617  20.786  0.00  0.00    +0.000 HD
ENDBRANCH   4   6
BRANCH   1  16
ATOM     15  C   UNL     1       7.904   7.769  17.433  0.00  0.00    +0.000 C 
ATOM     16  C   UNL     1       7.382   6.689  17.539  0.00  0.00    +0.000 C 
ENDBRANCH   1  16
BRANCH   1  17
ATOM     17  O   UNL     1       7.584   4.395  17.166  0.00  0.00    +0.000 OA
ATOM     18  H   UNL     1       7.143   3.803  16.526  0.00  0.00    +0.000 HD
ENDBRANCH   1  17
BRANCH   5  19
ATOM     19  O   UNL     1       7.046   5.535  20.081  0.00  0.00    +0.000 OA
ATOM     20  H   UNL     1       7.075   4.884  20.805  0.00  0.00    +0.000 HD
ENDBRANCH   5  19
BRANCH   2  21
ATOM     21  C   UNL     1       4.857   4.179  16.190  0.00  0.00    +0.000 C 
BRANCH  21  22
ATOM     22  O   UNL     1       5.765   3.744  15.187  0.00  0.00    +0.000 OA
ATOM     23  H   UNL     1       5.890   2.782  15.297  0.00  0.00    +0.000 HD
ENDBRANCH  21  22
ENDBRANCH   2  21
TORSDOF 6
ENDMDL
MODEL 7
REMARK VINA RESULT:      -6.6      2.069      5.451
REMARK  Name = 
REMARK  6 active torsions:
REMARK  status: ('A' for Active; 'I' for Inactive)
REMARK    1  A    between atoms: C_2  and  C_3
REMARK    2  A    between atoms: C_3  and  O_4
REMARK    3  A    between atoms: C_5  and  C_6
REMARK    4  A    between atoms: C_6  and  O_7
REMARK    5  A    between atoms: C_9  and  N_10
REMARK    6  A    between atoms: C_18  and  O_19
REMARK                            x       y       z     vdW  Elec       q    Type
REMARK                         _______ _______ _______ _____ _____    ______ ____
ROOT
ATOM      1  C   UNL     1       2.330   3.885  18.648  0.00  0.00    +0.000 C 
ATOM      2  C   UNL     1       3.560   2.964  18.784  0.00  0.00    +0.000 C 
ATOM      3  O   UNL     1       4.725   3.812  18.786  0.00  0.00    +0.000 OA
ATOM      4  C   UNL     1       4.410   5.052  18.118  0.00  0.00    +0.000 C 
ATOM      5  C   UNL     1       2.889   5.055  17.825  0.00  0.00    +0.000 C 
ENDROOT
BRANCH   4   6
ATOM      6  N   UNL     1       5.267   5.214  16.924  0.00  0.00    +0.000 N 
ATOM      7  C   UNL     1       4.974   4.584  15.724  0.00  0.00    +0.000 A 
ATOM      8  C   UNL     1       5.821   4.573  14.693  0.00  0.00    +0.000 A 
ATOM      9  C   UNL     1       7.119   5.243  14.837  0.00  0.00    +0.000 A 
ATOM     10  O   UNL     1       8.000   5.107  13.998  0.00  0.00    +0.000 OA
ATOM     11  N   UNL     1       7.271   5.978  15.974  0.00  0.00    +0.000 N 
ATOM     12  C   UNL     1       6.471   5.900  17.086  0.00  0.00    +0.000 A 
ATOM     13  O   UNL     1       6.854   6.386  18.145  0.00  0.00    +0.000 OA
ATOM     14  H   UNL     1       8.172   6.411  16.112  0.00  0.00    +0.000 HD
ENDBRANCH   4   6
BRANCH   1  16
ATOM     15  C   UNL     1       1.549   4.627  21.117  0.00  0.00    +0.000 C 
ATOM     16  C   UNL     1       1.860   4.284  20.007  0.00  0.00    +0.000 C 
ENDBRANCH   1  16
BRANCH   1  17
ATOM     17  O   UNL     1       1.200   3.316  17.989  0.00  0.00    +0.000 OA
ATOM     18  H   UNL     1       0.377   3.612  18.426  0.00  0.00    +0.000 HD
ENDBRANCH   1  17
BRANCH   5  19
ATOM     19  O   UNL     1       2.248   6.312  18.096  0.00  0.00    +0.000 OA
ATOM     20  H   UNL     1       2.920   7.016  18.102  0.00  0.00    +0.000 HD
ENDBRANCH   5  19
BRANCH   2  21
ATOM     21  C   UNL     1       3.720   1.903  17.691  0.00  0.00    +0.000 C 
BRANCH  21  22
ATOM     22  O   UNL     1       4.109   0.653  18.243  0.00  0.00    +0.000 OA
ATOM     23  H   UNL     1       3.711  -0.051  17.695  0.00  0.00    +0.000 HD
ENDBRANCH  21  22
ENDBRANCH   2  21
TORSDOF 6
ENDMDL
MODEL 8
REMARK VINA RESULT:      -6.5      2.445      3.989
REMARK  Name = 
REMARK  6 active torsions:
REMARK  status: ('A' for Active; 'I' for Inactive)
REMARK    1  A    between atoms: C_2  and  C_3
REMARK    2  A    between atoms: C_3  and  O_4
REMARK    3  A    between atoms: C_5  and  C_6
REMARK    4  A    between atoms: C_6  and  O_7
REMARK    5  A    between atoms: C_9  and  N_10
REMARK    6  A    between atoms: C_18  and  O_19
REMARK                            x       y       z     vdW  Elec       q    Type
REMARK                         _______ _______ _______ _____ _____    ______ ____
ROOT
ATOM      1  C   UNL     1       5.499   4.443  17.495  0.00  0.00    +0.000 C 
ATOM      2  C   UNL     1       4.222   3.683  17.909  0.00  0.00    +0.000 C 
ATOM      3  O   UNL     1       3.106   4.549  17.627  0.00  0.00    +0.000 OA
ATOM      4  C   UNL     1       3.558   5.920  17.621  0.00  0.00    +0.000 C 
ATOM      5  C   UNL     1       5.102   5.907  17.740  0.00  0.00    +0.000 C 
ENDROOT
BRANCH   4   6
ATOM      6  N   UNL     1       2.866   6.683  18.682  0.00  0.00    +0.000 N 
ATOM      7  C   UNL     1       2.515   6.100  19.890  0.00  0.00    +0.000 A 
ATOM      8  C   UNL     1       1.739   6.714  20.785  0.00  0.00    +0.000 A 
ATOM      9  C   UNL     1       1.226   8.054  20.476  0.00  0.00    +0.000 A 
ATOM     10  O   UNL     1       0.369   8.582  21.172  0.00  0.00    +0.000 OA
ATOM     11  N   UNL     1       1.742   8.629  19.354  0.00  0.00    +0.000 N 
ATOM     12  C   UNL     1       2.435   7.973  18.369  0.00  0.00    +0.000 A 
ATOM     13  O   UNL     1       2.606   8.516  17.282  0.00  0.00    +0.000 OA
ATOM     14  H   UNL     1       1.370   9.532  19.100  0.00  0.00    +0.000 HD
ENDBRANCH   4   6
BRANCH   1  16
ATOM     15  C   UNL     1       6.001   3.928  14.899  0.00  0.00    +0.000 C 
ATOM     16  C   UNL     1       5.813   4.142  16.068  0.00  0.00    +0.000 C 
ENDBRANCH   1  16
BRANCH   1  17
ATOM     17  O   UNL     1       6.677   4.124  18.235  0.00  0.00    +0.000 OA
ATOM     18  H   UNL     1       7.415   3.940  17.621  0.00  0.00    +0.000 HD
ENDBRANCH   1  17
BRANCH   5  19
ATOM     19  O   UNL     1       5.759   6.838  16.866  0.00  0.00    +0.000 OA
ATOM     20  H   UNL     1       6.330   7.422  17.397  0.00  0.00    +0.000 HD
ENDBRANCH   5  19
BRANCH   2  21
ATOM     21  C   UNL     1       4.154   3.247  19.376  0.00  0.00    +0.000 C 
BRANCH  21  22
ATOM     22  O   UNL     1       5.130   2.254  19.661  0.00  0.00    +0.000 OA
ATOM     23  H   UNL     1       4.825   1.416  19.264  0.00  0.00    +0.000 HD
ENDBRANCH  21  22
ENDBRANCH   2  21
TORSDOF 6
ENDMDL
MODEL 9
REMARK VINA RESULT:      -6.4      2.359      5.863
REMARK  Name = 
REMARK  6 active torsions:
REMARK  status: ('A' for Active; 'I' for Inactive)
REMARK    1  A    between atoms: C_2  and  C_3
REMARK    2  A    between atoms: C_3  and  O_4
REMARK    3  A    between atoms: C_5  and  C_6
REMARK    4  A    between atoms: C_6  and  O_7
REMARK    5  A    between atoms: C_9  and  N_10
REMARK    6  A    between atoms: C_18  and  O_19
REMARK                            x       y       z     vdW  Elec       q    Type
REMARK                         _______ _______ _______ _____ _____    ______ ____
ROOT
ATOM      1  C   UNL     1       2.914   4.029  19.640  0.00  0.00    +0.000 C 
ATOM      2  C   UNL     1       2.518   5.284  18.835  0.00  0.00    +0.000 C 
ATOM      3  O   UNL     1       3.366   5.323  17.671  0.00  0.00    +0.000 OA
ATOM      4  C   UNL     1       4.578   4.587  17.941  0.00  0.00    +0.000 C 
ATOM      5  C   UNL     1       4.408   3.889  19.313  0.00  0.00    +0.000 C 
ENDROOT
BRANCH   4   6
ATOM      6  N   UNL     1       5.747   5.487  17.848  0.00  0.00    +0.000 N 
ATOM      7  C   UNL     1       6.739   5.497  18.816  0.00  0.00    +0.000 A 
ATOM      8  C   UNL     1       7.705   6.417  18.846  0.00  0.00    +0.000 A 
ATOM      9  C   UNL     1       7.711   7.469  17.821  0.00  0.00    +0.000 A 
ATOM     10  O   UNL     1       8.458   8.435  17.909  0.00  0.00    +0.000 OA
ATOM     11  N   UNL     1       6.812   7.302  16.812  0.00  0.00    +0.000 N 
ATOM     12  C   UNL     1       5.743   6.443  16.832  0.00  0.00    +0.000 A 
ATOM     13  O   UNL     1       4.844   6.573  16.006  0.00  0.00    +0.000 OA
ATOM     14  H   UNL     1       6.771   8.037  16.121  0.00  0.00    +0.000 HD
ENDBRANCH   4   6
BRANCH   1  16
ATOM     15  C   UNL     1       1.488   1.915  18.770  0.00  0.00    +0.000 C 
ATOM     16  C   UNL     1       2.094   2.870  19.182  0.00  0.00    +0.000 C 
ENDBRANCH   1  16
BRANCH   1  17
ATOM     17  O   UNL     1       2.725   4.113  21.051  0.00  0.00    +0.000 OA
ATOM     18  H   UNL     1       1.828   3.805  21.286  0.00  0.00    +0.000 HD
ENDBRANCH   1  17
BRANCH   5  19
ATOM     19  O   UNL     1       4.882   2.533  19.337  0.00  0.00    +0.000 OA
ATOM     20  H   UNL     1       5.754   2.494  18.907  0.00  0.00    +0.000 HD
ENDBRANCH   5  19
BRANCH   2  21
ATOM     21  C   UNL     1       2.638   6.616  19.581  0.00  0.00    +0.000 C 
BRANCH  21  22
ATOM     22  O   UNL     1       1.806   6.634  20.734  0.00  0.00    +0.000 OA
ATOM     23  H   UNL     1       1.505   7.553  20.868  0.00  0.00    +0.000 HD
ENDBRANCH  21  22
ENDBRANCH   2  21
TORSDOF 6
ENDMDL
