MODEL 1
REMARK VINA RESULT:      -7.8      0.000      0.000
REMARK  Name = 
REMARK  18 active torsions:
REMARK  status: ('A' for Active; 'I' for Inactive)
REMARK    1  A    between atoms: C_1  and  C_2
REMARK    2  A    between atoms: C_2  and  C_3
REMARK    3  A    between atoms: C_3  and  C_4
REMARK    4  A    between atoms: C_4  and  C_5
REMARK    5  A    between atoms: C_5  and  C_6
REMARK    6  A    between atoms: C_6  and  C_7
REMARK    7  A    between atoms: C_6  and  O_8
REMARK    8  A    between atoms: O_8  and  C_9
REMARK    9  A    between atoms: C_9  and  C_11
REMARK   10  A    between atoms: C_11  and  C_12
REMARK   11  A    between atoms: C_11  and  C_27
REMARK   12  A    between atoms: N_14  and  C_15
REMARK   13  A    between atoms: C_16  and  C_17
REMARK   14  A    between atoms: C_17  and  C_18
REMARK   15  A    between atoms: C_17  and  C_19
REMARK   16  A    between atoms: C_23  and  C_24
REMARK   17  A    between atoms: C_24  and  C_25
REMARK   18  A    between atoms: C_24  and  C_26
REMARK                            x       y       z     vdW  Elec       q    Type
REMARK                         _______ _______ _______ _____ _____    ______ ____
ROOT
ATOM      1  C   UNL     1       5.765   5.268  16.374  0.00  0.00    +0.000 C 
ENDROOT
BRANCH   1   2
ATOM      2  C   UNL     1       5.981   4.691  14.965  0.00  0.00    +0.000 A 
ATOM      3  C   UNL     1       7.206   4.870  14.292  0.00  0.00    +0.000 A 
ATOM      4  C   UNL     1       7.408   4.362  13.005  0.00  0.00    +0.000 A 
ATOM      5  C   UNL     1       6.401   3.642  12.375  0.00  0.00    +0.000 A 
ATOM      6  C   UNL     1       5.201   3.402  13.043  0.00  0.00    +0.000 A 
ATOM      7  C   UNL     1       5.002   3.903  14.333  0.00  0.00    +0.000 A 
ENDBRANCH   1   2
BRANCH   1   8
ATOM      8  C   UNL     1       4.585   4.655  17.130  0.00  0.00    +0.000 C 
ATOM      9  O   UNL     1       3.752   3.971  16.538  0.00  0.00    +0.000 OA
ATOM     10  N   UNL     1       4.529   4.978  18.484  0.00  0.00    +0.000 N 
ATOM     11  H   UNL     1       4.979   5.856  18.728  0.00  0.00    +0.000 HD
BRANCH  10  12
ATOM     12  C   UNL     1       3.475   4.552  19.330  0.00  0.00    +0.000 A 
ATOM     13  C   UNL     1       3.362   3.193  19.732  0.00  0.00    +0.000 A 
ATOM     14  C   UNL     1       2.270   2.822  20.549  0.00  0.00    +0.000 A 
ATOM     15  C   UNL     1       1.374   3.767  21.031  0.00  0.00    +0.000 A 
ATOM     16  C   UNL     1       1.535   5.103  20.695  0.00  0.00    +0.000 A 
ATOM     17  C   UNL     1       2.563   5.526  19.829  0.00  0.00    +0.000 A 
BRANCH  13  18
ATOM     18  C   UNL     1       4.409   2.116  19.428  0.00  0.00    +0.000 C 
ATOM     19  C   UNL     1       4.921   1.437  20.714  0.00  0.00    +0.000 C 
ATOM     20  C   UNL     1       3.882   1.042  18.471  0.00  0.00    +0.000 C 
ENDBRANCH  13  18
BRANCH  17  21
ATOM     21  C   UNL     1       2.567   6.996  19.406  0.00  0.00    +0.000 C 
ATOM     22  C   UNL     1       2.085   7.160  17.956  0.00  0.00    +0.000 C 
ATOM     23  C   UNL     1       1.731   7.876  20.343  0.00  0.00    +0.000 C 
ENDBRANCH  17  21
ENDBRANCH  10  12
ENDBRANCH   1   8
BRANCH   1  24
ATOM     24  C   UNL     1       5.594   6.774  16.399  0.00  0.00    +0.000 C 
ATOM     25  O   UNL     1       5.025   7.415  15.518  0.00  0.00    +0.000 OA
BRANCH  24  26
ATOM     26  O   UNL     1       6.103   7.324  17.539  0.00  0.00    +0.000 OA
BRANCH  26  27
ATOM     27  C   UNL     1       7.536   7.492  17.552  0.00  0.00    +0.000 C 
ATOM     28  C   UNL     1       8.089   6.698  18.733  0.00  0.00    +0.000 C 
BRANCH  27  29
ATOM     29  C   UNL     1       7.873   8.989  17.654  0.00  0.00    +0.000 C 
BRANCH  29  30
ATOM     30  C   UNL     1       8.913   9.277  18.734  0.00  0.00    +0.000 C 
BRANCH  30  31
ATOM     31  C   UNL     1       9.103  10.775  18.962  0.00  0.00    +0.000 C 
BRANCH  31  33
ATOM     32  C   UNL     1      11.524  11.458  18.806  0.00  0.00    +0.000 C 
ATOM     33  C   UNL     1      10.211  11.311  18.058  0.00  0.00    +0.000 C 
ENDBRANCH  31  33
ENDBRANCH  30  31
ENDBRANCH  29  30
ENDBRANCH  27  29
ENDBRANCH  26  27
ENDBRANCH  24  26
ENDBRANCH   1  24
TORSDOF 12
ENDMDL
MODEL 2
REMARK VINA RESULT:      -7.8      1.610      6.257
REMARK  Name = 
REMARK  18 active torsions:
REMARK  status: ('A' for Active; 'I' for Inactive)
REMARK    1  A    between atoms: C_1  and  C_2
REMARK    2  A    between atoms: C_2  and  C_3
REMARK    3  A    between atoms: C_3  and  C_4
REMARK    4  A    between atoms: C_4  and  C_5
REMARK    5  A    between atoms: C_5  and  C_6
REMARK    6  A    between atoms: C_6  and  C_7
REMARK    7  A    between atoms: C_6  and  O_8
REMARK    8  A    between atoms: O_8  and  C_9
REMARK    9  A    between atoms: C_9  and  C_11
REMARK   10  A    between atoms: C_11  and  C_12
REMARK   11  A    between atoms: C_11  and  C_27
REMARK   12  A    between atoms: N_14  and  C_15
REMARK   13  A    between atoms: C_16  and  C_17
REMARK   14  A    between atoms: C_17  and  C_18
REMARK   15  A    between atoms: C_17  and  C_19
REMARK   16  A    between atoms: C_23  and  C_24
REMARK   17  A    between atoms: C_24  and  C_25
REMARK   18  A    between atoms: C_24  and  C_26
REMARK                            x       y       z     vdW  Elec       q    Type
REMARK                         _______ _______ _______ _____ _____    ______ ____
ROOT
ATOM      1  C   UNL     1       6.629   6.043  17.624  0.00  0.00    +0.000 C 
ENDROOT
BRANCH   1   2
ATOM      2  C   UNL     1       7.350   7.373  17.899  0.00  0.00    +0.000 A 
ATOM      3  C   UNL     1       8.409   7.442  18.826  0.00  0.00    +0.000 A 
ATOM      4  C   UNL     1       9.062   8.649  19.094  0.00  0.00    +0.000 A 
ATOM      5  C   UNL     1       8.688   9.807  18.423  0.00  0.00    +0.000 A 
ATOM      6  C   UNL     1       7.680   9.753  17.460  0.00  0.00    +0.000 A 
ATOM      7  C   UNL     1       7.033   8.543  17.187  0.00  0.00    +0.000 A 
ENDBRANCH   1   2
BRANCH   1   8
ATOM      8  C   UNL     1       5.625   5.637  18.704  0.00  0.00    +0.000 C 
ATOM      9  O   UNL     1       6.008   5.354  19.838  0.00  0.00    +0.000 OA
ATOM     10  N   UNL     1       4.301   5.576  18.275  0.00  0.00    +0.000 N 
ATOM     11  H   UNL     1       4.186   5.397  17.283  0.00  0.00    +0.000 HD
BRANCH  10  12
ATOM     12  C   UNL     1       3.242   5.161  19.120  0.00  0.00    +0.000 A 
ATOM     13  C   UNL     1       2.375   6.108  19.730  0.00  0.00    +0.000 A 
ATOM     14  C   UNL     1       1.358   5.634  20.588  0.00  0.00    +0.000 A 
ATOM     15  C   UNL     1       1.139   4.274  20.768  0.00  0.00    +0.000 A 
ATOM     16  C   UNL     1       1.942   3.355  20.111  0.00  0.00    +0.000 A 
ATOM     17  C   UNL     1       3.017   3.765  19.295  0.00  0.00    +0.000 A 
BRANCH  13  18
ATOM     18  C   UNL     1       2.398   7.612  19.432  0.00  0.00    +0.000 C 
ATOM     19  C   UNL     1       2.023   7.911  17.967  0.00  0.00    +0.000 C 
ATOM     20  C   UNL     1       1.471   8.404  20.358  0.00  0.00    +0.000 C 
ENDBRANCH  13  18
BRANCH  17  21
ATOM     21  C   UNL     1       3.928   2.674  18.733  0.00  0.00    +0.000 C 
ATOM     22  C   UNL     1       4.664   1.928  19.858  0.00  0.00    +0.000 C 
ATOM     23  C   UNL     1       3.172   1.679  17.846  0.00  0.00    +0.000 C 
ENDBRANCH  17  21
ENDBRANCH  10  12
ENDBRANCH   1   8
BRANCH   1  24
ATOM     24  C   UNL     1       7.568   4.873  17.407  0.00  0.00    +0.000 C 
ATOM     25  O   UNL     1       8.075   4.221  18.316  0.00  0.00    +0.000 OA
BRANCH  24  26
ATOM     26  O   UNL     1       7.741   4.601  16.081  0.00  0.00    +0.000 OA
BRANCH  26  27
ATOM     27  C   UNL     1       6.544   4.674  15.278  0.00  0.00    +0.000 C 
ATOM     28  C   UNL     1       5.655   3.492  15.657  0.00  0.00    +0.000 C 
BRANCH  27  29
ATOM     29  C   UNL     1       6.928   4.654  13.789  0.00  0.00    +0.000 C 
BRANCH  29  30
ATOM     30  C   UNL     1       6.254   3.512  13.032  0.00  0.00    +0.000 C 
BRANCH  30  31
ATOM     31  C   UNL     1       5.188   4.017  12.063  0.00  0.00    +0.000 C 
BRANCH  31  33
ATOM     32  C   UNL     1       3.269   3.252  10.618  0.00  0.00    +0.000 C 
ATOM     33  C   UNL     1       4.556   2.845  11.314  0.00  0.00    +0.000 C 
ENDBRANCH  31  33
ENDBRANCH  30  31
ENDBRANCH  29  30
ENDBRANCH  27  29
ENDBRANCH  26  27
ENDBRANCH  24  26
ENDBRANCH   1  24
TORSDOF 12
ENDMDL
MODEL 3
REMARK VINA RESULT:      -7.7      1.664      6.390
REMARK  Name = 
REMARK  18 active torsions:
REMARK  status: ('A' for Active; 'I' for Inactive)
REMARK    1  A    between atoms: C_1  and  C_2
REMARK    2  A    between atoms: C_2  and  C_3
REMARK    3  A    between atoms: C_3  and  C_4
REMARK    4  A    between atoms: C_4  and  C_5
REMARK    5  A    between atoms: C_5  and  C_6
REMARK    6  A    between atoms: C_6  and  C_7
REMARK    7  A    between atoms: C_6  and  O_8
REMARK    8  A    between atoms: O_8  and  C_9
REMARK    9  A    between atoms: C_9  and  C_11
REMARK   10  A    between atoms: C_11  and  C_12
REMARK   11  A    between atoms: C_11  and  C_27
REMARK   12  A    between atoms: N_14  and  C_15
REMARK   13  A    between atoms: C_16  and  C_17
REMARK   14  A    between atoms: C_17  and  C_18
REMARK   15  A    between atoms: C_17  and  C_19
REMARK   16  A    between atoms: C_23  and  C_24
REMARK   17  A    between atoms: C_24  and  C_25
REMARK   18  A    between atoms: C_24  and  C_26
REMARK                            x       y       z     vdW  Elec       q    Type
REMARK                         _______ _______ _______ _____ _____    ______ ____
ROOT
ATOM      1  C   UNL     1       5.470   5.610  16.342  0.00  0.00    +0.000 C 
ENDROOT
BRANCH   1   2
ATOM      2  C   UNL     1       6.540   6.318  17.189  0.00  0.00    +0.000 A 
ATOM      3  C   UNL     1       6.832   7.683  16.991  0.00  0.00    +0.000 A 
ATOM      4  C   UNL     1       7.813   8.332  17.746  0.00  0.00    +0.000 A 
ATOM      5  C   UNL     1       8.505   7.640  18.732  0.00  0.00    +0.000 A 
ATOM      6  C   UNL     1       8.195   6.304  18.986  0.00  0.00    +0.000 A 
ATOM      7  C   UNL     1       7.208   5.657  18.236  0.00  0.00    +0.000 A 
ENDBRANCH   1   2
BRANCH   1   8
ATOM      8  C   UNL     1       4.313   5.024  17.153  0.00  0.00    +0.000 C 
ATOM      9  O   UNL     1       3.383   4.451  16.589  0.00  0.00    +0.000 OA
ATOM     10  N   UNL     1       4.396   5.242  18.526  0.00  0.00    +0.000 N 
ATOM     11  H   UNL     1       4.930   6.062  18.793  0.00  0.00    +0.000 HD
BRANCH  10  12
ATOM     12  C   UNL     1       3.385   4.824  19.429  0.00  0.00    +0.000 A 
ATOM     13  C   UNL     1       2.459   5.755  19.975  0.00  0.00    +0.000 A 
ATOM     14  C   UNL     1       1.496   5.284  20.895  0.00  0.00    +0.000 A 
ATOM     15  C   UNL     1       1.385   3.933  21.199  0.00  0.00    +0.000 A 
ATOM     16  C   UNL     1       2.244   3.022  20.604  0.00  0.00    +0.000 A 
ATOM     17  C   UNL     1       3.270   3.437  19.731  0.00  0.00    +0.000 A 
BRANCH  13  18
ATOM     18  C   UNL     1       2.363   7.224  19.547  0.00  0.00    +0.000 C 
ATOM     19  C   UNL     1       1.805   7.368  18.118  0.00  0.00    +0.000 C 
ATOM     20  C   UNL     1       1.505   8.055  20.505  0.00  0.00    +0.000 C 
ENDBRANCH  13  18
BRANCH  17  21
ATOM     21  C   UNL     1       4.253   2.372  19.243  0.00  0.00    +0.000 C 
ATOM     22  C   UNL     1       4.890   1.620  20.423  0.00  0.00    +0.000 C 
ATOM     23  C   UNL     1       3.604   1.377  18.273  0.00  0.00    +0.000 C 
ENDBRANCH  17  21
ENDBRANCH  10  12
ENDBRANCH   1   8
BRANCH   1  24
ATOM     24  C   UNL     1       6.019   4.506  15.461  0.00  0.00    +0.000 C 
ATOM     25  O   UNL     1       6.319   3.387  15.869  0.00  0.00    +0.000 OA
BRANCH  24  26
ATOM     26  O   UNL     1       6.091   4.889  14.153  0.00  0.00    +0.000 OA
BRANCH  26  27
ATOM     27  C   UNL     1       6.751   3.953  13.276  0.00  0.00    +0.000 C 
ATOM     28  C   UNL     1       7.366   4.745  12.124  0.00  0.00    +0.000 C 
BRANCH  27  29
ATOM     29  C   UNL     1       5.732   2.912  12.782  0.00  0.00    +0.000 C 
BRANCH  29  30
ATOM     30  C   UNL     1       5.240   3.209  11.367  0.00  0.00    +0.000 C 
BRANCH  30  31
ATOM     31  C   UNL     1       3.766   3.607  11.344  0.00  0.00    +0.000 C 
BRANCH  31  33
ATOM     32  C   UNL     1       2.661   4.598   9.307  0.00  0.00    +0.000 C 
ATOM     33  C   UNL     1       3.164   3.328   9.968  0.00  0.00    +0.000 C 
ENDBRANCH  31  33
ENDBRANCH  30  31
ENDBRANCH  29  30
ENDBRANCH  27  29
ENDBRANCH  26  27
ENDBRANCH  24  26
ENDBRANCH   1  24
TORSDOF 12
ENDMDL
MODEL 4
REMARK VINA RESULT:      -7.6      0.291      3.005
REMARK  Name = 
REMARK  18 active torsions:
REMARK  status: ('A' for Active; 'I' for Inactive)
REMARK    1  A    between atoms: C_1  and  C_2
REMARK    2  A    between atoms: C_2  and  C_3
REMARK    3  A    between atoms: C_3  and  C_4
REMARK    4  A    between atoms: C_4  and  C_5
REMARK    5  A    between atoms: C_5  and  C_6
REMARK    6  A    between atoms: C_6  and  C_7
REMARK    7  A    between atoms: C_6  and  O_8
REMARK    8  A    between atoms: O_8  and  C_9
REMARK    9  A    between atoms: C_9  and  C_11
REMARK   10  A    between atoms: C_11  and  C_12
REMARK   11  A    between atoms: C_11  and  C_27
REMARK   12  A    between atoms: N_14  and  C_15
REMARK   13  A    between atoms: C_16  and  C_17
REMARK   14  A    between atoms: C_17  and  C_18
REMARK   15  A    between atoms: C_17  and  C_19
REMARK   16  A    between atoms: C_23  and  C_24
REMARK   17  A    between atoms: C_24  and  C_25
REMARK   18  A    between atoms: C_24  and  C_26
REMARK                            x       y       z     vdW  Elec       q    Type
REMARK                         _______ _______ _______ _____ _____    ______ ____
ROOT
ATOM      1  C   UNL     1       5.752   5.323  16.434  0.00  0.00    +0.000 C 
ENDROOT
BRANCH   1   2
ATOM      2  C   UNL     1       5.951   4.714  15.036  0.00  0.00    +0.000 A 
ATOM      3  C   UNL     1       7.173   4.864  14.351  0.00  0.00    +0.000 A 
ATOM      4  C   UNL     1       7.360   4.326  13.074  0.00  0.00    +0.000 A 
ATOM      5  C   UNL     1       6.339   3.606  12.466  0.00  0.00    +0.000 A 
ATOM      6  C   UNL     1       5.141   3.396  13.146  0.00  0.00    +0.000 A 
ATOM      7  C   UNL     1       4.957   3.927  14.427  0.00  0.00    +0.000 A 
ENDBRANCH   1   2
BRANCH   1   8
ATOM      8  C   UNL     1       4.556   4.758  17.201  0.00  0.00    +0.000 C 
ATOM      9  O   UNL     1       3.659   4.162  16.608  0.00  0.00    +0.000 OA
ATOM     10  N   UNL     1       4.565   5.021  18.569  0.00  0.00    +0.000 N 
ATOM     11  H   UNL     1       5.082   5.852  18.836  0.00  0.00    +0.000 HD
BRANCH  10  12
ATOM     12  C   UNL     1       3.510   4.628  19.431  0.00  0.00    +0.000 A 
ATOM     13  C   UNL     1       2.567   5.576  19.915  0.00  0.00    +0.000 A 
ATOM     14  C   UNL     1       1.558   5.130  20.797  0.00  0.00    +0.000 A 
ATOM     15  C   UNL     1       1.421   3.785  21.120  0.00  0.00    +0.000 A 
ATOM     16  C   UNL     1       2.300   2.857  20.584  0.00  0.00    +0.000 A 
ATOM     17  C   UNL     1       3.370   3.247  19.752  0.00  0.00    +0.000 A 
BRANCH  13  18
ATOM     18  C   UNL     1       2.504   7.037  19.455  0.00  0.00    +0.000 C 
ATOM     19  C   UNL     1       1.961   7.162  18.018  0.00  0.00    +0.000 C 
ATOM     20  C   UNL     1       1.653   7.905  20.389  0.00  0.00    +0.000 C 
ENDBRANCH  13  18
BRANCH  17  21
ATOM     21  C   UNL     1       4.365   2.166  19.332  0.00  0.00    +0.000 C 
ATOM     22  C   UNL     1       4.966   1.455  20.556  0.00  0.00    +0.000 C 
ATOM     23  C   UNL     1       3.745   1.139  18.377  0.00  0.00    +0.000 C 
ENDBRANCH  17  21
ENDBRANCH  10  12
ENDBRANCH   1   8
BRANCH   1  24
ATOM     24  C   UNL     1       5.624   6.834  16.430  0.00  0.00    +0.000 C 
ATOM     25  O   UNL     1       5.070   7.474  15.539  0.00  0.00    +0.000 OA
BRANCH  24  26
ATOM     26  O   UNL     1       6.151   7.391  17.558  0.00  0.00    +0.000 OA
BRANCH  26  27
ATOM     27  C   UNL     1       7.589   7.511  17.568  0.00  0.00    +0.000 C 
ATOM     28  C   UNL     1       8.117   6.709  18.755  0.00  0.00    +0.000 C 
BRANCH  27  29
ATOM     29  C   UNL     1       7.975   8.998  17.658  0.00  0.00    +0.000 C 
BRANCH  29  30
ATOM     30  C   UNL     1       8.913   9.283  18.828  0.00  0.00    +0.000 C 
BRANCH  30  31
ATOM     31  C   UNL     1       9.173  10.778  19.003  0.00  0.00    +0.000 C 
BRANCH  31  33
ATOM     32  C   UNL     1      10.030  12.700  17.616  0.00  0.00    +0.000 C 
ATOM     33  C   UNL     1      10.235  11.249  18.011  0.00  0.00    +0.000 C 
ENDBRANCH  31  33
ENDBRANCH  30  31
ENDBRANCH  29  30
ENDBRANCH  27  29
ENDBRANCH  26  27
ENDBRANCH  24  26
ENDBRANCH   1  24
TORSDOF 12
ENDMDL
MODEL 5
REMARK VINA RESULT:      -7.4      1.779      5.510
REMARK  Name = 
REMARK  18 active torsions:
REMARK  status: ('A' for Active; 'I' for Inactive)
REMARK    1  A    between atoms: C_1  and  C_2
REMARK    2  A    between atoms: C_2  and  C_3
REMARK    3  A    between atoms: C_3  and  C_4
REMARK    4  A    between atoms: C_4  and  C_5
REMARK    5  A    between atoms: C_5  and  C_6
REMARK    6  A    between atoms: C_6  and  C_7
REMARK    7  A    between atoms: C_6  and  O_8
REMARK    8  A    between atoms: O_8  and  C_9
REMARK    9  A    between atoms: C_9  and  C_11
REMARK   10  A    between atoms: C_11  and  C_12
REMARK   11  A    between atoms: C_11  and  C_27
REMARK   12  A    between atoms: N_14  and  C_15
REMARK   13  A    between atoms: C_16  and  C_17
REMARK   14  A    between atoms: C_17  and  C_18
REMARK   15  A    between atoms: C_17  and  C_19
REMARK   16  A    between atoms: C_23  and  C_24
REMARK   17  A    between atoms: C_24  and  C_25
REMARK   18  A    between atoms: C_24  and  C_26
REMARK                            x       y       z     vdW  Elec       q    Type
REMARK                         _______ _______ _______ _____ _____    ______ ____
ROOT
ATOM      1  C   UNL     1       5.304   5.337  16.210  0.00  0.00    +0.000 C 
ENDROOT
BRANCH   1   2
ATOM      2  C   UNL     1       6.370   6.043  17.064  0.00  0.00    +0.000 A 
ATOM      3  C   UNL     1       6.695   7.395  16.840  0.00  0.00    +0.000 A 
ATOM      4  C   UNL     1       7.673   8.043  17.601  0.00  0.00    +0.000 A 
ATOM      5  C   UNL     1       8.327   7.360  18.619  0.00  0.00    +0.000 A 
ATOM      6  C   UNL     1       7.983   6.038  18.898  0.00  0.00    +0.000 A 
ATOM      7  C   UNL     1       6.999   5.393  18.141  0.00  0.00    +0.000 A 
ENDBRANCH   1   2
BRANCH   1   8
ATOM      8  C   UNL     1       4.207   4.645  17.020  0.00  0.00    +0.000 C 
ATOM      9  O   UNL     1       3.428   3.864  16.476  0.00  0.00    +0.000 OA
ATOM     10  N   UNL     1       4.154   5.013  18.362  0.00  0.00    +0.000 N 
ATOM     11  H   UNL     1       4.523   5.937  18.562  0.00  0.00    +0.000 HD
BRANCH  10  12
ATOM     12  C   UNL     1       3.166   4.521  19.252  0.00  0.00    +0.000 A 
ATOM     13  C   UNL     1       3.196   3.175  19.710  0.00  0.00    +0.000 A 
ATOM     14  C   UNL     1       2.165   2.734  20.570  0.00  0.00    +0.000 A 
ATOM     15  C   UNL     1       1.191   3.607  21.038  0.00  0.00    +0.000 A 
ATOM     16  C   UNL     1       1.212   4.936  20.646  0.00  0.00    +0.000 A 
ATOM     17  C   UNL     1       2.174   5.421  19.736  0.00  0.00    +0.000 A 
BRANCH  13  18
ATOM     18  C   UNL     1       4.338   2.194  19.422  0.00  0.00    +0.000 C 
ATOM     19  C   UNL     1       4.881   1.552  20.714  0.00  0.00    +0.000 C 
ATOM     20  C   UNL     1       3.923   1.086  18.449  0.00  0.00    +0.000 C 
ENDBRANCH  13  18
BRANCH  17  21
ATOM     21  C   UNL     1       2.023   6.865  19.256  0.00  0.00    +0.000 C 
ATOM     22  C   UNL     1       1.644   7.801  20.416  0.00  0.00    +0.000 C 
ATOM     23  C   UNL     1       3.282   7.383  18.550  0.00  0.00    +0.000 C 
ENDBRANCH  17  21
ENDBRANCH  10  12
ENDBRANCH   1   8
BRANCH   1  24
ATOM     24  C   UNL     1       5.871   4.319  15.241  0.00  0.00    +0.000 C 
ATOM     25  O   UNL     1       6.149   3.161  15.546  0.00  0.00    +0.000 OA
BRANCH  24  26
ATOM     26  O   UNL     1       5.989   4.827  13.981  0.00  0.00    +0.000 OA
BRANCH  26  27
ATOM     27  C   UNL     1       7.115   4.335  13.224  0.00  0.00    +0.000 C 
ATOM     28  C   UNL     1       8.178   5.431  13.200  0.00  0.00    +0.000 C 
BRANCH  27  29
ATOM     29  C   UNL     1       6.649   3.953  11.808  0.00  0.00    +0.000 C 
BRANCH  29  30
ATOM     30  C   UNL     1       5.597   2.847  11.824  0.00  0.00    +0.000 C 
BRANCH  30  31
ATOM     31  C   UNL     1       4.176   3.407  11.821  0.00  0.00    +0.000 C 
BRANCH  31  33
ATOM     32  C   UNL     1       3.050   4.164   9.697  0.00  0.00    +0.000 C 
ATOM     33  C   UNL     1       3.439   2.974  10.555  0.00  0.00    +0.000 C 
ENDBRANCH  31  33
ENDBRANCH  30  31
ENDBRANCH  29  30
ENDBRANCH  27  29
ENDBRANCH  26  27
ENDBRANCH  24  26
ENDBRANCH   1  24
TORSDOF 12
ENDMDL
MODEL 6
REMARK VINA RESULT:      -7.4      1.512      5.588
REMARK  Name = 
REMARK  18 active torsions:
REMARK  status: ('A' for Active; 'I' for Inactive)
REMARK    1  A    between atoms: C_1  and  C_2
REMARK    2  A    between atoms: C_2  and  C_3
REMARK    3  A    between atoms: C_3  and  C_4
REMARK    4  A    between atoms: C_4  and  C_5
REMARK    5  A    between atoms: C_5  and  C_6
REMARK    6  A    between atoms: C_6  and  C_7
REMARK    7  A    between atoms: C_6  and  O_8
REMARK    8  A    between atoms: O_8  and  C_9
REMARK    9  A    between atoms: C_9  and  C_11
REMARK   10  A    between atoms: C_11  and  C_12
REMARK   11  A    between atoms: C_11  and  C_27
REMARK   12  A    between atoms: N_14  and  C_15
REMARK   13  A    between atoms: C_16  and  C_17
REMARK   14  A    between atoms: C_17  and  C_18
REMARK   15  A    between atoms: C_17  and  C_19
REMARK   16  A    between atoms: C_23  and  C_24
REMARK   17  A    between atoms: C_24  and  C_25
REMARK   18  A    between atoms: C_24  and  C_26
REMARK                            x       y       z     vdW  Elec       q    Type
REMARK                         _______ _______ _______ _____ _____    ______ ____
ROOT
ATOM      1  C   UNL     1       6.400   6.355  17.343  0.00  0.00    +0.000 C 
ENDROOT
BRANCH   1   2
ATOM      2  C   UNL     1       7.253   7.569  17.746  0.00  0.00    +0.000 A 
ATOM      3  C   UNL     1       6.959   8.854  17.250  0.00  0.00    +0.000 A 
ATOM      4  C   UNL     1       7.736   9.963  17.598  0.00  0.00    +0.000 A 
ATOM      5  C   UNL     1       8.808   9.815  18.470  0.00  0.00    +0.000 A 
ATOM      6  C   UNL     1       9.085   8.563  19.019  0.00  0.00    +0.000 A 
ATOM      7  C   UNL     1       8.302   7.456  18.676  0.00  0.00    +0.000 A 
ENDBRANCH   1   2
BRANCH   1   8
ATOM      8  C   UNL     1       5.471   5.846  18.446  0.00  0.00    +0.000 C 
ATOM      9  O   UNL     1       5.923   5.521  19.542  0.00  0.00    +0.000 OA
ATOM     10  N   UNL     1       4.131   5.747  18.079  0.00  0.00    +0.000 N 
ATOM     11  H   UNL     1       3.973   5.615  17.085  0.00  0.00    +0.000 HD
BRANCH  10  12
ATOM     12  C   UNL     1       3.134   5.238  18.950  0.00  0.00    +0.000 A 
ATOM     13  C   UNL     1       2.997   3.840  19.169  0.00  0.00    +0.000 A 
ATOM     14  C   UNL     1       1.963   3.393  20.022  0.00  0.00    +0.000 A 
ATOM     15  C   UNL     1       1.153   4.288  20.709  0.00  0.00    +0.000 A 
ATOM     16  C   UNL     1       1.343   5.651  20.547  0.00  0.00    +0.000 A 
ATOM     17  C   UNL     1       2.311   6.160  19.657  0.00  0.00    +0.000 A 
BRANCH  13  18
ATOM     18  C   UNL     1       3.968   2.785  18.627  0.00  0.00    +0.000 C 
ATOM     19  C   UNL     1       4.676   2.023  19.764  0.00  0.00    +0.000 C 
ATOM     20  C   UNL     1       3.277   1.777  17.704  0.00  0.00    +0.000 C 
ENDBRANCH  13  18
BRANCH  17  21
ATOM     21  C   UNL     1       2.342   7.674  19.443  0.00  0.00    +0.000 C 
ATOM     22  C   UNL     1       1.948   8.041  18.003  0.00  0.00    +0.000 C 
ATOM     23  C   UNL     1       1.454   8.425  20.441  0.00  0.00    +0.000 C 
ENDBRANCH  17  21
ENDBRANCH  10  12
ENDBRANCH   1   8
BRANCH   1  24
ATOM     24  C   UNL     1       7.212   5.175  16.845  0.00  0.00    +0.000 C 
ATOM     25  O   UNL     1       7.568   4.238  17.556  0.00  0.00    +0.000 OA
BRANCH  24  26
ATOM     26  O   UNL     1       7.454   5.254  15.505  0.00  0.00    +0.000 OA
BRANCH  26  27
ATOM     27  C   UNL     1       6.419   4.708  14.661  0.00  0.00    +0.000 C 
ATOM     28  C   UNL     1       5.832   3.490  15.370  0.00  0.00    +0.000 C 
BRANCH  27  29
ATOM     29  C   UNL     1       7.017   4.347  13.291  0.00  0.00    +0.000 C 
BRANCH  29  30
ATOM     30  C   UNL     1       6.138   3.369  12.514  0.00  0.00    +0.000 C 
BRANCH  30  31
ATOM     31  C   UNL     1       4.800   3.991  12.120  0.00  0.00    +0.000 C 
BRANCH  31  33
ATOM     32  C   UNL     1       3.322   3.754  10.092  0.00  0.00    +0.000 C 
ATOM     33  C   UNL     1       4.010   3.028  11.234  0.00  0.00    +0.000 C 
ENDBRANCH  31  33
ENDBRANCH  30  31
ENDBRANCH  29  30
ENDBRANCH  27  29
ENDBRANCH  26  27
ENDBRANCH  24  26
ENDBRANCH   1  24
TORSDOF 12
ENDMDL
MODEL 7
REMARK VINA RESULT:      -7.3      1.620      6.330
REMARK  Name = 
REMARK  18 active torsions:
REMARK  status: ('A' for Active; 'I' for Inactive)
REMARK    1  A    between atoms: C_1  and  C_2
REMARK    2  A    between atoms: C_2  and  C_3
REMARK    3  A    between atoms: C_3  and  C_4
REMARK    4  A    between atoms: C_4  and  C_5
REMARK    5  A    between atoms: C_5  and  C_6
REMARK    6  A    between atoms: C_6  and  C_7
REMARK    7  A    between atoms: C_6  and  O_8
REMARK    8  A    between atoms: O_8  and  C_9
REMARK    9  A    between atoms: C_9  and  C_11
REMARK   10  A    between atoms: C_11  and  C_12
REMARK   11  A    between atoms: C_11  and  C_27
REMARK   12  A    between atoms: N_14  and  C_15
REMARK   13  A    between atoms: C_16  and  C_17
REMARK   14  A    between atoms: C_17  and  C_18
REMARK   15  A    between atoms: C_17  and  C_19
REMARK   16  A    between atoms: C_23  and  C_24
REMARK   17  A    between atoms: C_24  and  C_25
REMARK   18  A    between atoms: C_24  and  C_26
REMARK                            x       y       z     vdW  Elec       q    Type
REMARK                         _______ _______ _______ _____ _____    ______ ____
ROOT
ATOM      1  C   UNL     1       6.345   5.723  17.350  0.00  0.00    +0.000 C 
ENDROOT
BRANCH   1   2
ATOM      2  C   UNL     1       7.190   6.936  17.774  0.00  0.00    +0.000 A 
ATOM      3  C   UNL     1       7.043   8.179  17.127  0.00  0.00    +0.000 A 
ATOM      4  C   UNL     1       7.816   9.284  17.496  0.00  0.00    +0.000 A 
ATOM      5  C   UNL     1       8.732   9.179  18.535  0.00  0.00    +0.000 A 
ATOM      6  C   UNL     1       8.854   7.975  19.228  0.00  0.00    +0.000 A 
ATOM      7  C   UNL     1       8.076   6.872  18.865  0.00  0.00    +0.000 A 
ENDBRANCH   1   2
BRANCH   1   8
ATOM      8  C   UNL     1       5.393   5.210  18.432  0.00  0.00    +0.000 C 
ATOM      9  O   UNL     1       5.833   4.683  19.451  0.00  0.00    +0.000 OA
ATOM     10  N   UNL     1       4.041   5.353  18.132  0.00  0.00    +0.000 N 
ATOM     11  H   UNL     1       3.828   5.377  17.140  0.00  0.00    +0.000 HD
BRANCH  10  12
ATOM     12  C   UNL     1       3.013   4.881  18.988  0.00  0.00    +0.000 A 
ATOM     13  C   UNL     1       2.278   5.775  19.813  0.00  0.00    +0.000 A 
ATOM     14  C   UNL     1       1.289   5.240  20.669  0.00  0.00    +0.000 A 
ATOM     15  C   UNL     1       0.968   3.889  20.648  0.00  0.00    +0.000 A 
ATOM     16  C   UNL     1       1.639   3.036  19.785  0.00  0.00    +0.000 A 
ATOM     17  C   UNL     1       2.682   3.496  18.957  0.00  0.00    +0.000 A 
BRANCH  13  18
ATOM     18  C   UNL     1       2.410   7.301  19.759  0.00  0.00    +0.000 C 
ATOM     19  C   UNL     1       2.118   7.850  18.348  0.00  0.00    +0.000 C 
ATOM     20  C   UNL     1       1.494   8.002  20.767  0.00  0.00    +0.000 C 
ENDBRANCH  13  18
BRANCH  17  21
ATOM     21  C   UNL     1       3.453   2.450  18.151  0.00  0.00    +0.000 C 
ATOM     22  C   UNL     1       3.662   1.162  18.964  0.00  0.00    +0.000 C 
ATOM     23  C   UNL     1       2.777   2.126  16.814  0.00  0.00    +0.000 C 
ENDBRANCH  17  21
ENDBRANCH  10  12
ENDBRANCH   1   8
BRANCH   1  24
ATOM     24  C   UNL     1       7.167   4.545  16.866  0.00  0.00    +0.000 C 
ATOM     25  O   UNL     1       8.300   4.286  17.267  0.00  0.00    +0.000 OA
BRANCH  24  26
ATOM     26  O   UNL     1       6.479   3.779  15.970  0.00  0.00    +0.000 OA
BRANCH  26  27
ATOM     27  C   UNL     1       6.434   4.301  14.625  0.00  0.00    +0.000 C 
ATOM     28  C   UNL     1       5.448   5.467  14.609  0.00  0.00    +0.000 C 
BRANCH  27  29
ATOM     29  C   UNL     1       6.018   3.180  13.658  0.00  0.00    +0.000 C 
BRANCH  29  30
ATOM     30  C   UNL     1       5.956   3.657  12.210  0.00  0.00    +0.000 C 
BRANCH  30  31
ATOM     31  C   UNL     1       5.099   2.739  11.340  0.00  0.00    +0.000 C 
BRANCH  31  33
ATOM     32  C   UNL     1       3.367   3.951   9.967  0.00  0.00    +0.000 C 
ATOM     33  C   UNL     1       3.662   3.254  11.283  0.00  0.00    +0.000 C 
ENDBRANCH  31  33
ENDBRANCH  30  31
ENDBRANCH  29  30
ENDBRANCH  27  29
ENDBRANCH  26  27
ENDBRANCH  24  26
ENDBRANCH   1  24
TORSDOF 12
ENDMDL
MODEL 8
REMARK VINA RESULT:      -7.3      1.524      6.330
REMARK  Name = 
REMARK  18 active torsions:
REMARK  status: ('A' for Active; 'I' for Inactive)
REMARK    1  A    between atoms: C_1  and  C_2
REMARK    2  A    between atoms: C_2  and  C_3
REMARK    3  A    between atoms: C_3  and  C_4
REMARK    4  A    between atoms: C_4  and  C_5
REMARK    5  A    between atoms: C_5  and  C_6
REMARK    6  A    between atoms: C_6  and  C_7
REMARK    7  A    between atoms: C_6  and  O_8
REMARK    8  A    between atoms: O_8  and  C_9
REMARK    9  A    between atoms: C_9  and  C_11
REMARK   10  A    between atoms: C_11  and  C_12
REMARK   11  A    between atoms: C_11  and  C_27
REMARK   12  A    between atoms: N_14  and  C_15
REMARK   13  A    between atoms: C_16  and  C_17
REMARK   14  A    between atoms: C_17  and  C_18
REMARK   15  A    between atoms: C_17  and  C_19
REMARK   16  A    between atoms: C_23  and  C_24
REMARK   17  A    between atoms: C_24  and  C_25
REMARK   18  A    between atoms: C_24  and  C_26
REMARK                            x       y       z     vdW  Elec       q    Type
REMARK                         _______ _______ _______ _____ _____    ______ ____
ROOT
ATOM      1  C   UNL     1       6.027   6.507  17.129  0.00  0.00    +0.000 C 
ENDROOT
BRANCH   1   2
ATOM      2  C   UNL     1       7.021   7.553  17.660  0.00  0.00    +0.000 A 
ATOM      3  C   UNL     1       8.054   7.185  18.544  0.00  0.00    +0.000 A 
ATOM      4  C   UNL     1       8.954   8.131  19.044  0.00  0.00    +0.000 A 
ATOM      5  C   UNL     1       8.857   9.460  18.650  0.00  0.00    +0.000 A 
ATOM      6  C   UNL     1       7.879   9.839  17.732  0.00  0.00    +0.000 A 
ATOM      7  C   UNL     1       6.984   8.891  17.226  0.00  0.00    +0.000 A 
ENDBRANCH   1   2
BRANCH   1   8
ATOM      8  C   UNL     1       5.209   5.809  18.216  0.00  0.00    +0.000 C 
ATOM      9  O   UNL     1       5.768   5.250  19.157  0.00  0.00    +0.000 OA
ATOM     10  N   UNL     1       3.831   5.830  18.011  0.00  0.00    +0.000 N 
ATOM     11  H   UNL     1       3.549   5.912  17.039  0.00  0.00    +0.000 HD
BRANCH  10  12
ATOM     12  C   UNL     1       2.918   5.183  18.881  0.00  0.00    +0.000 A 
ATOM     13  C   UNL     1       2.181   5.918  19.849  0.00  0.00    +0.000 A 
ATOM     14  C   UNL     1       1.311   5.212  20.710  0.00  0.00    +0.000 A 
ATOM     15  C   UNL     1       1.100   3.847  20.565  0.00  0.00    +0.000 A 
ATOM     16  C   UNL     1       1.767   3.150  19.568  0.00  0.00    +0.000 A 
ATOM     17  C   UNL     1       2.699   3.784  18.723  0.00  0.00    +0.000 A 
BRANCH  13  18
ATOM     18  C   UNL     1       2.182   7.448  19.952  0.00  0.00    +0.000 C 
ATOM     19  C   UNL     1       1.865   8.112  18.598  0.00  0.00    +0.000 C 
ATOM     20  C   UNL     1       1.196   7.962  21.005  0.00  0.00    +0.000 C 
ENDBRANCH  13  18
BRANCH  17  21
ATOM     21  C   UNL     1       3.486   2.900  17.755  0.00  0.00    +0.000 C 
ATOM     22  C   UNL     1       3.647   1.474  18.308  0.00  0.00    +0.000 C 
ATOM     23  C   UNL     1       2.855   2.855  16.358  0.00  0.00    +0.000 C 
ENDBRANCH  17  21
ENDBRANCH  10  12
ENDBRANCH   1   8
BRANCH   1  24
ATOM     24  C   UNL     1       6.671   5.431  16.276  0.00  0.00    +0.000 C 
ATOM     25  O   UNL     1       7.223   4.432  16.732  0.00  0.00    +0.000 OA
BRANCH  24  26
ATOM     26  O   UNL     1       6.517   5.680  14.944  0.00  0.00    +0.000 OA
BRANCH  26  27
ATOM     27  C   UNL     1       7.041   4.661  14.065  0.00  0.00    +0.000 C 
ATOM     28  C   UNL     1       7.903   5.351  13.011  0.00  0.00    +0.000 C 
BRANCH  27  29
ATOM     29  C   UNL     1       5.873   3.882  13.437  0.00  0.00    +0.000 C 
BRANCH  29  30
ATOM     30  C   UNL     1       6.347   2.856  12.410  0.00  0.00    +0.000 C 
BRANCH  30  31
ATOM     31  C   UNL     1       5.276   2.555  11.364  0.00  0.00    +0.000 C 
BRANCH  31  33
ATOM     32  C   UNL     1       3.157   3.436  10.321  0.00  0.00    +0.000 C 
ATOM     33  C   UNL     1       4.123   3.550  11.487  0.00  0.00    +0.000 C 
ENDBRANCH  31  33
ENDBRANCH  30  31
ENDBRANCH  29  30
ENDBRANCH  27  29
ENDBRANCH  26  27
ENDBRANCH  24  26
ENDBRANCH   1  24
TORSDOF 12
ENDMDL
MODEL 9
REMARK VINA RESULT:      -7.3      1.633      5.595
REMARK  Name = 
REMARK  18 active torsions:
REMARK  status: ('A' for Active; 'I' for Inactive)
REMARK    1  A    between atoms: C_1  and  C_2
REMARK    2  A    between atoms: C_2  and  C_3
REMARK    3  A    between atoms: C_3  and  C_4
REMARK    4  A    between atoms: C_4  and  C_5
REMARK    5  A    between atoms: C_5  and  C_6
REMARK    6  A    between atoms: C_6  and  C_7
REMARK    7  A    between atoms: C_6  and  O_8
REMARK    8  A    between atoms: O_8  and  C_9
REMARK    9  A    between atoms: C_9  and  C_11
REMARK   10  A    between atoms: C_11  and  C_12
REMARK   11  A    between atoms: C_11  and  C_27
REMARK   12  A    between atoms: N_14  and  C_15
REMARK   13  A    between atoms: C_16  and  C_17
REMARK   14  A    between atoms: C_17  and  C_18
REMARK   15  A    between atoms: C_17  and  C_19
REMARK   16  A    between atoms: C_23  and  C_24
REMARK   17  A    between atoms: C_24  and  C_25
REMARK   18  A    between atoms: C_24  and  C_26
REMARK                            x       y       z     vdW  Elec       q    Type
REMARK                         _______ _______ _______ _____ _____    ______ ____
ROOT
ATOM      1  C   UNL     1       5.524   5.680  16.316  0.00  0.00    +0.000 C 
ENDROOT
BRANCH   1   2
ATOM      2  C   UNL     1       6.566   6.378  17.204  0.00  0.00    +0.000 A 
ATOM      3  C   UNL     1       7.210   5.680  18.246  0.00  0.00    +0.000 A 
ATOM      4  C   UNL     1       8.149   6.309  19.069  0.00  0.00    +0.000 A 
ATOM      5  C   UNL     1       8.484   7.640  18.852  0.00  0.00    +0.000 A 
ATOM      6  C   UNL     1       7.903   8.335  17.793  0.00  0.00    +0.000 A 
ATOM      7  C   UNL     1       6.970   7.703  16.964  0.00  0.00    +0.000 A 
ENDBRANCH   1   2
BRANCH   1   8
ATOM      8  C   UNL     1       4.376   5.027  17.087  0.00  0.00    +0.000 C 
ATOM      9  O   UNL     1       3.546   4.334  16.502  0.00  0.00    +0.000 OA
ATOM     10  N   UNL     1       4.345   5.325  18.447  0.00  0.00    +0.000 N 
ATOM     11  H   UNL     1       4.779   6.208  18.696  0.00  0.00    +0.000 HD
BRANCH  10  12
ATOM     12  C   UNL     1       3.320   4.859  19.309  0.00  0.00    +0.000 A 
ATOM     13  C   UNL     1       3.222   3.484  19.655  0.00  0.00    +0.000 A 
ATOM     14  C   UNL     1       2.159   3.075  20.491  0.00  0.00    +0.000 A 
ATOM     15  C   UNL     1       1.278   3.996  21.045  0.00  0.00    +0.000 A 
ATOM     16  C   UNL     1       1.427   5.345  20.762  0.00  0.00    +0.000 A 
ATOM     17  C   UNL     1       2.424   5.809  19.880  0.00  0.00    +0.000 A 
BRANCH  13  18
ATOM     18  C   UNL     1       4.260   2.424  19.270  0.00  0.00    +0.000 C 
ATOM     19  C   UNL     1       4.817   1.692  20.507  0.00  0.00    +0.000 C 
ATOM     20  C   UNL     1       3.701   1.390  18.286  0.00  0.00    +0.000 C 
ENDBRANCH  13  18
BRANCH  17  21
ATOM     21  C   UNL     1       2.412   7.295  19.522  0.00  0.00    +0.000 C 
ATOM     22  C   UNL     1       1.928   7.517  18.080  0.00  0.00    +0.000 C 
ATOM     23  C   UNL     1       1.566   8.124  20.496  0.00  0.00    +0.000 C 
ENDBRANCH  17  21
ENDBRANCH  10  12
ENDBRANCH   1   8
BRANCH   1  24
ATOM     24  C   UNL     1       6.112   4.631  15.392  0.00  0.00    +0.000 C 
ATOM     25  O   UNL     1       6.417   3.495  15.748  0.00  0.00    +0.000 OA
BRANCH  24  26
ATOM     26  O   UNL     1       6.215   5.085  14.109  0.00  0.00    +0.000 OA
BRANCH  26  27
ATOM     27  C   UNL     1       7.334   4.563  13.362  0.00  0.00    +0.000 C 
ATOM     28  C   UNL     1       7.739   5.614  12.332  0.00  0.00    +0.000 C 
BRANCH  27  29
ATOM     29  C   UNL     1       6.929   3.234  12.702  0.00  0.00    +0.000 C 
BRANCH  29  30
ATOM     30  C   UNL     1       5.485   3.248  12.207  0.00  0.00    +0.000 C 
BRANCH  30  31
ATOM     31  C   UNL     1       5.244   2.209  11.114  0.00  0.00    +0.000 C 
BRANCH  31  33
ATOM     32  C   UNL     1       6.094  -0.153  11.339  0.00  0.00    +0.000 C 
ATOM     33  C   UNL     1       6.451   1.281  10.991  0.00  0.00    +0.000 C 
ENDBRANCH  31  33
ENDBRANCH  30  31
ENDBRANCH  29  30
ENDBRANCH  27  29
ENDBRANCH  26  27
ENDBRANCH  24  26
ENDBRANCH   1  24
TORSDOF 12
ENDMDL
