MODEL 1
REMARK VINA RESULT:      -7.6      0.000      0.000
REMARK  Name = 
REMARK  8 active torsions:
REMARK  status: ('A' for Active; 'I' for Inactive)
REMARK    1  A    between atoms: C_1  and  C_2
REMARK    2  A    between atoms: C_5  and  O_6
REMARK    3  A    between atoms: O_6  and  C_7
REMARK    4  A    between atoms: C_9  and  C_10
REMARK    5  A    between atoms: C_11  and  C_12
REMARK    6  A    between atoms: C_16  and  C_17
REMARK    7  A    between atoms: C_17  and  C_18
REMARK    8  A    between atoms: C_18  and  O_20
REMARK                            x       y       z     vdW  Elec       q    Type
REMARK                         _______ _______ _______ _____ _____    ______ ____
ROOT
ATOM      1  C   UNL     1       7.045   4.365  13.216  0.00  0.00    +0.000 C 
ATOM      2  C   UNL     1       6.555   4.826  14.557  0.00  0.00    +0.000 A 
ATOM      3  C   UNL     1       5.372   5.547  14.670  0.00  0.00    +0.000 A 
ATOM      4  C   UNL     1       4.936   5.972  15.920  0.00  0.00    +0.000 A 
ATOM      5  C   UNL     1       5.619   5.602  17.092  0.00  0.00    +0.000 A 
ATOM      6  C   UNL     1       6.849   4.923  16.997  0.00  0.00    +0.000 A 
ATOM      7  C   UNL     1       7.309   4.567  15.711  0.00  0.00    +0.000 A 
ENDROOT
BRANCH   5   8
ATOM      8  O   UNL     1       5.117   5.901  18.356  0.00  0.00    +0.000 OA
BRANCH   8   9
ATOM      9  C   UNL     1       4.093   5.106  18.848  0.00  0.00    +0.000 A 
ATOM     10  C   UNL     1       4.222   3.709  18.909  0.00  0.00    +0.000 A 
ATOM     11  C   UNL     1       3.110   2.889  19.149  0.00  0.00    +0.000 A 
ATOM     12  C   UNL     1       3.257   1.412  18.907  0.00  0.00    +0.000 C 
ATOM     13  C   UNL     1       1.885   3.478  19.514  0.00  0.00    +0.000 A 
ATOM     14  C   UNL     1       0.657   2.670  19.835  0.00  0.00    +0.000 C 
ATOM     15  C   UNL     1       1.798   4.883  19.589  0.00  0.00    +0.000 A 
ATOM     16  C   UNL     1       2.887   5.691  19.238  0.00  0.00    +0.000 A 
ATOM     17 CL   UNL     1       2.678   7.406  19.256  0.00  0.00    +0.000 Cl
ENDBRANCH   8   9
ENDBRANCH   5   8
BRANCH   6  18
ATOM     18  C   UNL     1       7.723   4.698  18.218  0.00  0.00    +0.000 C 
BRANCH  18  19
ATOM     19  C   UNL     1       8.003   5.892  19.118  0.00  0.00    +0.000 C 
ATOM     20  O   UNL     1       8.293   7.025  18.768  0.00  0.00    +0.000 OA
BRANCH  19  21
ATOM     21  O   UNL     1       7.908   5.572  20.436  0.00  0.00    +0.000 OA
ATOM     22  H   UNL     1       7.175   4.964  20.649  0.00  0.00    +0.000 HD
ENDBRANCH  19  21
ENDBRANCH  18  19
ENDBRANCH   6  18
TORSDOF 5
ENDMDL
MODEL 2
REMARK VINA RESULT:      -7.4      2.488      3.983
REMARK  Name = 
REMARK  8 active torsions:
REMARK  status: ('A' for Active; 'I' for Inactive)
REMARK    1  A    between atoms: C_1  and  C_2
REMARK    2  A    between atoms: C_5  and  O_6
REMARK    3  A    between atoms: O_6  and  C_7
REMARK    4  A    between atoms: C_9  and  C_10
REMARK    5  A    between atoms: C_11  and  C_12
REMARK    6  A    between atoms: C_16  and  C_17
REMARK    7  A    between atoms: C_17  and  C_18
REMARK    8  A    between atoms: C_18  and  O_20
REMARK                            x       y       z     vdW  Elec       q    Type
REMARK                         _______ _______ _______ _____ _____    ______ ____
ROOT
ATOM      1  C   UNL     1       8.527   8.628  18.188  0.00  0.00    +0.000 C 
ATOM      2  C   UNL     1       7.795   7.327  18.035  0.00  0.00    +0.000 A 
ATOM      3  C   UNL     1       7.751   6.411  19.080  0.00  0.00    +0.000 A 
ATOM      4  C   UNL     1       7.074   5.208  18.919  0.00  0.00    +0.000 A 
ATOM      5  C   UNL     1       6.345   4.935  17.748  0.00  0.00    +0.000 A 
ATOM      6  C   UNL     1       6.425   5.820  16.656  0.00  0.00    +0.000 A 
ATOM      7  C   UNL     1       7.179   7.001  16.817  0.00  0.00    +0.000 A 
ENDROOT
BRANCH   5   8
ATOM      8  O   UNL     1       5.550   3.798  17.631  0.00  0.00    +0.000 OA
BRANCH   8   9
ATOM      9  C   UNL     1       4.282   3.837  18.192  0.00  0.00    +0.000 A 
ATOM     10  C   UNL     1       3.691   5.053  18.571  0.00  0.00    +0.000 A 
ATOM     11  C   UNL     1       2.541   5.080  19.373  0.00  0.00    +0.000 A 
ATOM     12  C   UNL     1       2.137   6.393  19.983  0.00  0.00    +0.000 C 
ATOM     13  C   UNL     1       1.865   3.876  19.650  0.00  0.00    +0.000 A 
ATOM     14  C   UNL     1       0.600   3.822  20.461  0.00  0.00    +0.000 C 
ATOM     15  C   UNL     1       2.388   2.668  19.147  0.00  0.00    +0.000 A 
ATOM     16  C   UNL     1       3.598   2.646  18.441  0.00  0.00    +0.000 A 
ATOM     17 CL   UNL     1       4.231   1.118  17.941  0.00  0.00    +0.000 Cl
ENDBRANCH   8   9
ENDBRANCH   5   8
BRANCH   6  18
ATOM     18  C   UNL     1       5.835   5.460  15.304  0.00  0.00    +0.000 C 
BRANCH  18  19
ATOM     19  C   UNL     1       6.757   4.820  14.277  0.00  0.00    +0.000 C 
ATOM     20  O   UNL     1       7.709   5.340  13.718  0.00  0.00    +0.000 OA
BRANCH  19  21
ATOM     21  O   UNL     1       6.406   3.535  14.007  0.00  0.00    +0.000 OA
ATOM     22  H   UNL     1       7.104   2.880  14.196  0.00  0.00    +0.000 HD
ENDBRANCH  19  21
ENDBRANCH  18  19
ENDBRANCH   6  18
TORSDOF 5
ENDMDL
MODEL 3
REMARK VINA RESULT:      -7.4      1.876      2.714
REMARK  Name = 
REMARK  8 active torsions:
REMARK  status: ('A' for Active; 'I' for Inactive)
REMARK    1  A    between atoms: C_1  and  C_2
REMARK    2  A    between atoms: C_5  and  O_6
REMARK    3  A    between atoms: O_6  and  C_7
REMARK    4  A    between atoms: C_9  and  C_10
REMARK    5  A    between atoms: C_11  and  C_12
REMARK    6  A    between atoms: C_16  and  C_17
REMARK    7  A    between atoms: C_17  and  C_18
REMARK    8  A    between atoms: C_18  and  O_20
REMARK                            x       y       z     vdW  Elec       q    Type
REMARK                         _______ _______ _______ _____ _____    ______ ____
ROOT
ATOM      1  C   UNL     1       7.629   5.164  12.790  0.00  0.00    +0.000 C 
ATOM      2  C   UNL     1       6.919   4.837  14.071  0.00  0.00    +0.000 A 
ATOM      3  C   UNL     1       5.648   4.274  14.053  0.00  0.00    +0.000 A 
ATOM      4  C   UNL     1       5.002   3.983  15.249  0.00  0.00    +0.000 A 
ATOM      5  C   UNL     1       5.649   4.156  16.486  0.00  0.00    +0.000 A 
ATOM      6  C   UNL     1       6.912   4.779  16.530  0.00  0.00    +0.000 A 
ATOM      7  C   UNL     1       7.516   5.134  15.305  0.00  0.00    +0.000 A 
ENDROOT
BRANCH   5   8
ATOM      8  O   UNL     1       5.068   3.739  17.679  0.00  0.00    +0.000 OA
BRANCH   8   9
ATOM      9  C   UNL     1       4.122   4.570  18.262  0.00  0.00    +0.000 A 
ATOM     10  C   UNL     1       3.780   5.801  17.680  0.00  0.00    +0.000 A 
ATOM     11  C   UNL     1       3.036   6.755  18.390  0.00  0.00    +0.000 A 
ATOM     12  C   UNL     1       2.960   8.149  17.832  0.00  0.00    +0.000 C 
ATOM     13  C   UNL     1       2.470   6.405  19.630  0.00  0.00    +0.000 A 
ATOM     14  C   UNL     1       1.620   7.351  20.434  0.00  0.00    +0.000 C 
ATOM     15  C   UNL     1       2.702   5.113  20.146  0.00  0.00    +0.000 A 
ATOM     16  C   UNL     1       3.538   4.211  19.477  0.00  0.00    +0.000 A 
ATOM     17 CL   UNL     1       3.858   2.683  20.218  0.00  0.00    +0.000 Cl
ENDBRANCH   8   9
ENDBRANCH   5   8
BRANCH   6  18
ATOM     18  C   UNL     1       7.546   5.182  17.849  0.00  0.00    +0.000 C 
BRANCH  18  19
ATOM     19  C   UNL     1       7.648   6.668  18.162  0.00  0.00    +0.000 C 
ATOM     20  O   UNL     1       7.094   7.583  17.573  0.00  0.00    +0.000 OA
BRANCH  19  21
ATOM     21  O   UNL     1       8.467   6.912  19.218  0.00  0.00    +0.000 OA
ATOM     22  H   UNL     1       8.824   7.820  19.247  0.00  0.00    +0.000 HD
ENDBRANCH  19  21
ENDBRANCH  18  19
ENDBRANCH   6  18
TORSDOF 5
ENDMDL
MODEL 4
REMARK VINA RESULT:      -7.3      4.348      6.701
REMARK  Name = 
REMARK  8 active torsions:
REMARK  status: ('A' for Active; 'I' for Inactive)
REMARK    1  A    between atoms: C_1  and  C_2
REMARK    2  A    between atoms: C_5  and  O_6
REMARK    3  A    between atoms: O_6  and  C_7
REMARK    4  A    between atoms: C_9  and  C_10
REMARK    5  A    between atoms: C_11  and  C_12
REMARK    6  A    between atoms: C_16  and  C_17
REMARK    7  A    between atoms: C_17  and  C_18
REMARK    8  A    between atoms: C_18  and  O_20
REMARK                            x       y       z     vdW  Elec       q    Type
REMARK                         _______ _______ _______ _____ _____    ______ ____
ROOT
ATOM      1  C   UNL     1      -1.285  11.653  18.538  0.00  0.00    +0.000 C 
ATOM      2  C   UNL     1      -0.292  10.564  18.819  0.00  0.00    +0.000 A 
ATOM      3  C   UNL     1       0.332   9.886  17.777  0.00  0.00    +0.000 A 
ATOM      4  C   UNL     1       1.244   8.875  18.056  0.00  0.00    +0.000 A 
ATOM      5  C   UNL     1       1.627   8.585  19.378  0.00  0.00    +0.000 A 
ATOM      6  C   UNL     1       0.965   9.217  20.449  0.00  0.00    +0.000 A 
ATOM      7  C   UNL     1      -0.011  10.188  20.141  0.00  0.00    +0.000 A 
ENDROOT
BRANCH   5   8
ATOM      8  O   UNL     1       2.640   7.674  19.662  0.00  0.00    +0.000 OA
BRANCH   8   9
ATOM      9  C   UNL     1       2.485   6.373  19.206  0.00  0.00    +0.000 A 
ATOM     10  C   UNL     1       1.659   5.460  19.880  0.00  0.00    +0.000 A 
ATOM     11  C   UNL     1       1.705   4.089  19.588  0.00  0.00    +0.000 A 
ATOM     12  C   UNL     1       1.025   3.142  20.537  0.00  0.00    +0.000 C 
ATOM     13  C   UNL     1       2.453   3.646  18.481  0.00  0.00    +0.000 A 
ATOM     14  C   UNL     1       2.517   2.200  18.069  0.00  0.00    +0.000 C 
ATOM     15  C   UNL     1       3.171   4.589  17.719  0.00  0.00    +0.000 A 
ATOM     16  C   UNL     1       3.204   5.939  18.091  0.00  0.00    +0.000 A 
ATOM     17 CL   UNL     1       4.185   7.022  17.170  0.00  0.00    +0.000 Cl
ENDBRANCH   8   9
ENDBRANCH   5   8
BRANCH   6  18
ATOM     18  C   UNL     1       1.191   8.778  21.884  0.00  0.00    +0.000 C 
BRANCH  18  19
ATOM     19  C   UNL     1       0.132   9.143  22.913  0.00  0.00    +0.000 C 
ATOM     20  O   UNL     1       0.225   9.976  23.801  0.00  0.00    +0.000 OA
BRANCH  19  21
ATOM     21  O   UNL     1      -1.004   8.412  22.758  0.00  0.00    +0.000 OA
ATOM     22  H   UNL     1      -1.239   8.229  21.829  0.00  0.00    +0.000 HD
ENDBRANCH  19  21
ENDBRANCH  18  19
ENDBRANCH   6  18
TORSDOF 5
ENDMDL
MODEL 5
REMARK VINA RESULT:      -7.3      1.829      2.766
REMARK  Name = 
REMARK  8 active torsions:
REMARK  status: ('A' for Active; 'I' for Inactive)
REMARK    1  A    between atoms: C_1  and  C_2
REMARK    2  A    between atoms: C_5  and  O_6
REMARK    3  A    between atoms: O_6  and  C_7
REMARK    4  A    between atoms: C_9  and  C_10
REMARK    5  A    between atoms: C_11  and  C_12
REMARK    6  A    between atoms: C_16  and  C_17
REMARK    7  A    between atoms: C_17  and  C_18
REMARK    8  A    between atoms: C_18  and  O_20
REMARK                            x       y       z     vdW  Elec       q    Type
REMARK                         _______ _______ _______ _____ _____    ______ ____
ROOT
ATOM      1  C   UNL     1       7.660   5.146  13.963  0.00  0.00    +0.000 C 
ATOM      2  C   UNL     1       6.694   4.838  15.068  0.00  0.00    +0.000 A 
ATOM      3  C   UNL     1       5.433   4.327  14.784  0.00  0.00    +0.000 A 
ATOM      4  C   UNL     1       4.547   4.053  15.820  0.00  0.00    +0.000 A 
ATOM      5  C   UNL     1       4.936   4.190  17.164  0.00  0.00    +0.000 A 
ATOM      6  C   UNL     1       6.186   4.761  17.473  0.00  0.00    +0.000 A 
ATOM      7  C   UNL     1       7.039   5.101  16.402  0.00  0.00    +0.000 A 
ENDROOT
BRANCH   5   8
ATOM      8  O   UNL     1       4.109   3.787  18.209  0.00  0.00    +0.000 OA
BRANCH   8   9
ATOM      9  C   UNL     1       3.280   4.741  18.781  0.00  0.00    +0.000 A 
ATOM     10  C   UNL     1       3.040   5.970  18.147  0.00  0.00    +0.000 A 
ATOM     11  C   UNL     1       2.431   7.032  18.831  0.00  0.00    +0.000 A 
ATOM     12  C   UNL     1       2.473   8.396  18.200  0.00  0.00    +0.000 C 
ATOM     13  C   UNL     1       1.888   6.806  20.110  0.00  0.00    +0.000 A 
ATOM     14  C   UNL     1       1.177   7.876  20.893  0.00  0.00    +0.000 C 
ATOM     15  C   UNL     1       2.009   5.525  20.687  0.00  0.00    +0.000 A 
ATOM     16  C   UNL     1       2.718   4.507  20.037  0.00  0.00    +0.000 A 
ATOM     17 CL   UNL     1       2.912   2.994  20.847  0.00  0.00    +0.000 Cl
ENDBRANCH   8   9
ENDBRANCH   5   8
BRANCH   6  18
ATOM     18  C   UNL     1       6.554   5.128  18.899  0.00  0.00    +0.000 C 
BRANCH  18  19
ATOM     19  C   UNL     1       7.837   5.916  19.120  0.00  0.00    +0.000 C 
ATOM     20  O   UNL     1       8.175   6.944  18.554  0.00  0.00    +0.000 OA
BRANCH  19  21
ATOM     21  O   UNL     1       8.637   5.338  20.055  0.00  0.00    +0.000 OA
ATOM     22  H   UNL     1       8.266   4.529  20.455  0.00  0.00    +0.000 HD
ENDBRANCH  19  21
ENDBRANCH  18  19
ENDBRANCH   6  18
TORSDOF 5
ENDMDL
MODEL 6
REMARK VINA RESULT:      -7.2      1.110      1.277
REMARK  Name = 
REMARK  8 active torsions:
REMARK  status: ('A' for Active; 'I' for Inactive)
REMARK    1  A    between atoms: C_1  and  C_2
REMARK    2  A    between atoms: C_5  and  O_6
REMARK    3  A    between atoms: O_6  and  C_7
REMARK    4  A    between atoms: C_9  and  C_10
REMARK    5  A    between atoms: C_11  and  C_12
REMARK    6  A    between atoms: C_16  and  C_17
REMARK    7  A    between atoms: C_17  and  C_18
REMARK    8  A    between atoms: C_18  and  O_20
REMARK                            x       y       z     vdW  Elec       q    Type
REMARK                         _______ _______ _______ _____ _____    ______ ____
ROOT
ATOM      1  C   UNL     1       6.598   3.737  13.419  0.00  0.00    +0.000 C 
ATOM      2  C   UNL     1       6.095   4.417  14.658  0.00  0.00    +0.000 A 
ATOM      3  C   UNL     1       4.792   4.213  15.099  0.00  0.00    +0.000 A 
ATOM      4  C   UNL     1       4.340   4.856  16.245  0.00  0.00    +0.000 A 
ATOM      5  C   UNL     1       5.207   5.638  17.030  0.00  0.00    +0.000 A 
ATOM      6  C   UNL     1       6.511   5.905  16.571  0.00  0.00    +0.000 A 
ATOM      7  C   UNL     1       6.924   5.301  15.365  0.00  0.00    +0.000 A 
ENDROOT
BRANCH   5   8
ATOM      8  O   UNL     1       4.806   6.172  18.251  0.00  0.00    +0.000 OA
BRANCH   8   9
ATOM      9  C   UNL     1       4.139   5.334  19.133  0.00  0.00    +0.000 A 
ATOM     10  C   UNL     1       4.618   4.045  19.415  0.00  0.00    +0.000 A 
ATOM     11  C   UNL     1       3.820   3.106  20.085  0.00  0.00    +0.000 A 
ATOM     12  C   UNL     1       4.271   1.672  20.091  0.00  0.00    +0.000 C 
ATOM     13  C   UNL     1       2.595   3.516  20.644  0.00  0.00    +0.000 A 
ATOM     14  C   UNL     1       1.701   2.586  21.418  0.00  0.00    +0.000 C 
ATOM     15  C   UNL     1       2.183   4.854  20.478  0.00  0.00    +0.000 A 
ATOM     16  C   UNL     1       2.938   5.750  19.711  0.00  0.00    +0.000 A 
ATOM     17 CL   UNL     1       2.322   7.346  19.466  0.00  0.00    +0.000 Cl
ENDBRANCH   8   9
ENDBRANCH   5   8
BRANCH   6  18
ATOM     18  C   UNL     1       7.402   6.916  17.271  0.00  0.00    +0.000 C 
BRANCH  18  19
ATOM     19  C   UNL     1       8.001   6.523  18.613  0.00  0.00    +0.000 C 
ATOM     20  O   UNL     1       7.907   5.442  19.172  0.00  0.00    +0.000 OA
BRANCH  19  21
ATOM     21  O   UNL     1       8.692   7.546  19.183  0.00  0.00    +0.000 OA
ATOM     22  H   UNL     1       9.558   7.289  19.551  0.00  0.00    +0.000 HD
ENDBRANCH  19  21
ENDBRANCH  18  19
ENDBRANCH   6  18
TORSDOF 5
ENDMDL
MODEL 7
REMARK VINA RESULT:      -7.2      2.403      6.160
REMARK  Name = 
REMARK  8 active torsions:
REMARK  status: ('A' for Active; 'I' for Inactive)
REMARK    1  A    between atoms: C_1  and  C_2
REMARK    2  A    between atoms: C_5  and  O_6
REMARK    3  A    between atoms: O_6  and  C_7
REMARK    4  A    between atoms: C_9  and  C_10
REMARK    5  A    between atoms: C_11  and  C_12
REMARK    6  A    between atoms: C_16  and  C_17
REMARK    7  A    between atoms: C_17  and  C_18
REMARK    8  A    between atoms: C_18  and  O_20
REMARK                            x       y       z     vdW  Elec       q    Type
REMARK                         _______ _______ _______ _____ _____    ______ ____
ROOT
ATOM      1  C   UNL     1       1.270   7.463  20.778  0.00  0.00    +0.000 C 
ATOM      2  C   UNL     1       2.189   6.534  20.042  0.00  0.00    +0.000 A 
ATOM      3  C   UNL     1       2.991   7.002  19.006  0.00  0.00    +0.000 A 
ATOM      4  C   UNL     1       3.832   6.126  18.330  0.00  0.00    +0.000 A 
ATOM      5  C   UNL     1       3.965   4.786  18.737  0.00  0.00    +0.000 A 
ATOM      6  C   UNL     1       3.121   4.277  19.744  0.00  0.00    +0.000 A 
ATOM      7  C   UNL     1       2.222   5.169  20.365  0.00  0.00    +0.000 A 
ENDROOT
BRANCH   5   8
ATOM      8  O   UNL     1       4.905   3.937  18.160  0.00  0.00    +0.000 OA
BRANCH   8   9
ATOM      9  C   UNL     1       5.522   4.357  16.991  0.00  0.00    +0.000 A 
ATOM     10  C   UNL     1       4.929   4.139  15.737  0.00  0.00    +0.000 A 
ATOM     11  C   UNL     1       5.657   4.314  14.551  0.00  0.00    +0.000 A 
ATOM     12  C   UNL     1       5.065   3.784  13.275  0.00  0.00    +0.000 C 
ATOM     13  C   UNL     1       6.939   4.892  14.609  0.00  0.00    +0.000 A 
ATOM     14  C   UNL     1       7.767   5.159  13.382  0.00  0.00    +0.000 C 
ATOM     15  C   UNL     1       7.475   5.240  15.865  0.00  0.00    +0.000 A 
ATOM     16  C   UNL     1       6.781   4.956  17.048  0.00  0.00    +0.000 A 
ATOM     17 CL   UNL     1       7.542   5.319  18.556  0.00  0.00    +0.000 Cl
ENDBRANCH   8   9
ENDBRANCH   5   8
BRANCH   6  18
ATOM     18  C   UNL     1       3.078   2.793  20.061  0.00  0.00    +0.000 C 
BRANCH  18  19
ATOM     19  C   UNL     1       2.410   1.872  19.051  0.00  0.00    +0.000 C 
ATOM     20  O   UNL     1       1.214   1.770  18.828  0.00  0.00    +0.000 OA
BRANCH  19  21
ATOM     21  O   UNL     1       3.313   1.112  18.377  0.00  0.00    +0.000 OA
ATOM     22  H   UNL     1       2.971   0.723  17.549  0.00  0.00    +0.000 HD
ENDBRANCH  19  21
ENDBRANCH  18  19
ENDBRANCH   6  18
TORSDOF 5
ENDMDL
MODEL 8
REMARK VINA RESULT:      -7.0      2.585      4.352
REMARK  Name = 
REMARK  8 active torsions:
REMARK  status: ('A' for Active; 'I' for Inactive)
REMARK    1  A    between atoms: C_1  and  C_2
REMARK    2  A    between atoms: C_5  and  O_6
REMARK    3  A    between atoms: O_6  and  C_7
REMARK    4  A    between atoms: C_9  and  C_10
REMARK    5  A    between atoms: C_11  and  C_12
REMARK    6  A    between atoms: C_16  and  C_17
REMARK    7  A    between atoms: C_17  and  C_18
REMARK    8  A    between atoms: C_18  and  O_20
REMARK                            x       y       z     vdW  Elec       q    Type
REMARK                         _______ _______ _______ _____ _____    ______ ____
ROOT
ATOM      1  C   UNL     1       7.046   4.756  14.469  0.00  0.00    +0.000 C 
ATOM      2  C   UNL     1       6.283   4.643  15.756  0.00  0.00    +0.000 A 
ATOM      3  C   UNL     1       6.812   5.144  16.940  0.00  0.00    +0.000 A 
ATOM      4  C   UNL     1       6.094   5.026  18.124  0.00  0.00    +0.000 A 
ATOM      5  C   UNL     1       4.792   4.495  18.136  0.00  0.00    +0.000 A 
ATOM      6  C   UNL     1       4.261   3.929  16.961  0.00  0.00    +0.000 A 
ATOM      7  C   UNL     1       5.039   3.994  15.786  0.00  0.00    +0.000 A 
ENDROOT
BRANCH   5   8
ATOM      8  O   UNL     1       4.011   4.499  19.288  0.00  0.00    +0.000 OA
BRANCH   8   9
ATOM      9  C   UNL     1       3.109   5.540  19.451  0.00  0.00    +0.000 A 
ATOM     10  C   UNL     1       3.060   6.610  18.543  0.00  0.00    +0.000 A 
ATOM     11  C   UNL     1       2.350   7.782  18.842  0.00  0.00    +0.000 A 
ATOM     12  C   UNL     1       2.580   8.988  17.974  0.00  0.00    +0.000 C 
ATOM     13  C   UNL     1       1.525   7.816  19.982  0.00  0.00    +0.000 A 
ATOM     14  C   UNL     1       0.693   9.015  20.349  0.00  0.00    +0.000 C 
ATOM     15  C   UNL     1       1.469   6.683  20.818  0.00  0.00    +0.000 A 
ATOM     16  C   UNL     1       2.270   5.562  20.566  0.00  0.00    +0.000 A 
ATOM     17 CL   UNL     1       2.224   4.249  21.689  0.00  0.00    +0.000 Cl
ENDBRANCH   8   9
ENDBRANCH   5   8
BRANCH   6  18
ATOM     18  C   UNL     1       2.956   3.153  16.979  0.00  0.00    +0.000 C 
BRANCH  18  19
ATOM     19  C   UNL     1       2.839   1.985  17.947  0.00  0.00    +0.000 C 
ATOM     20  O   UNL     1       3.697   1.155  18.204  0.00  0.00    +0.000 OA
BRANCH  19  21
ATOM     21  O   UNL     1       1.616   1.931  18.537  0.00  0.00    +0.000 OA
ATOM     22  H   UNL     1       0.991   2.612  18.227  0.00  0.00    +0.000 HD
ENDBRANCH  19  21
ENDBRANCH  18  19
ENDBRANCH   6  18
TORSDOF 5
ENDMDL
MODEL 9
REMARK VINA RESULT:      -7.0      2.265      5.896
REMARK  Name = 
REMARK  8 active torsions:
REMARK  status: ('A' for Active; 'I' for Inactive)
REMARK    1  A    between atoms: C_1  and  C_2
REMARK    2  A    between atoms: C_5  and  O_6
REMARK    3  A    between atoms: O_6  and  C_7
REMARK    4  A    between atoms: C_9  and  C_10
REMARK    5  A    between atoms: C_11  and  C_12
REMARK    6  A    between atoms: C_16  and  C_17
REMARK    7  A    between atoms: C_17  and  C_18
REMARK    8  A    between atoms: C_18  and  O_20
REMARK                            x       y       z     vdW  Elec       q    Type
REMARK                         _______ _______ _______ _____ _____    ______ ____
ROOT
ATOM      1  C   UNL     1       1.365   7.612  20.772  0.00  0.00    +0.000 C 
ATOM      2  C   UNL     1       2.161   6.620  19.978  0.00  0.00    +0.000 A 
ATOM      3  C   UNL     1       2.847   7.014  18.834  0.00  0.00    +0.000 A 
ATOM      4  C   UNL     1       3.574   6.080  18.106  0.00  0.00    +0.000 A 
ATOM      5  C   UNL     1       3.713   4.755  18.556  0.00  0.00    +0.000 A 
ATOM      6  C   UNL     1       2.980   4.320  19.677  0.00  0.00    +0.000 A 
ATOM      7  C   UNL     1       2.189   5.270  20.358  0.00  0.00    +0.000 A 
ENDROOT
BRANCH   5   8
ATOM      8  O   UNL     1       4.551   3.849  17.913  0.00  0.00    +0.000 OA
BRANCH   8   9
ATOM      9  C   UNL     1       5.272   4.302  16.818  0.00  0.00    +0.000 A 
ATOM     10  C   UNL     1       4.836   4.053  15.506  0.00  0.00    +0.000 A 
ATOM     11  C   UNL     1       5.682   4.268  14.409  0.00  0.00    +0.000 A 
ATOM     12  C   UNL     1       5.267   3.707  13.077  0.00  0.00    +0.000 C 
ATOM     13  C   UNL     1       6.917   4.913  14.607  0.00  0.00    +0.000 A 
ATOM     14  C   UNL     1       7.862   5.225  13.479  0.00  0.00    +0.000 C 
ATOM     15  C   UNL     1       7.289   5.290  15.913  0.00  0.00    +0.000 A 
ATOM     16  C   UNL     1       6.483   4.967  17.012  0.00  0.00    +0.000 A 
ATOM     17 CL   UNL     1       7.050   5.370  18.594  0.00  0.00    +0.000 Cl
ENDBRANCH   8   9
ENDBRANCH   5   8
BRANCH   6  18
ATOM     18  C   UNL     1       2.930   2.853  20.066  0.00  0.00    +0.000 C 
BRANCH  18  19
ATOM     19  C   UNL     1       4.165   2.007  19.800  0.00  0.00    +0.000 C 
ATOM     20  O   UNL     1       5.190   1.973  20.462  0.00  0.00    +0.000 OA
BRANCH  19  21
ATOM     21  O   UNL     1       4.031   1.244  18.683  0.00  0.00    +0.000 OA
ATOM     22  H   UNL     1       3.151   0.835  18.580  0.00  0.00    +0.000 HD
ENDBRANCH  19  21
ENDBRANCH  18  19
ENDBRANCH   6  18
TORSDOF 5
ENDMDL
