MODEL 1
REMARK VINA RESULT:      -7.4      0.000      0.000
REMARK  Name = 
REMARK  9 active torsions:
REMARK  status: ('A' for Active; 'I' for Inactive)
REMARK    1  A    between atoms: C_1  and  C_2
REMARK    2  A    between atoms: C_2  and  C_3
REMARK    3  A    between atoms: C_2  and  C_4
REMARK    4  A    between atoms: C_9  and  S_10
REMARK    5  A    between atoms: S_10  and  C_11
REMARK    6  A    between atoms: C_11  and  C_12
REMARK    7  A    between atoms: C_12  and  N_13
REMARK    8  A    between atoms: N_16  and  C_17
REMARK    9  A    between atoms: N_16  and  O_18
REMARK                            x       y       z     vdW  Elec       q    Type
REMARK                         _______ _______ _______ _____ _____    ______ ____
ROOT
ATOM      1  C   UNL     1       5.867   3.607  12.297  0.00  0.00    +0.000 A 
ATOM      2  C   UNL     1       7.097   4.268  12.161  0.00  0.00    +0.000 A 
ATOM      3  C   UNL     1       7.675   4.965  13.230  0.00  0.00    +0.000 A 
ATOM      4  C   UNL     1       7.021   5.002  14.476  0.00  0.00    +0.000 A 
ATOM      5  N   UNL     1       7.492   5.622  15.624  0.00  0.00    +0.000 NA
ATOM      6  C   UNL     1       6.645   5.426  16.607  0.00  0.00    +0.000 A 
ATOM      7  S   UNL     1       5.230   4.546  16.221  0.00  0.00    +0.000 S 
ATOM      8  C   UNL     1       5.791   4.355  14.603  0.00  0.00    +0.000 A 
ATOM      9  C   UNL     1       5.195   3.666  13.530  0.00  0.00    +0.000 A 
ENDROOT
BRANCH   1  11
ATOM     10  C   UNL     1       5.807   1.322  11.291  0.00  0.00    +0.000 C 
ATOM     11  C   UNL     1       5.350   2.776  11.129  0.00  0.00    +0.000 C 
ATOM     12  C   UNL     1       3.833   2.829  10.925  0.00  0.00    +0.000 C 
ENDBRANCH   1  11
BRANCH   6  13
ATOM     13  S   UNL     1       6.941   6.047  18.219  0.00  0.00    +0.000 S 
BRANCH  13  14
ATOM     14  C   UNL     1       5.879   4.963  19.227  0.00  0.00    +0.000 C 
BRANCH  14  15
ATOM     15  C   UNL     1       4.456   5.510  19.341  0.00  0.00    +0.000 C 
BRANCH  15  16
ATOM     16  N   UNL     1       3.571   4.607  20.056  0.00  0.00    +0.000 N 
ATOM     17  C   UNL     1       2.323   4.292  19.600  0.00  0.00    +0.000 C 
ATOM     18  O   UNL     1       1.870   4.730  18.542  0.00  0.00    +0.000 OA
ATOM     19  N   UNL     1       1.577   3.460  20.390  0.00  0.00    +0.000 N 
ATOM     20  C   UNL     1       1.838   2.800  21.653  0.00  0.00    +0.000 C 
ATOM     21  H   UNL     1       3.911   4.203  20.911  0.00  0.00    +0.000 HD
BRANCH  19  22
ATOM     22  O   UNL     1       0.272   3.172  19.916  0.00  0.00    +0.000 OA
ATOM     23  H   UNL     1      -0.248   3.192  20.751  0.00  0.00    +0.000 HD
ENDBRANCH  19  22
ENDBRANCH  15  16
ENDBRANCH  14  15
ENDBRANCH  13  14
ENDBRANCH   6  13
TORSDOF 6
ENDMDL
MODEL 2
REMARK VINA RESULT:      -7.4      0.894      1.010
REMARK  Name = 
REMARK  9 active torsions:
REMARK  status: ('A' for Active; 'I' for Inactive)
REMARK    1  A    between atoms: C_1  and  C_2
REMARK    2  A    between atoms: C_2  and  C_3
REMARK    3  A    between atoms: C_2  and  C_4
REMARK    4  A    between atoms: C_9  and  S_10
REMARK    5  A    between atoms: S_10  and  C_11
REMARK    6  A    between atoms: C_11  and  C_12
REMARK    7  A    between atoms: C_12  and  N_13
REMARK    8  A    between atoms: N_16  and  C_17
REMARK    9  A    between atoms: N_16  and  O_18
REMARK                            x       y       z     vdW  Elec       q    Type
REMARK                         _______ _______ _______ _____ _____    ______ ____
ROOT
ATOM      1  C   UNL     1       5.903   3.611  12.401  0.00  0.00    +0.000 A 
ATOM      2  C   UNL     1       7.108   4.319  12.293  0.00  0.00    +0.000 A 
ATOM      3  C   UNL     1       7.661   4.993  13.390  0.00  0.00    +0.000 A 
ATOM      4  C   UNL     1       7.006   4.957  14.636  0.00  0.00    +0.000 A 
ATOM      5  N   UNL     1       7.456   5.547  15.808  0.00  0.00    +0.000 NA
ATOM      6  C   UNL     1       6.616   5.282  16.782  0.00  0.00    +0.000 A 
ATOM      7  S   UNL     1       5.234   4.368  16.359  0.00  0.00    +0.000 S 
ATOM      8  C   UNL     1       5.801   4.262  14.736  0.00  0.00    +0.000 A 
ATOM      9  C   UNL     1       5.229   3.596  13.635  0.00  0.00    +0.000 A 
ENDROOT
BRANCH   1  11
ATOM     10  C   UNL     1       5.877   1.354  11.333  0.00  0.00    +0.000 C 
ATOM     11  C   UNL     1       5.415   2.809  11.200  0.00  0.00    +0.000 C 
ATOM     12  C   UNL     1       3.903   2.860  10.965  0.00  0.00    +0.000 C 
ENDBRANCH   1  11
BRANCH   6  13
ATOM     13  S   UNL     1       6.891   5.847  18.418  0.00  0.00    +0.000 S 
BRANCH  13  14
ATOM     14  C   UNL     1       5.670   4.868  19.351  0.00  0.00    +0.000 C 
BRANCH  14  15
ATOM     15  C   UNL     1       4.309   5.563  19.404  0.00  0.00    +0.000 C 
BRANCH  15  16
ATOM     16  N   UNL     1       3.208   4.640  19.193  0.00  0.00    +0.000 N 
ATOM     17  C   UNL     1       2.386   4.236  20.206  0.00  0.00    +0.000 C 
ATOM     18  O   UNL     1       2.504   4.643  21.361  0.00  0.00    +0.000 OA
ATOM     19  N   UNL     1       1.412   3.333  19.878  0.00  0.00    +0.000 N 
ATOM     20  C   UNL     1       1.036   2.692  18.633  0.00  0.00    +0.000 C 
ATOM     21  H   UNL     1       3.056   4.303  18.257  0.00  0.00    +0.000 HD
BRANCH  19  22
ATOM     22  O   UNL     1       0.591   2.900  20.950  0.00  0.00    +0.000 OA
ATOM     23  H   UNL     1       1.263   2.627  21.613  0.00  0.00    +0.000 HD
ENDBRANCH  19  22
ENDBRANCH  15  16
ENDBRANCH  14  15
ENDBRANCH  13  14
ENDBRANCH   6  13
TORSDOF 6
ENDMDL
MODEL 3
REMARK VINA RESULT:      -7.3      4.041      8.114
REMARK  Name = 
REMARK  9 active torsions:
REMARK  status: ('A' for Active; 'I' for Inactive)
REMARK    1  A    between atoms: C_1  and  C_2
REMARK    2  A    between atoms: C_2  and  C_3
REMARK    3  A    between atoms: C_2  and  C_4
REMARK    4  A    between atoms: C_9  and  S_10
REMARK    5  A    between atoms: S_10  and  C_11
REMARK    6  A    between atoms: C_11  and  C_12
REMARK    7  A    between atoms: C_12  and  N_13
REMARK    8  A    between atoms: N_16  and  C_17
REMARK    9  A    between atoms: N_16  and  O_18
REMARK                            x       y       z     vdW  Elec       q    Type
REMARK                         _______ _______ _______ _____ _____    ______ ____
ROOT
ATOM      1  C   UNL     1       1.278   8.775  20.080  0.00  0.00    +0.000 A 
ATOM      2  C   UNL     1       1.673   9.147  18.787  0.00  0.00    +0.000 A 
ATOM      3  C   UNL     1       2.398   8.275  17.964  0.00  0.00    +0.000 A 
ATOM      4  C   UNL     1       2.735   6.991  18.430  0.00  0.00    +0.000 A 
ATOM      5  N   UNL     1       3.415   6.018  17.713  0.00  0.00    +0.000 NA
ATOM      6  C   UNL     1       3.523   4.932  18.443  0.00  0.00    +0.000 A 
ATOM      7  S   UNL     1       2.874   5.015  20.023  0.00  0.00    +0.000 S 
ATOM      8  C   UNL     1       2.351   6.629  19.722  0.00  0.00    +0.000 A 
ATOM      9  C   UNL     1       1.637   7.504  20.563  0.00  0.00    +0.000 A 
ENDROOT
BRANCH   1  11
ATOM     10  C   UNL     1       0.493   9.387  22.370  0.00  0.00    +0.000 C 
ATOM     11  C   UNL     1       0.397   9.727  20.880  0.00  0.00    +0.000 C 
ATOM     12  C   UNL     1       0.694  11.214  20.660  0.00  0.00    +0.000 C 
ENDBRANCH   1  11
BRANCH   6  13
ATOM     13  S   UNL     1       4.303   3.485  17.835  0.00  0.00    +0.000 S 
BRANCH  13  14
ATOM     14  C   UNL     1       4.729   3.987  16.136  0.00  0.00    +0.000 C 
BRANCH  14  15
ATOM     15  C   UNL     1       6.237   4.170  15.961  0.00  0.00    +0.000 C 
BRANCH  15  16
ATOM     16  N   UNL     1       6.709   5.429  16.511  0.00  0.00    +0.000 N 
ATOM     17  C   UNL     1       7.433   5.498  17.667  0.00  0.00    +0.000 C 
ATOM     18  O   UNL     1       7.756   4.500  18.311  0.00  0.00    +0.000 OA
ATOM     19  N   UNL     1       7.781   6.750  18.095  0.00  0.00    +0.000 N 
ATOM     20  C   UNL     1       7.552   8.077  17.559  0.00  0.00    +0.000 C 
ATOM     21  H   UNL     1       6.493   6.269  16.002  0.00  0.00    +0.000 HD
BRANCH  19  22
ATOM     22  O   UNL     1       8.502   6.803  19.315  0.00  0.00    +0.000 OA
ATOM     23  H   UNL     1       8.033   7.526  19.788  0.00  0.00    +0.000 HD
ENDBRANCH  19  22
ENDBRANCH  15  16
ENDBRANCH  14  15
ENDBRANCH  13  14
ENDBRANCH   6  13
TORSDOF 6
ENDMDL
MODEL 4
REMARK VINA RESULT:      -7.2      1.140      1.170
REMARK  Name = 
REMARK  9 active torsions:
REMARK  status: ('A' for Active; 'I' for Inactive)
REMARK    1  A    between atoms: C_1  and  C_2
REMARK    2  A    between atoms: C_2  and  C_3
REMARK    3  A    between atoms: C_2  and  C_4
REMARK    4  A    between atoms: C_9  and  S_10
REMARK    5  A    between atoms: S_10  and  C_11
REMARK    6  A    between atoms: C_11  and  C_12
REMARK    7  A    between atoms: C_12  and  N_13
REMARK    8  A    between atoms: N_16  and  C_17
REMARK    9  A    between atoms: N_16  and  O_18
REMARK                            x       y       z     vdW  Elec       q    Type
REMARK                         _______ _______ _______ _____ _____    ______ ____
ROOT
ATOM      1  C   UNL     1       5.839   3.648  12.304  0.00  0.00    +0.000 A 
ATOM      2  C   UNL     1       7.124   4.200  12.208  0.00  0.00    +0.000 A 
ATOM      3  C   UNL     1       7.728   4.843  13.298  0.00  0.00    +0.000 A 
ATOM      4  C   UNL     1       7.041   4.935  14.523  0.00  0.00    +0.000 A 
ATOM      5  N   UNL     1       7.530   5.511  15.687  0.00  0.00    +0.000 NA
ATOM      6  C   UNL     1       6.638   5.388  16.643  0.00  0.00    +0.000 A 
ATOM      7  S   UNL     1       5.165   4.634  16.210  0.00  0.00    +0.000 S 
ATOM      8  C   UNL     1       5.757   4.397  14.610  0.00  0.00    +0.000 A 
ATOM      9  C   UNL     1       5.136   3.764  13.517  0.00  0.00    +0.000 A 
ENDROOT
BRANCH   1  11
ATOM     10  C   UNL     1       5.736   1.404  11.214  0.00  0.00    +0.000 C 
ATOM     11  C   UNL     1       5.287   2.866  11.118  0.00  0.00    +0.000 C 
ATOM     12  C   UNL     1       3.767   2.939  10.952  0.00  0.00    +0.000 C 
ENDBRANCH   1  11
BRANCH   6  13
ATOM     13  S   UNL     1       6.938   5.978  18.266  0.00  0.00    +0.000 S 
BRANCH  13  14
ATOM     14  C   UNL     1       5.369   5.570  19.097  0.00  0.00    +0.000 C 
BRANCH  14  15
ATOM     15  C   UNL     1       5.248   4.071  19.375  0.00  0.00    +0.000 C 
BRANCH  15  16
ATOM     16  N   UNL     1       3.888   3.675  19.696  0.00  0.00    +0.000 N 
ATOM     17  C   UNL     1       3.223   2.707  18.999  0.00  0.00    +0.000 C 
ATOM     18  O   UNL     1       3.735   2.086  18.068  0.00  0.00    +0.000 OA
ATOM     19  N   UNL     1       1.932   2.459  19.380  0.00  0.00    +0.000 N 
ATOM     20  C   UNL     1       1.084   3.013  20.416  0.00  0.00    +0.000 C 
ATOM     21  H   UNL     1       3.440   4.136  20.469  0.00  0.00    +0.000 HD
BRANCH  19  22
ATOM     22  O   UNL     1       1.247   1.475  18.622  0.00  0.00    +0.000 OA
ATOM     23  H   UNL     1       0.706   2.034  18.021  0.00  0.00    +0.000 HD
ENDBRANCH  19  22
ENDBRANCH  15  16
ENDBRANCH  14  15
ENDBRANCH  13  14
ENDBRANCH   6  13
TORSDOF 6
ENDMDL
MODEL 5
REMARK VINA RESULT:      -7.0      4.369      8.365
REMARK  Name = 
REMARK  9 active torsions:
REMARK  status: ('A' for Active; 'I' for Inactive)
REMARK    1  A    between atoms: C_1  and  C_2
REMARK    2  A    between atoms: C_2  and  C_3
REMARK    3  A    between atoms: C_2  and  C_4
REMARK    4  A    between atoms: C_9  and  S_10
REMARK    5  A    between atoms: S_10  and  C_11
REMARK    6  A    between atoms: C_11  and  C_12
REMARK    7  A    between atoms: C_12  and  N_13
REMARK    8  A    between atoms: N_16  and  C_17
REMARK    9  A    between atoms: N_16  and  O_18
REMARK                            x       y       z     vdW  Elec       q    Type
REMARK                         _______ _______ _______ _____ _____    ______ ____
ROOT
ATOM      1  C   UNL     1       1.096   9.465  19.964  0.00  0.00    +0.000 A 
ATOM      2  C   UNL     1       1.466   9.592  18.618  0.00  0.00    +0.000 A 
ATOM      3  C   UNL     1       2.013   8.517  17.904  0.00  0.00    +0.000 A 
ATOM      4  C   UNL     1       2.191   7.274  18.540  0.00  0.00    +0.000 A 
ATOM      5  N   UNL     1       2.686   6.121  17.947  0.00  0.00    +0.000 NA
ATOM      6  C   UNL     1       2.680   5.143  18.822  0.00  0.00    +0.000 A 
ATOM      7  S   UNL     1       2.138   5.539  20.396  0.00  0.00    +0.000 S 
ATOM      8  C   UNL     1       1.833   7.155  19.883  0.00  0.00    +0.000 A 
ATOM      9  C   UNL     1       1.298   8.234  20.612  0.00  0.00    +0.000 A 
ENDROOT
BRANCH   1  11
ATOM     10  C   UNL     1       0.077  10.267  22.098  0.00  0.00    +0.000 C 
ATOM     11  C   UNL     1       0.405  10.638  20.648  0.00  0.00    +0.000 C 
ATOM     12  C   UNL     1       1.184  11.956  20.606  0.00  0.00    +0.000 C 
ENDBRANCH   1  11
BRANCH   6  13
ATOM     13  S   UNL     1       3.212   3.527  18.403  0.00  0.00    +0.000 S 
BRANCH  13  14
ATOM     14  C   UNL     1       4.820   3.440  19.256  0.00  0.00    +0.000 C 
BRANCH  14  15
ATOM     15  C   UNL     1       5.825   4.433  18.671  0.00  0.00    +0.000 C 
BRANCH  15  16
ATOM     16  N   UNL     1       6.007   4.260  17.241  0.00  0.00    +0.000 N 
ATOM     17  C   UNL     1       6.914   4.988  16.525  0.00  0.00    +0.000 C 
ATOM     18  O   UNL     1       7.655   5.823  17.042  0.00  0.00    +0.000 OA
ATOM     19  N   UNL     1       6.956   4.753  15.177  0.00  0.00    +0.000 N 
ATOM     20  C   UNL     1       6.228   3.852  14.307  0.00  0.00    +0.000 C 
ATOM     21  H   UNL     1       5.442   3.567  16.781  0.00  0.00    +0.000 HD
BRANCH  19  22
ATOM     22  O   UNL     1       7.879   5.543  14.446  0.00  0.00    +0.000 OA
ATOM     23  H   UNL     1       8.708   5.024  14.551  0.00  0.00    +0.000 HD
ENDBRANCH  19  22
ENDBRANCH  15  16
ENDBRANCH  14  15
ENDBRANCH  13  14
ENDBRANCH   6  13
TORSDOF 6
ENDMDL
MODEL 6
REMARK VINA RESULT:      -6.9      3.925      7.983
REMARK  Name = 
REMARK  9 active torsions:
REMARK  status: ('A' for Active; 'I' for Inactive)
REMARK    1  A    between atoms: C_1  and  C_2
REMARK    2  A    between atoms: C_2  and  C_3
REMARK    3  A    between atoms: C_2  and  C_4
REMARK    4  A    between atoms: C_9  and  S_10
REMARK    5  A    between atoms: S_10  and  C_11
REMARK    6  A    between atoms: C_11  and  C_12
REMARK    7  A    between atoms: C_12  and  N_13
REMARK    8  A    between atoms: N_16  and  C_17
REMARK    9  A    between atoms: N_16  and  O_18
REMARK                            x       y       z     vdW  Elec       q    Type
REMARK                         _______ _______ _______ _____ _____    ______ ____
ROOT
ATOM      1  C   UNL     1       1.511   8.272  20.458  0.00  0.00    +0.000 A 
ATOM      2  C   UNL     1       1.748   8.773  19.170  0.00  0.00    +0.000 A 
ATOM      3  C   UNL     1       2.356   7.990  18.181  0.00  0.00    +0.000 A 
ATOM      4  C   UNL     1       2.734   6.665  18.471  0.00  0.00    +0.000 A 
ATOM      5  N   UNL     1       3.310   5.770  17.581  0.00  0.00    +0.000 NA
ATOM      6  C   UNL     1       3.494   4.616  18.180  0.00  0.00    +0.000 A 
ATOM      7  S   UNL     1       3.044   4.539  19.828  0.00  0.00    +0.000 S 
ATOM      8  C   UNL     1       2.508   6.174  19.757  0.00  0.00    +0.000 A 
ATOM      9  C   UNL     1       1.912   6.960  20.763  0.00  0.00    +0.000 A 
ENDROOT
BRANCH   1  11
ATOM     10  C   UNL     1       0.525  10.532  20.854  0.00  0.00    +0.000 C 
ATOM     11  C   UNL     1       0.746   9.138  21.451  0.00  0.00    +0.000 C 
ATOM     12  C   UNL     1      -0.588   8.551  21.921  0.00  0.00    +0.000 C 
ENDBRANCH   1  11
BRANCH   6  13
ATOM     13  S   UNL     1       4.177   3.239  17.339  0.00  0.00    +0.000 S 
BRANCH  13  14
ATOM     14  C   UNL     1       4.932   4.037  15.885  0.00  0.00    +0.000 C 
BRANCH  14  15
ATOM     15  C   UNL     1       6.457   4.063  15.982  0.00  0.00    +0.000 C 
BRANCH  15  16
ATOM     16  N   UNL     1       6.923   4.571  17.260  0.00  0.00    +0.000 N 
ATOM     17  C   UNL     1       7.427   5.831  17.408  0.00  0.00    +0.000 C 
ATOM     18  O   UNL     1       7.501   6.632  16.477  0.00  0.00    +0.000 OA
ATOM     19  N   UNL     1       7.866   6.169  18.660  0.00  0.00    +0.000 N 
ATOM     20  C   UNL     1       7.903   5.456  19.921  0.00  0.00    +0.000 C 
ATOM     21  H   UNL     1       6.854   3.960  18.056  0.00  0.00    +0.000 HD
BRANCH  19  22
ATOM     22  O   UNL     1       8.419   7.470  18.785  0.00  0.00    +0.000 OA
ATOM     23  H   UNL     1       8.093   7.900  17.963  0.00  0.00    +0.000 HD
ENDBRANCH  19  22
ENDBRANCH  15  16
ENDBRANCH  14  15
ENDBRANCH  13  14
ENDBRANCH   6  13
TORSDOF 6
ENDMDL
MODEL 7
REMARK VINA RESULT:      -6.9      5.007      9.297
REMARK  Name = 
REMARK  9 active torsions:
REMARK  status: ('A' for Active; 'I' for Inactive)
REMARK    1  A    between atoms: C_1  and  C_2
REMARK    2  A    between atoms: C_2  and  C_3
REMARK    3  A    between atoms: C_2  and  C_4
REMARK    4  A    between atoms: C_9  and  S_10
REMARK    5  A    between atoms: S_10  and  C_11
REMARK    6  A    between atoms: C_11  and  C_12
REMARK    7  A    between atoms: C_12  and  N_13
REMARK    8  A    between atoms: N_16  and  C_17
REMARK    9  A    between atoms: N_16  and  O_18
REMARK                            x       y       z     vdW  Elec       q    Type
REMARK                         _______ _______ _______ _____ _____    ______ ____
ROOT
ATOM      1  C   UNL     1       0.073  10.217  20.970  0.00  0.00    +0.000 A 
ATOM      2  C   UNL     1       0.264   9.167  21.879  0.00  0.00    +0.000 A 
ATOM      3  C   UNL     1       1.003   8.027  21.536  0.00  0.00    +0.000 A 
ATOM      4  C   UNL     1       1.579   7.926  20.255  0.00  0.00    +0.000 A 
ATOM      5  N   UNL     1       2.360   6.876  19.796  0.00  0.00    +0.000 NA
ATOM      6  C   UNL     1       2.759   7.131  18.571  0.00  0.00    +0.000 A 
ATOM      7  S   UNL     1       2.197   8.593  17.882  0.00  0.00    +0.000 S 
ATOM      8  C   UNL     1       1.375   8.967  19.349  0.00  0.00    +0.000 A 
ATOM      9  C   UNL     1       0.620  10.109  19.680  0.00  0.00    +0.000 A 
ENDROOT
BRANCH   1  11
ATOM     10  C   UNL     1      -1.111  11.286  22.892  0.00  0.00    +0.000 C 
ATOM     11  C   UNL     1      -0.645  11.475  21.444  0.00  0.00    +0.000 C 
ATOM     12  C   UNL     1       0.169  12.765  21.319  0.00  0.00    +0.000 C 
ENDBRANCH   1  11
BRANCH   6  13
ATOM     13  S   UNL     1       3.795   6.027  17.688  0.00  0.00    +0.000 S 
BRANCH  13  14
ATOM     14  C   UNL     1       4.836   5.358  19.025  0.00  0.00    +0.000 C 
BRANCH  14  15
ATOM     15  C   UNL     1       5.683   4.178  18.546  0.00  0.00    +0.000 C 
BRANCH  15  16
ATOM     16  N   UNL     1       5.832   4.154  17.102  0.00  0.00    +0.000 N 
ATOM     17  C   UNL     1       6.877   4.758  16.463  0.00  0.00    +0.000 C 
ATOM     18  O   UNL     1       7.778   5.342  17.065  0.00  0.00    +0.000 OA
ATOM     19  N   UNL     1       6.877   4.693  15.096  0.00  0.00    +0.000 N 
ATOM     20  C   UNL     1       5.977   4.086  14.136  0.00  0.00    +0.000 C 
ATOM     21  H   UNL     1       5.134   3.662  16.570  0.00  0.00    +0.000 HD
BRANCH  19  22
ATOM     22  O   UNL     1       7.951   5.355  14.450  0.00  0.00    +0.000 OA
ATOM     23  H   UNL     1       8.525   4.597  14.198  0.00  0.00    +0.000 HD
ENDBRANCH  19  22
ENDBRANCH  15  16
ENDBRANCH  14  15
ENDBRANCH  13  14
ENDBRANCH   6  13
TORSDOF 6
ENDMDL
MODEL 8
REMARK VINA RESULT:      -6.8      4.631      8.313
REMARK  Name = 
REMARK  9 active torsions:
REMARK  status: ('A' for Active; 'I' for Inactive)
REMARK    1  A    between atoms: C_1  and  C_2
REMARK    2  A    between atoms: C_2  and  C_3
REMARK    3  A    between atoms: C_2  and  C_4
REMARK    4  A    between atoms: C_9  and  S_10
REMARK    5  A    between atoms: S_10  and  C_11
REMARK    6  A    between atoms: C_11  and  C_12
REMARK    7  A    between atoms: C_12  and  N_13
REMARK    8  A    between atoms: N_16  and  C_17
REMARK    9  A    between atoms: N_16  and  O_18
REMARK                            x       y       z     vdW  Elec       q    Type
REMARK                         _______ _______ _______ _____ _____    ______ ____
ROOT
ATOM      1  C   UNL     1       0.287  10.023  20.989  0.00  0.00    +0.000 A 
ATOM      2  C   UNL     1       0.497   8.921  21.830  0.00  0.00    +0.000 A 
ATOM      3  C   UNL     1       1.242   7.811  21.409  0.00  0.00    +0.000 A 
ATOM      4  C   UNL     1       1.803   7.794  20.118  0.00  0.00    +0.000 A 
ATOM      5  N   UNL     1       2.587   6.781  19.585  0.00  0.00    +0.000 NA
ATOM      6  C   UNL     1       2.969   7.114  18.374  0.00  0.00    +0.000 A 
ATOM      7  S   UNL     1       2.387   8.610  17.783  0.00  0.00    +0.000 S 
ATOM      8  C   UNL     1       1.580   8.886  19.279  0.00  0.00    +0.000 A 
ATOM      9  C   UNL     1       0.820   9.999  19.688  0.00  0.00    +0.000 A 
ENDROOT
BRANCH   1  11
ATOM     10  C   UNL     1      -1.445  11.759  20.517  0.00  0.00    +0.000 C 
ATOM     11  C   UNL     1      -0.436  11.243  21.547  0.00  0.00    +0.000 C 
ATOM     12  C   UNL     1      -1.129  11.018  22.894  0.00  0.00    +0.000 C 
ENDBRANCH   1  11
BRANCH   6  13
ATOM     13  S   UNL     1       4.003   6.075  17.414  0.00  0.00    +0.000 S 
BRANCH  13  14
ATOM     14  C   UNL     1       5.006   5.268  18.702  0.00  0.00    +0.000 C 
BRANCH  14  15
ATOM     15  C   UNL     1       4.723   3.768  18.784  0.00  0.00    +0.000 C 
BRANCH  15  16
ATOM     16  N   UNL     1       3.605   3.462  19.659  0.00  0.00    +0.000 N 
ATOM     17  C   UNL     1       2.369   3.133  19.181  0.00  0.00    +0.000 C 
ATOM     18  O   UNL     1       2.121   3.048  17.978  0.00  0.00    +0.000 OA
ATOM     19  N   UNL     1       1.394   2.907  20.114  0.00  0.00    +0.000 N 
ATOM     20  C   UNL     1       1.388   2.928  21.563  0.00  0.00    +0.000 C 
ATOM     21  H   UNL     1       3.769   3.491  20.651  0.00  0.00    +0.000 HD
BRANCH  19  22
ATOM     22  O   UNL     1       0.109   2.600  19.597  0.00  0.00    +0.000 OA
ATOM     23  H   UNL     1       0.336   1.995  18.856  0.00  0.00    +0.000 HD
ENDBRANCH  19  22
ENDBRANCH  15  16
ENDBRANCH  14  15
ENDBRANCH  13  14
ENDBRANCH   6  13
TORSDOF 6
ENDMDL
MODEL 9
REMARK VINA RESULT:      -6.8      4.270      7.585
REMARK  Name = 
REMARK  9 active torsions:
REMARK  status: ('A' for Active; 'I' for Inactive)
REMARK    1  A    between atoms: C_1  and  C_2
REMARK    2  A    between atoms: C_2  and  C_3
REMARK    3  A    between atoms: C_2  and  C_4
REMARK    4  A    between atoms: C_9  and  S_10
REMARK    5  A    between atoms: S_10  and  C_11
REMARK    6  A    between atoms: C_11  and  C_12
REMARK    7  A    between atoms: C_12  and  N_13
REMARK    8  A    between atoms: N_16  and  C_17
REMARK    9  A    between atoms: N_16  and  O_18
REMARK                            x       y       z     vdW  Elec       q    Type
REMARK                         _______ _______ _______ _____ _____    ______ ____
ROOT
ATOM      1  C   UNL     1       0.668   9.475  20.243  0.00  0.00    +0.000 A 
ATOM      2  C   UNL     1       0.852  10.125  19.014  0.00  0.00    +0.000 A 
ATOM      3  C   UNL     1       1.680   9.588  18.019  0.00  0.00    +0.000 A 
ATOM      4  C   UNL     1       2.339   8.365  18.242  0.00  0.00    +0.000 A 
ATOM      5  N   UNL     1       3.157   7.705  17.336  0.00  0.00    +0.000 NA
ATOM      6  C   UNL     1       3.572   6.577  17.863  0.00  0.00    +0.000 A 
ATOM      7  S   UNL     1       3.064   6.259  19.465  0.00  0.00    +0.000 S 
ATOM      8  C   UNL     1       2.165   7.728  19.470  0.00  0.00    +0.000 A 
ATOM      9  C   UNL     1       1.348   8.267  20.483  0.00  0.00    +0.000 A 
ENDROOT
BRANCH   1  11
ATOM     10  C   UNL     1      -0.334   9.210  22.515  0.00  0.00    +0.000 C 
ATOM     11  C   UNL     1      -0.331  10.055  21.236  0.00  0.00    +0.000 C 
ATOM     12  C   UNL     1      -0.110  11.530  21.582  0.00  0.00    +0.000 C 
ENDBRANCH   1  11
BRANCH   6  13
ATOM     13  S   UNL     1       4.603   5.469  16.979  0.00  0.00    +0.000 S 
BRANCH  13  14
ATOM     14  C   UNL     1       5.173   4.362  18.308  0.00  0.00    +0.000 C 
BRANCH  14  15
ATOM     15  C   UNL     1       4.486   2.997  18.241  0.00  0.00    +0.000 C 
BRANCH  15  16
ATOM     16  N   UNL     1       3.474   2.835  19.270  0.00  0.00    +0.000 N 
ATOM     17  C   UNL     1       2.139   2.793  18.985  0.00  0.00    +0.000 C 
ATOM     18  O   UNL     1       1.701   2.863  17.837  0.00  0.00    +0.000 OA
ATOM     19  N   UNL     1       1.291   2.676  20.053  0.00  0.00    +0.000 N 
ATOM     20  C   UNL     1       1.508   2.570  21.481  0.00  0.00    +0.000 C 
ATOM     21  H   UNL     1       3.788   2.744  20.221  0.00  0.00    +0.000 HD
BRANCH  19  22
ATOM     22  O   UNL     1      -0.092   2.668  19.739  0.00  0.00    +0.000 OA
ATOM     23  H   UNL     1      -0.482   3.033  20.565  0.00  0.00    +0.000 HD
ENDBRANCH  19  22
ENDBRANCH  15  16
ENDBRANCH  14  15
ENDBRANCH  13  14
ENDBRANCH   6  13
TORSDOF 6
ENDMDL
