MODEL 1
REMARK VINA RESULT:      -8.5      0.000      0.000
REMARK  Name = 
REMARK  9 active torsions:
REMARK  status: ('A' for Active; 'I' for Inactive)
REMARK    1  A    between atoms: C_1  and  C_2
REMARK    2  A    between atoms: C_2  and  O_3
REMARK    3  A    between atoms: O_3  and  C_4
REMARK    4  A    between atoms: C_4  and  C_6
REMARK    5  A    between atoms: C_6  and  C_7
REMARK    6  A    between atoms: C_7  and  C_8
REMARK    7  A    between atoms: C_13  and  C_14
REMARK    8  A    between atoms: N_20  and  C_21
REMARK    9  A    between atoms: C_21  and  C_22
REMARK                            x       y       z     vdW  Elec       q    Type
REMARK                         _______ _______ _______ _____ _____    ______ ____
ROOT
ATOM      1  C   UNL     1       3.045   5.314  18.820  0.00  0.00    +0.000 C 
ATOM      2  C   UNL     1       2.839   5.764  20.288  0.00  0.00    +0.000 C 
ATOM      3  C   UNL     1       1.749   6.822  20.449  0.00  0.00    +0.000 C 
ATOM      4  N   UNL     1       2.088   8.007  19.651  0.00  0.00    +0.000 NA
ATOM      5  C   UNL     1       2.094   7.656  18.222  0.00  0.00    +0.000 C 
ATOM      6  C   UNL     1       3.128   6.560  17.911  0.00  0.00    +0.000 C 
ENDROOT
BRANCH   1   7
ATOM      7  C   UNL     1       1.820   4.458  18.460  0.00  0.00    +0.000 C 
ATOM      8  O   UNL     1       1.386   4.283  17.335  0.00  0.00    +0.000 OA
BRANCH   7   9
ATOM      9  O   UNL     1       1.201   4.047  19.602  0.00  0.00    +0.000 OA
BRANCH   9  11
ATOM     10  C   UNL     1       1.548   2.586  21.414  0.00  0.00    +0.000 C 
ATOM     11  C   UNL     1       1.247   2.657  19.932  0.00  0.00    +0.000 C 
ENDBRANCH   9  11
ENDBRANCH   7   9
ENDBRANCH   1   7
BRANCH   1  12
ATOM     12  C   UNL     1       4.363   4.463  18.766  0.00  0.00    +0.000 C 
BRANCH  12  13
ATOM     13  C   UNL     1       5.237   4.594  17.527  0.00  0.00    +0.000 A 
ATOM     14  C   UNL     1       4.745   4.034  16.326  0.00  0.00    +0.000 A 
ATOM     15  C   UNL     1       5.419   4.173  15.115  0.00  0.00    +0.000 A 
ATOM     16  C   UNL     1       6.617   4.864  15.072  0.00  0.00    +0.000 A 
ATOM     17  C   UNL     1       7.157   5.366  16.255  0.00  0.00    +0.000 A 
ATOM     18  C   UNL     1       6.503   5.216  17.499  0.00  0.00    +0.000 A 
BRANCH  18  19
ATOM     19  C   UNL     1       7.279   5.705  18.707  0.00  0.00    +0.000 C 
ATOM     20  F   UNL     1       6.620   5.677  19.894  0.00  0.00    +0.000 F 
ATOM     21  F   UNL     1       8.406   4.963  18.913  0.00  0.00    +0.000 F 
ATOM     22  F   UNL     1       7.711   6.990  18.555  0.00  0.00    +0.000 F 
ENDBRANCH  18  19
ENDBRANCH  12  13
ENDBRANCH   1  12
BRANCH   4  23
ATOM     23  C   UNL     1       1.127   9.110  19.898  0.00  0.00    +0.000 C 
BRANCH  23  24
ATOM     24  C   UNL     1       0.808   9.226  21.360  0.00  0.00    +0.000 A 
ATOM     25  C   UNL     1      -0.453   9.109  21.997  0.00  0.00    +0.000 A 
ATOM     26  C   UNL     1      -0.198   9.416  23.306  0.00  0.00    +0.000 A 
ATOM     27  O   UNL     1       1.125   9.662  23.466  0.00  0.00    +0.000 OA
ATOM     28  N   UNL     1       1.767   9.537  22.246  0.00  0.00    +0.000 NA
ENDBRANCH  23  24
ENDBRANCH   4  23
TORSDOF 8
ENDMDL
MODEL 2
REMARK VINA RESULT:      -8.1      0.842      1.042
REMARK  Name = 
REMARK  9 active torsions:
REMARK  status: ('A' for Active; 'I' for Inactive)
REMARK    1  A    between atoms: C_1  and  C_2
REMARK    2  A    between atoms: C_2  and  O_3
REMARK    3  A    between atoms: O_3  and  C_4
REMARK    4  A    between atoms: C_4  and  C_6
REMARK    5  A    between atoms: C_6  and  C_7
REMARK    6  A    between atoms: C_7  and  C_8
REMARK    7  A    between atoms: C_13  and  C_14
REMARK    8  A    between atoms: N_20  and  C_21
REMARK    9  A    between atoms: C_21  and  C_22
REMARK                            x       y       z     vdW  Elec       q    Type
REMARK                         _______ _______ _______ _____ _____    ______ ____
ROOT
ATOM      1  C   UNL     1       3.461   5.632  18.636  0.00  0.00    +0.000 C 
ATOM      2  C   UNL     1       3.131   6.004  20.102  0.00  0.00    +0.000 C 
ATOM      3  C   UNL     1       1.884   6.876  20.240  0.00  0.00    +0.000 C 
ATOM      4  N   UNL     1       2.065   8.121  19.482  0.00  0.00    +0.000 NA
ATOM      5  C   UNL     1       2.181   7.814  18.048  0.00  0.00    +0.000 C 
ATOM      6  C   UNL     1       3.384   6.901  17.757  0.00  0.00    +0.000 C 
ENDROOT
BRANCH   1   7
ATOM      7  C   UNL     1       2.399   4.607  18.205  0.00  0.00    +0.000 C 
ATOM      8  O   UNL     1       1.437   4.841  17.496  0.00  0.00    +0.000 OA
BRANCH   7   9
ATOM      9  O   UNL     1       2.612   3.431  18.860  0.00  0.00    +0.000 OA
BRANCH   9  11
ATOM     10  C   UNL     1       1.072   3.018  20.591  0.00  0.00    +0.000 C 
ATOM     11  C   UNL     1       1.476   2.626  19.186  0.00  0.00    +0.000 C 
ENDBRANCH   9  11
ENDBRANCH   7   9
ENDBRANCH   1   7
BRANCH   1  12
ATOM     12  C   UNL     1       4.897   4.997  18.620  0.00  0.00    +0.000 C 
BRANCH  12  13
ATOM     13  C   UNL     1       5.595   4.868  17.273  0.00  0.00    +0.000 A 
ATOM     14  C   UNL     1       5.258   3.753  16.474  0.00  0.00    +0.000 A 
ATOM     15  C   UNL     1       5.768   3.583  15.188  0.00  0.00    +0.000 A 
ATOM     16  C   UNL     1       6.648   4.517  14.670  0.00  0.00    +0.000 A 
ATOM     17  C   UNL     1       7.050   5.589  15.466  0.00  0.00    +0.000 A 
ATOM     18  C   UNL     1       6.563   5.768  16.782  0.00  0.00    +0.000 A 
BRANCH  18  19
ATOM     19  C   UNL     1       7.192   6.909  17.560  0.00  0.00    +0.000 C 
ATOM     20  F   UNL     1       7.714   6.590  18.772  0.00  0.00    +0.000 F 
ATOM     21  F   UNL     1       8.226   7.476  16.870  0.00  0.00    +0.000 F 
ATOM     22  F   UNL     1       6.309   7.922  17.791  0.00  0.00    +0.000 F 
ENDBRANCH  18  19
ENDBRANCH  12  13
ENDBRANCH   1  12
BRANCH   4  23
ATOM     23  C   UNL     1       0.936   9.055  19.712  0.00  0.00    +0.000 C 
BRANCH  23  24
ATOM     24  C   UNL     1       0.652   9.203  21.178  0.00  0.00    +0.000 A 
ATOM     25  C   UNL     1      -0.495   8.785  21.899  0.00  0.00    +0.000 A 
ATOM     26  C   UNL     1      -0.292   9.267  23.163  0.00  0.00    +0.000 A 
ATOM     27  O   UNL     1       0.907   9.897  23.222  0.00  0.00    +0.000 OA
ATOM     28  N   UNL     1       1.511   9.855  21.978  0.00  0.00    +0.000 NA
ENDBRANCH  23  24
ENDBRANCH   4  23
TORSDOF 8
ENDMDL
MODEL 3
REMARK VINA RESULT:      -7.8      0.814      1.118
REMARK  Name = 
REMARK  9 active torsions:
REMARK  status: ('A' for Active; 'I' for Inactive)
REMARK    1  A    between atoms: C_1  and  C_2
REMARK    2  A    between atoms: C_2  and  O_3
REMARK    3  A    between atoms: O_3  and  C_4
REMARK    4  A    between atoms: C_4  and  C_6
REMARK    5  A    between atoms: C_6  and  C_7
REMARK    6  A    between atoms: C_7  and  C_8
REMARK    7  A    between atoms: C_13  and  C_14
REMARK    8  A    between atoms: N_20  and  C_21
REMARK    9  A    between atoms: C_21  and  C_22
REMARK                            x       y       z     vdW  Elec       q    Type
REMARK                         _______ _______ _______ _____ _____    ______ ____
ROOT
ATOM      1  C   UNL     1       3.281   5.233  18.673  0.00  0.00    +0.000 C 
ATOM      2  C   UNL     1       2.963   5.713  20.111  0.00  0.00    +0.000 C 
ATOM      3  C   UNL     1       1.830   6.735  20.172  0.00  0.00    +0.000 C 
ATOM      4  N   UNL     1       2.180   7.910  19.364  0.00  0.00    +0.000 NA
ATOM      5  C   UNL     1       2.292   7.523  17.950  0.00  0.00    +0.000 C 
ATOM      6  C   UNL     1       3.381   6.458  17.737  0.00  0.00    +0.000 C 
ENDROOT
BRANCH   1   7
ATOM      7  C   UNL     1       2.112   4.325  18.258  0.00  0.00    +0.000 C 
ATOM      8  O   UNL     1       1.257   4.603  17.435  0.00  0.00    +0.000 OA
BRANCH   7   9
ATOM      9  O   UNL     1       2.086   3.223  19.060  0.00  0.00    +0.000 OA
BRANCH   9  11
ATOM     10  C   UNL     1       1.266   2.754  21.215  0.00  0.00    +0.000 C 
ATOM     11  C   UNL     1       0.876   2.929  19.763  0.00  0.00    +0.000 C 
ENDBRANCH   9  11
ENDBRANCH   7   9
ENDBRANCH   1   7
BRANCH   1  12
ATOM     12  C   UNL     1       4.628   4.428  18.729  0.00  0.00    +0.000 C 
BRANCH  12  13
ATOM     13  C   UNL     1       5.535   4.489  17.509  0.00  0.00    +0.000 A 
ATOM     14  C   UNL     1       5.090   3.837  16.337  0.00  0.00    +0.000 A 
ATOM     15  C   UNL     1       5.797   3.904  15.139  0.00  0.00    +0.000 A 
ATOM     16  C   UNL     1       6.984   4.613  15.081  0.00  0.00    +0.000 A 
ATOM     17  C   UNL     1       7.480   5.206  16.241  0.00  0.00    +0.000 A 
ATOM     18  C   UNL     1       6.791   5.131  17.474  0.00  0.00    +0.000 A 
BRANCH  18  19
ATOM     19  C   UNL     1       7.522   5.718  18.666  0.00  0.00    +0.000 C 
ATOM     20  F   UNL     1       8.038   6.962  18.499  0.00  0.00    +0.000 F 
ATOM     21  F   UNL     1       6.705   5.819  19.756  0.00  0.00    +0.000 F 
ATOM     22  F   UNL     1       8.566   4.935  19.065  0.00  0.00    +0.000 F 
ENDBRANCH  18  19
ENDBRANCH  12  13
ENDBRANCH   1  12
BRANCH   4  23
ATOM     23  C   UNL     1       1.169   8.985  19.518  0.00  0.00    +0.000 C 
BRANCH  23  24
ATOM     24  C   UNL     1       0.731   9.110  20.948  0.00  0.00    +0.000 A 
ATOM     25  C   UNL     1       1.529   9.354  22.093  0.00  0.00    +0.000 A 
ATOM     26  C   UNL     1       0.654   9.254  23.141  0.00  0.00    +0.000 A 
ATOM     27  O   UNL     1      -0.592   9.008  22.669  0.00  0.00    +0.000 OA
ATOM     28  N   UNL     1      -0.554   8.923  21.289  0.00  0.00    +0.000 NA
ENDBRANCH  23  24
ENDBRANCH   4  23
TORSDOF 8
ENDMDL
MODEL 4
REMARK VINA RESULT:      -7.8      4.147      8.036
REMARK  Name = 
REMARK  9 active torsions:
REMARK  status: ('A' for Active; 'I' for Inactive)
REMARK    1  A    between atoms: C_1  and  C_2
REMARK    2  A    between atoms: C_2  and  O_3
REMARK    3  A    between atoms: O_3  and  C_4
REMARK    4  A    between atoms: C_4  and  C_6
REMARK    5  A    between atoms: C_6  and  C_7
REMARK    6  A    between atoms: C_7  and  C_8
REMARK    7  A    between atoms: C_13  and  C_14
REMARK    8  A    between atoms: N_20  and  C_21
REMARK    9  A    between atoms: C_21  and  C_22
REMARK                            x       y       z     vdW  Elec       q    Type
REMARK                         _______ _______ _______ _____ _____    ______ ____
ROOT
ATOM      1  C   UNL     1       5.762   5.038  17.453  0.00  0.00    +0.000 C 
ATOM      2  C   UNL     1       7.155   4.520  17.016  0.00  0.00    +0.000 C 
ATOM      3  C   UNL     1       7.493   4.845  15.563  0.00  0.00    +0.000 C 
ATOM      4  N   UNL     1       6.485   4.250  14.676  0.00  0.00    +0.000 NA
ATOM      5  C   UNL     1       5.176   4.872  14.929  0.00  0.00    +0.000 C 
ATOM      6  C   UNL     1       4.717   4.658  16.382  0.00  0.00    +0.000 C 
ENDROOT
BRANCH   1   7
ATOM      7  C   UNL     1       5.892   6.566  17.570  0.00  0.00    +0.000 C 
ATOM      8  O   UNL     1       5.021   7.372  17.296  0.00  0.00    +0.000 OA
BRANCH   7   9
ATOM      9  O   UNL     1       7.179   6.890  17.879  0.00  0.00    +0.000 OA
BRANCH   9  11
ATOM     10  C   UNL     1       8.530   8.687  18.574  0.00  0.00    +0.000 C 
ATOM     11  C   UNL     1       7.681   8.154  17.439  0.00  0.00    +0.000 C 
ENDBRANCH   9  11
ENDBRANCH   7   9
ENDBRANCH   1   7
BRANCH   1  12
ATOM     12  C   UNL     1       5.433   4.393  18.846  0.00  0.00    +0.000 C 
BRANCH  12  13
ATOM     13  C   UNL     1       3.979   4.396  19.298  0.00  0.00    +0.000 A 
ATOM     14  C   UNL     1       3.480   5.590  19.865  0.00  0.00    +0.000 A 
ATOM     15  C   UNL     1       2.143   5.733  20.230  0.00  0.00    +0.000 A 
ATOM     16  C   UNL     1       1.267   4.676  20.053  0.00  0.00    +0.000 A 
ATOM     17  C   UNL     1       1.750   3.465  19.561  0.00  0.00    +0.000 A 
ATOM     18  C   UNL     1       3.108   3.290  19.206  0.00  0.00    +0.000 A 
BRANCH  18  19
ATOM     19  C   UNL     1       3.501   1.880  18.807  0.00  0.00    +0.000 C 
ATOM     20  F   UNL     1       3.964   1.723  17.540  0.00  0.00    +0.000 F 
ATOM     21  F   UNL     1       4.493   1.390  19.608  0.00  0.00    +0.000 F 
ATOM     22  F   UNL     1       2.464   1.003  18.934  0.00  0.00    +0.000 F 
ENDBRANCH  18  19
ENDBRANCH  12  13
ENDBRANCH   1  12
BRANCH   4  23
ATOM     23  C   UNL     1       6.860   4.421  13.250  0.00  0.00    +0.000 C 
BRANCH  23  24
ATOM     24  C   UNL     1       6.046   3.519  12.370  0.00  0.00    +0.000 A 
ATOM     25  C   UNL     1       4.718   3.704  11.909  0.00  0.00    +0.000 A 
ATOM     26  C   UNL     1       4.427   2.541  11.248  0.00  0.00    +0.000 A 
ATOM     27  O   UNL     1       5.508   1.725  11.267  0.00  0.00    +0.000 OA
ATOM     28  N   UNL     1       6.535   2.336  11.965  0.00  0.00    +0.000 NA
ENDBRANCH  23  24
ENDBRANCH   4  23
TORSDOF 8
ENDMDL
MODEL 5
REMARK VINA RESULT:      -7.7      4.022      7.917
REMARK  Name = 
REMARK  9 active torsions:
REMARK  status: ('A' for Active; 'I' for Inactive)
REMARK    1  A    between atoms: C_1  and  C_2
REMARK    2  A    between atoms: C_2  and  O_3
REMARK    3  A    between atoms: O_3  and  C_4
REMARK    4  A    between atoms: C_4  and  C_6
REMARK    5  A    between atoms: C_6  and  C_7
REMARK    6  A    between atoms: C_7  and  C_8
REMARK    7  A    between atoms: C_13  and  C_14
REMARK    8  A    between atoms: N_20  and  C_21
REMARK    9  A    between atoms: C_21  and  C_22
REMARK                            x       y       z     vdW  Elec       q    Type
REMARK                         _______ _______ _______ _____ _____    ______ ____
ROOT
ATOM      1  C   UNL     1       5.622   4.977  17.425  0.00  0.00    +0.000 C 
ATOM      2  C   UNL     1       7.033   4.454  17.058  0.00  0.00    +0.000 C 
ATOM      3  C   UNL     1       7.439   4.766  15.619  0.00  0.00    +0.000 C 
ATOM      4  N   UNL     1       6.473   4.164  14.691  0.00  0.00    +0.000 NA
ATOM      5  C   UNL     1       5.154   4.788  14.877  0.00  0.00    +0.000 C 
ATOM      6  C   UNL     1       4.627   4.588  16.308  0.00  0.00    +0.000 C 
ENDROOT
BRANCH   1   7
ATOM      7  C   UNL     1       5.747   6.506  17.533  0.00  0.00    +0.000 C 
ATOM      8  O   UNL     1       4.893   7.310  17.206  0.00  0.00    +0.000 OA
BRANCH   7   9
ATOM      9  O   UNL     1       7.016   6.831  17.908  0.00  0.00    +0.000 OA
BRANCH   9  11
ATOM     10  C   UNL     1       8.535   8.519  18.526  0.00  0.00    +0.000 C 
ATOM     11  C   UNL     1       7.551   8.080  17.462  0.00  0.00    +0.000 C 
ENDBRANCH   9  11
ENDBRANCH   7   9
ENDBRANCH   1   7
BRANCH   1  12
ATOM     12  C   UNL     1       5.226   4.345  18.806  0.00  0.00    +0.000 C 
BRANCH  12  13
ATOM     13  C   UNL     1       3.866   3.671  18.909  0.00  0.00    +0.000 A 
ATOM     14  C   UNL     1       3.796   2.298  18.581  0.00  0.00    +0.000 A 
ATOM     15  C   UNL     1       2.623   1.561  18.725  0.00  0.00    +0.000 A 
ATOM     16  C   UNL     1       1.475   2.182  19.186  0.00  0.00    +0.000 A 
ATOM     17  C   UNL     1       1.500   3.551  19.450  0.00  0.00    +0.000 A 
ATOM     18  C   UNL     1       2.674   4.323  19.288  0.00  0.00    +0.000 A 
BRANCH  18  19
ATOM     19  C   UNL     1       2.504   5.816  19.494  0.00  0.00    +0.000 C 
ATOM     20  F   UNL     1       3.598   6.487  19.940  0.00  0.00    +0.000 F 
ATOM     21  F   UNL     1       2.155   6.446  18.334  0.00  0.00    +0.000 F 
ATOM     22  F   UNL     1       1.508   6.104  20.379  0.00  0.00    +0.000 F 
ENDBRANCH  18  19
ENDBRANCH  12  13
ENDBRANCH   1  12
BRANCH   4  23
ATOM     23  C   UNL     1       6.915   4.321  13.284  0.00  0.00    +0.000 C 
BRANCH  23  24
ATOM     24  C   UNL     1       6.098   3.460  12.365  0.00  0.00    +0.000 A 
ATOM     25  C   UNL     1       4.774   3.674  11.906  0.00  0.00    +0.000 A 
ATOM     26  C   UNL     1       4.476   2.540  11.199  0.00  0.00    +0.000 A 
ATOM     27  O   UNL     1       5.550   1.714  11.193  0.00  0.00    +0.000 OA
ATOM     28  N   UNL     1       6.579   2.289  11.918  0.00  0.00    +0.000 NA
ENDBRANCH  23  24
ENDBRANCH   4  23
TORSDOF 8
ENDMDL
MODEL 6
REMARK VINA RESULT:      -7.6      4.184      8.226
REMARK  Name = 
REMARK  9 active torsions:
REMARK  status: ('A' for Active; 'I' for Inactive)
REMARK    1  A    between atoms: C_1  and  C_2
REMARK    2  A    between atoms: C_2  and  O_3
REMARK    3  A    between atoms: O_3  and  C_4
REMARK    4  A    between atoms: C_4  and  C_6
REMARK    5  A    between atoms: C_6  and  C_7
REMARK    6  A    between atoms: C_7  and  C_8
REMARK    7  A    between atoms: C_13  and  C_14
REMARK    8  A    between atoms: N_20  and  C_21
REMARK    9  A    between atoms: C_21  and  C_22
REMARK                            x       y       z     vdW  Elec       q    Type
REMARK                         _______ _______ _______ _____ _____    ______ ____
ROOT
ATOM      1  C   UNL     1       5.752   5.005  17.283  0.00  0.00    +0.000 C 
ATOM      2  C   UNL     1       7.156   4.540  16.825  0.00  0.00    +0.000 C 
ATOM      3  C   UNL     1       7.462   4.882  15.368  0.00  0.00    +0.000 C 
ATOM      4  N   UNL     1       6.464   4.253  14.493  0.00  0.00    +0.000 NA
ATOM      5  C   UNL     1       5.137   4.825  14.766  0.00  0.00    +0.000 C 
ATOM      6  C   UNL     1       4.706   4.590  16.224  0.00  0.00    +0.000 C 
ENDROOT
BRANCH   1   7
ATOM      7  C   UNL     1       5.826   6.536  17.403  0.00  0.00    +0.000 C 
ATOM      8  O   UNL     1       4.981   7.319  17.008  0.00  0.00    +0.000 OA
BRANCH   7   9
ATOM      9  O   UNL     1       7.052   6.894  17.880  0.00  0.00    +0.000 OA
BRANCH   9  11
ATOM     10  C   UNL     1       8.535   8.594  18.550  0.00  0.00    +0.000 C 
ATOM     11  C   UNL     1       7.608   8.136  17.444  0.00  0.00    +0.000 C 
ENDBRANCH   9  11
ENDBRANCH   7   9
ENDBRANCH   1   7
BRANCH   1  12
ATOM     12  C   UNL     1       5.465   4.343  18.678  0.00  0.00    +0.000 C 
BRANCH  12  13
ATOM     13  C   UNL     1       4.033   4.378  19.193  0.00  0.00    +0.000 A 
ATOM     14  C   UNL     1       3.572   5.596  19.743  0.00  0.00    +0.000 A 
ATOM     15  C   UNL     1       2.255   5.766  20.162  0.00  0.00    +0.000 A 
ATOM     16  C   UNL     1       1.361   4.715  20.059  0.00  0.00    +0.000 A 
ATOM     17  C   UNL     1       1.809   3.483  19.585  0.00  0.00    +0.000 A 
ATOM     18  C   UNL     1       3.148   3.280  19.177  0.00  0.00    +0.000 A 
BRANCH  18  19
ATOM     19  C   UNL     1       3.507   1.854  18.807  0.00  0.00    +0.000 C 
ATOM     20  F   UNL     1       2.507   0.941  18.901  0.00  0.00    +0.000 F 
ATOM     21  F   UNL     1       3.944   1.765  17.516  0.00  0.00    +0.000 F 
ATOM     22  F   UNL     1       4.526   1.366  19.571  0.00  0.00    +0.000 F 
ENDBRANCH  18  19
ENDBRANCH  12  13
ENDBRANCH   1  12
BRANCH   4  23
ATOM     23  C   UNL     1       6.813   4.442  13.063  0.00  0.00    +0.000 C 
BRANCH  23  24
ATOM     24  C   UNL     1       6.460   3.225  12.259  0.00  0.00    +0.000 A 
ATOM     25  C   UNL     1       7.332   2.323  11.600  0.00  0.00    +0.000 A 
ATOM     26  C   UNL     1       6.494   1.475  10.928  0.00  0.00    +0.000 A 
ATOM     27  O   UNL     1       5.206   1.807  11.190  0.00  0.00    +0.000 OA
ATOM     28  N   UNL     1       5.176   2.904  12.034  0.00  0.00    +0.000 NA
ENDBRANCH  23  24
ENDBRANCH   4  23
TORSDOF 8
ENDMDL
MODEL 7
REMARK VINA RESULT:      -7.6      3.900      7.986
REMARK  Name = 
REMARK  9 active torsions:
REMARK  status: ('A' for Active; 'I' for Inactive)
REMARK    1  A    between atoms: C_1  and  C_2
REMARK    2  A    between atoms: C_2  and  O_3
REMARK    3  A    between atoms: O_3  and  C_4
REMARK    4  A    between atoms: C_4  and  C_6
REMARK    5  A    between atoms: C_6  and  C_7
REMARK    6  A    between atoms: C_7  and  C_8
REMARK    7  A    between atoms: C_13  and  C_14
REMARK    8  A    between atoms: N_20  and  C_21
REMARK    9  A    between atoms: C_21  and  C_22
REMARK                            x       y       z     vdW  Elec       q    Type
REMARK                         _______ _______ _______ _____ _____    ______ ____
ROOT
ATOM      1  C   UNL     1       4.281   4.725  17.328  0.00  0.00    +0.000 C 
ATOM      2  C   UNL     1       4.507   3.436  16.501  0.00  0.00    +0.000 C 
ATOM      3  C   UNL     1       5.749   3.496  15.613  0.00  0.00    +0.000 C 
ATOM      4  N   UNL     1       5.635   4.625  14.680  0.00  0.00    +0.000 NA
ATOM      5  C   UNL     1       5.621   5.889  15.432  0.00  0.00    +0.000 C 
ATOM      6  C   UNL     1       4.433   5.956  16.407  0.00  0.00    +0.000 C 
ENDROOT
BRANCH   1   7
ATOM      7  C   UNL     1       5.362   4.726  18.422  0.00  0.00    +0.000 C 
ATOM      8  O   UNL     1       5.564   3.826  19.217  0.00  0.00    +0.000 OA
BRANCH   7   9
ATOM      9  O   UNL     1       5.959   5.950  18.468  0.00  0.00    +0.000 OA
BRANCH   9  11
ATOM     10  C   UNL     1       7.854   7.285  18.061  0.00  0.00    +0.000 C 
ATOM     11  C   UNL     1       7.368   6.004  18.705  0.00  0.00    +0.000 C 
ENDBRANCH   9  11
ENDBRANCH   7   9
ENDBRANCH   1   7
BRANCH   1  12
ATOM     12  C   UNL     1       2.844   4.639  17.956  0.00  0.00    +0.000 C 
BRANCH  12  13
ATOM     13  C   UNL     1       2.443   5.721  18.948  0.00  0.00    +0.000 A 
ATOM     14  C   UNL     1       2.520   7.062  18.511  0.00  0.00    +0.000 A 
ATOM     15  C   UNL     1       2.094   8.125  19.304  0.00  0.00    +0.000 A 
ATOM     16  C   UNL     1       1.592   7.878  20.570  0.00  0.00    +0.000 A 
ATOM     17  C   UNL     1       1.572   6.570  21.052  0.00  0.00    +0.000 A 
ATOM     18  C   UNL     1       2.021   5.478  20.273  0.00  0.00    +0.000 A 
BRANCH  18  19
ATOM     19  C   UNL     1       2.052   4.139  20.984  0.00  0.00    +0.000 C 
ATOM     20  F   UNL     1       2.906   3.212  20.479  0.00  0.00    +0.000 F 
ATOM     21  F   UNL     1       2.414   4.275  22.293  0.00  0.00    +0.000 F 
ATOM     22  F   UNL     1       0.827   3.540  21.005  0.00  0.00    +0.000 F 
ENDBRANCH  18  19
ENDBRANCH  12  13
ENDBRANCH   1  12
BRANCH   4  23
ATOM     23  C   UNL     1       6.754   4.627  13.705  0.00  0.00    +0.000 C 
BRANCH  23  24
ATOM     24  C   UNL     1       6.519   3.620  12.617  0.00  0.00    +0.000 A 
ATOM     25  C   UNL     1       5.287   3.088  12.163  0.00  0.00    +0.000 A 
ATOM     26  C   UNL     1       5.649   2.135  11.249  0.00  0.00    +0.000 A 
ATOM     27  O   UNL     1       6.998   2.115  11.123  0.00  0.00    +0.000 OA
ATOM     28  N   UNL     1       7.553   3.053  11.976  0.00  0.00    +0.000 NA
ENDBRANCH  23  24
ENDBRANCH   4  23
TORSDOF 8
ENDMDL
MODEL 8
REMARK VINA RESULT:      -7.4      1.447      1.761
REMARK  Name = 
REMARK  9 active torsions:
REMARK  status: ('A' for Active; 'I' for Inactive)
REMARK    1  A    between atoms: C_1  and  C_2
REMARK    2  A    between atoms: C_2  and  O_3
REMARK    3  A    between atoms: O_3  and  C_4
REMARK    4  A    between atoms: C_4  and  C_6
REMARK    5  A    between atoms: C_6  and  C_7
REMARK    6  A    between atoms: C_7  and  C_8
REMARK    7  A    between atoms: C_13  and  C_14
REMARK    8  A    between atoms: N_20  and  C_21
REMARK    9  A    between atoms: C_21  and  C_22
REMARK                            x       y       z     vdW  Elec       q    Type
REMARK                         _______ _______ _______ _____ _____    ______ ____
ROOT
ATOM      1  C   UNL     1       3.031   6.039  18.992  0.00  0.00    +0.000 C 
ATOM      2  C   UNL     1       2.628   6.689  20.339  0.00  0.00    +0.000 C 
ATOM      3  C   UNL     1       1.433   7.634  20.222  0.00  0.00    +0.000 C 
ATOM      4  N   UNL     1       1.743   8.708  19.270  0.00  0.00    +0.000 NA
ATOM      5  C   UNL     1       1.934   8.139  17.927  0.00  0.00    +0.000 C 
ATOM      6  C   UNL     1       3.094   7.128  17.898  0.00  0.00    +0.000 C 
ENDROOT
BRANCH   1   7
ATOM      7  C   UNL     1       1.936   5.007  18.671  0.00  0.00    +0.000 C 
ATOM      8  O   UNL     1       1.464   4.797  17.568  0.00  0.00    +0.000 OA
BRANCH   7   9
ATOM      9  O   UNL     1       1.464   4.471  19.831  0.00  0.00    +0.000 OA
BRANCH   9  11
ATOM     10  C   UNL     1       1.710   2.835  21.506  0.00  0.00    +0.000 C 
ATOM     11  C   UNL     1       1.574   3.057  20.014  0.00  0.00    +0.000 C 
ENDBRANCH   9  11
ENDBRANCH   7   9
ENDBRANCH   1   7
BRANCH   1  12
ATOM     12  C   UNL     1       4.421   5.339  19.201  0.00  0.00    +0.000 C 
BRANCH  12  13
ATOM     13  C   UNL     1       5.229   4.992  17.959  0.00  0.00    +0.000 A 
ATOM     14  C   UNL     1       4.545   4.357  16.898  0.00  0.00    +0.000 A 
ATOM     15  C   UNL     1       5.164   4.076  15.682  0.00  0.00    +0.000 A 
ATOM     16  C   UNL     1       6.495   4.407  15.497  0.00  0.00    +0.000 A 
ATOM     17  C   UNL     1       7.210   4.971  16.553  0.00  0.00    +0.000 A 
ATOM     18  C   UNL     1       6.608   5.243  17.803  0.00  0.00    +0.000 A 
BRANCH  18  19
ATOM     19  C   UNL     1       7.549   5.738  18.885  0.00  0.00    +0.000 C 
ATOM     20  F   UNL     1       7.051   5.760  20.148  0.00  0.00    +0.000 F 
ATOM     21  F   UNL     1       8.673   4.967  18.963  0.00  0.00    +0.000 F 
ATOM     22  F   UNL     1       7.992   7.005  18.641  0.00  0.00    +0.000 F 
ENDBRANCH  18  19
ENDBRANCH  12  13
ENDBRANCH   1  12
BRANCH   4  23
ATOM     23  C   UNL     1       0.663   9.725  19.241  0.00  0.00    +0.000 C 
BRANCH  23  24
ATOM     24  C   UNL     1       1.158  11.048  19.746  0.00  0.00    +0.000 A 
ATOM     25  C   UNL     1       1.735  12.111  19.007  0.00  0.00    +0.000 A 
ATOM     26  C   UNL     1       2.111  13.018  19.961  0.00  0.00    +0.000 A 
ATOM     27  O   UNL     1       1.754  12.563  21.186  0.00  0.00    +0.000 OA
ATOM     28  N   UNL     1       1.146  11.326  21.059  0.00  0.00    +0.000 NA
ENDBRANCH  23  24
ENDBRANCH   4  23
TORSDOF 8
ENDMDL
MODEL 9
REMARK VINA RESULT:      -7.4      1.612      2.117
REMARK  Name = 
REMARK  9 active torsions:
REMARK  status: ('A' for Active; 'I' for Inactive)
REMARK    1  A    between atoms: C_1  and  C_2
REMARK    2  A    between atoms: C_2  and  O_3
REMARK    3  A    between atoms: O_3  and  C_4
REMARK    4  A    between atoms: C_4  and  C_6
REMARK    5  A    between atoms: C_6  and  C_7
REMARK    6  A    between atoms: C_7  and  C_8
REMARK    7  A    between atoms: C_13  and  C_14
REMARK    8  A    between atoms: N_20  and  C_21
REMARK    9  A    between atoms: C_21  and  C_22
REMARK                            x       y       z     vdW  Elec       q    Type
REMARK                         _______ _______ _______ _____ _____    ______ ____
ROOT
ATOM      1  C   UNL     1       3.186   6.138  18.776  0.00  0.00    +0.000 C 
ATOM      2  C   UNL     1       2.841   6.733  20.164  0.00  0.00    +0.000 C 
ATOM      3  C   UNL     1       1.595   7.616  20.152  0.00  0.00    +0.000 C 
ATOM      4  N   UNL     1       1.786   8.728  19.212  0.00  0.00    +0.000 NA
ATOM      5  C   UNL     1       1.916   8.203  17.844  0.00  0.00    +0.000 C 
ATOM      6  C   UNL     1       3.120   7.256  17.711  0.00  0.00    +0.000 C 
ENDROOT
BRANCH   1   7
ATOM      7  C   UNL     1       2.126   5.059  18.499  0.00  0.00    +0.000 C 
ATOM      8  O   UNL     1       1.529   4.908  17.448  0.00  0.00    +0.000 OA
BRANCH   7   9
ATOM      9  O   UNL     1       1.844   4.393  19.653  0.00  0.00    +0.000 OA
BRANCH   9  11
ATOM     10  C   UNL     1       2.644   2.209  19.293  0.00  0.00    +0.000 C 
ATOM     11  C   UNL     1       1.404   3.036  19.559  0.00  0.00    +0.000 C 
ENDBRANCH   9  11
ENDBRANCH   7   9
ENDBRANCH   1   7
BRANCH   1  12
ATOM     12  C   UNL     1       4.620   5.508  18.874  0.00  0.00    +0.000 C 
BRANCH  12  13
ATOM     13  C   UNL     1       5.313   5.128  17.573  0.00  0.00    +0.000 A 
ATOM     14  C   UNL     1       4.859   3.965  16.913  0.00  0.00    +0.000 A 
ATOM     15  C   UNL     1       5.360   3.574  15.673  0.00  0.00    +0.000 A 
ATOM     16  C   UNL     1       6.346   4.330  15.062  0.00  0.00    +0.000 A 
ATOM     17  C   UNL     1       6.860   5.443  15.726  0.00  0.00    +0.000 A 
ATOM     18  C   UNL     1       6.383   5.844  16.995  0.00  0.00    +0.000 A 
BRANCH  18  19
ATOM     19  C   UNL     1       7.131   6.997  17.638  0.00  0.00    +0.000 C 
ATOM     20  F   UNL     1       8.161   7.515  16.921  0.00  0.00    +0.000 F 
ATOM     21  F   UNL     1       6.304   8.056  17.883  0.00  0.00    +0.000 F 
ATOM     22  F   UNL     1       7.657   6.657  18.849  0.00  0.00    +0.000 F 
ENDBRANCH  18  19
ENDBRANCH  12  13
ENDBRANCH   1  12
BRANCH   4  23
ATOM     23  C   UNL     1       0.656   9.687  19.282  0.00  0.00    +0.000 C 
BRANCH  23  24
ATOM     24  C   UNL     1       1.120  11.028  19.771  0.00  0.00    +0.000 A 
ATOM     25  C   UNL     1       1.644  12.106  19.014  0.00  0.00    +0.000 A 
ATOM     26  C   UNL     1       2.014  13.029  19.956  0.00  0.00    +0.000 A 
ATOM     27  O   UNL     1       1.701  12.568  21.191  0.00  0.00    +0.000 OA
ATOM     28  N   UNL     1       1.130  11.312  21.083  0.00  0.00    +0.000 NA
ENDBRANCH  23  24
ENDBRANCH   4  23
TORSDOF 8
ENDMDL
