MODEL 1
REMARK VINA RESULT:      -7.4      0.000      0.000
REMARK  Name = 
REMARK  11 active torsions:
REMARK  status: ('A' for Active; 'I' for Inactive)
REMARK    1  A    between atoms: C_1  and  O_2
REMARK    2  A    between atoms: O_2  and  C_3
REMARK    3  A    between atoms: C_3  and  C_5
REMARK    4  A    between atoms: C_5  and  C_6
REMARK    5  A    between atoms: C_5  and  N_13
REMARK    6  A    between atoms: C_6  and  C_7
REMARK    7  A    between atoms: C_16  and  O_17
REMARK    8  A    between atoms: O_17  and  C_18
REMARK    9  A    between atoms: C_20  and  N_21
REMARK   10  A    between atoms: N_24  and  C_25
REMARK   11  A    between atoms: C_25  and  C_26
REMARK                            x       y       z     vdW  Elec       q    Type
REMARK                         _______ _______ _______ _____ _____    ______ ____
ROOT
ATOM      1  N   UNL     1       1.847   8.322  19.820  0.00  0.00    +0.000 N 
ATOM      2  C   UNL     1       1.772   6.940  19.662  0.00  0.00    +0.000 A 
ATOM      3  N   UNL     1       1.730   6.244  20.778  0.00  0.00    +0.000 NA
ATOM      4  C   UNL     1       2.054   4.945  20.670  0.00  0.00    +0.000 A 
ATOM      5  N   UNL     1       2.578   4.368  19.608  0.00  0.00    +0.000 NA
ATOM      6  C   UNL     1       2.699   5.196  18.616  0.00  0.00    +0.000 A 
ATOM      7  N   UNL     1       2.174   6.411  18.518  0.00  0.00    +0.000 NA
ATOM      8  H   UNL     1       1.574   8.505  20.787  0.00  0.00    +0.000 HD
ENDROOT
BRANCH   6   9
ATOM      9  N   UNL     1       4.037   5.136  17.992  0.00  0.00    +0.000 NA
ATOM     10  C   UNL     1       5.274   5.080  18.909  0.00  0.00    +0.000 C 
ATOM     11  C   UNL     1       6.559   5.128  17.949  0.00  0.00    +0.000 C 
ATOM     12  N   UNL     1       6.115   5.242  16.409  0.00  0.00    +0.000 N 
ATOM     13  C   UNL     1       5.275   6.523  16.249  0.00  0.00    +0.000 C 
ATOM     14  C   UNL     1       4.151   6.527  17.277  0.00  0.00    +0.000 C 
ATOM     15  C   UNL     1       5.166   4.027  16.076  0.00  0.00    +0.000 C 
ATOM     16  C   UNL     1       4.092   3.868  17.152  0.00  0.00    +0.000 C 
BRANCH  12  17
ATOM     17  C   UNL     1       7.227   5.195  15.332  0.00  0.00    +0.000 C 
BRANCH  17  18
ATOM     18  C   UNL     1       6.880   4.595  13.971  0.00  0.00    +0.000 C 
ATOM     19 CL   UNL     1       7.841   5.315  12.672  0.00  0.00    +0.000 Cl
ENDBRANCH  17  18
ENDBRANCH  12  17
ENDBRANCH   6   9
BRANCH   4  20
ATOM     20  O   UNL     1       2.152   4.149  21.784  0.00  0.00    +0.000 OA
ATOM     21  C   UNL     1       1.962   2.770  21.529  0.00  0.00    +0.000 C 
ENDBRANCH   4  20
BRANCH   1  22
ATOM     22  C   UNL     1       1.136   9.233  18.871  0.00  0.00    +0.000 C 
BRANCH  22  23
ATOM     23  C   UNL     1       2.092  10.272  18.213  0.00  0.00    +0.000 C 
ATOM     24  O   UNL     1       2.823  10.071  17.243  0.00  0.00    +0.000 OA
BRANCH  23  26
ATOM     25  C   UNL     1       2.437  12.654  18.186  0.00  0.00    +0.000 C 
ATOM     26  O   UNL     1       1.962  11.479  18.847  0.00  0.00    +0.000 OA
ENDBRANCH  23  26
ENDBRANCH  22  23
BRANCH  22  27
ATOM     27  C   UNL     1       0.020  10.010  19.638  0.00  0.00    +0.000 C 
BRANCH  27  28
ATOM     28  C   UNL     1      -1.169  10.351  18.767  0.00  0.00    +0.000 A 
ATOM     29  C   UNL     1      -1.345   9.729  17.522  0.00  0.00    +0.000 A 
ATOM     30  C   UNL     1      -2.373  10.136  16.671  0.00  0.00    +0.000 A 
ATOM     31  C   UNL     1      -3.243  11.150  17.063  0.00  0.00    +0.000 A 
ATOM     32  C   UNL     1      -3.117  11.727  18.324  0.00  0.00    +0.000 A 
ATOM     33  C   UNL     1      -2.093  11.320  19.178  0.00  0.00    +0.000 A 
ENDBRANCH  27  28
ENDBRANCH  22  27
ENDBRANCH   1  22
TORSDOF 9
ENDMDL
MODEL 2
REMARK VINA RESULT:      -7.2      1.583      2.269
REMARK  Name = 
REMARK  11 active torsions:
REMARK  status: ('A' for Active; 'I' for Inactive)
REMARK    1  A    between atoms: C_1  and  O_2
REMARK    2  A    between atoms: O_2  and  C_3
REMARK    3  A    between atoms: C_3  and  C_5
REMARK    4  A    between atoms: C_5  and  C_6
REMARK    5  A    between atoms: C_5  and  N_13
REMARK    6  A    between atoms: C_6  and  C_7
REMARK    7  A    between atoms: C_16  and  O_17
REMARK    8  A    between atoms: O_17  and  C_18
REMARK    9  A    between atoms: C_20  and  N_21
REMARK   10  A    between atoms: N_24  and  C_25
REMARK   11  A    between atoms: C_25  and  C_26
REMARK                            x       y       z     vdW  Elec       q    Type
REMARK                         _______ _______ _______ _____ _____    ______ ____
ROOT
ATOM      1  N   UNL     1       1.952   7.343  21.153  0.00  0.00    +0.000 N 
ATOM      2  C   UNL     1       1.648   6.292  20.291  0.00  0.00    +0.000 A 
ATOM      3  N   UNL     1       1.315   5.160  20.874  0.00  0.00    +0.000 NA
ATOM      4  C   UNL     1       1.407   4.058  20.111  0.00  0.00    +0.000 A 
ATOM      5  N   UNL     1       1.966   3.992  18.919  0.00  0.00    +0.000 NA
ATOM      6  C   UNL     1       2.381   5.153  18.513  0.00  0.00    +0.000 A 
ATOM      7  N   UNL     1       2.109   6.334  19.052  0.00  0.00    +0.000 NA
ATOM      8  H   UNL     1       1.579   7.071  22.063  0.00  0.00    +0.000 HD
ENDROOT
BRANCH   6   9
ATOM      9  N   UNL     1       3.762   5.105  17.989  0.00  0.00    +0.000 NA
ATOM     10  C   UNL     1       4.928   5.043  18.995  0.00  0.00    +0.000 C 
ATOM     11  C   UNL     1       6.280   5.107  18.134  0.00  0.00    +0.000 C 
ATOM     12  N   UNL     1       5.951   5.236  16.566  0.00  0.00    +0.000 N 
ATOM     13  C   UNL     1       5.119   6.516  16.357  0.00  0.00    +0.000 C 
ATOM     14  C   UNL     1       3.922   6.504  17.299  0.00  0.00    +0.000 C 
ATOM     15  C   UNL     1       5.034   4.020  16.150  0.00  0.00    +0.000 C 
ATOM     16  C   UNL     1       3.885   3.847  17.143  0.00  0.00    +0.000 C 
BRANCH  12  17
ATOM     17  C   UNL     1       7.140   5.204  15.574  0.00  0.00    +0.000 C 
BRANCH  17  18
ATOM     18  C   UNL     1       6.872   4.720  14.151  0.00  0.00    +0.000 C 
ATOM     19 CL   UNL     1       7.986   5.450  12.988  0.00  0.00    +0.000 Cl
ENDBRANCH  17  18
ENDBRANCH  12  17
ENDBRANCH   6   9
BRANCH   4  20
ATOM     20  O   UNL     1       1.191   2.812  20.644  0.00  0.00    +0.000 OA
ATOM     21  C   UNL     1       2.220   2.365  21.506  0.00  0.00    +0.000 C 
ENDBRANCH   4  20
BRANCH   1  22
ATOM     22  C   UNL     1       1.569   8.744  20.803  0.00  0.00    +0.000 C 
BRANCH  22  23
ATOM     23  C   UNL     1       0.318   9.236  21.590  0.00  0.00    +0.000 C 
ATOM     24  O   UNL     1      -0.734   8.614  21.740  0.00  0.00    +0.000 OA
BRANCH  23  26
ATOM     25  C   UNL     1      -0.453  11.449  22.139  0.00  0.00    +0.000 C 
ATOM     26  O   UNL     1       0.579  10.460  22.146  0.00  0.00    +0.000 OA
ENDBRANCH  23  26
ENDBRANCH  22  23
BRANCH  22  27
ATOM     27  C   UNL     1       1.250   8.826  19.276  0.00  0.00    +0.000 C 
BRANCH  27  28
ATOM     28  C   UNL     1       0.671  10.162  18.864  0.00  0.00    +0.000 A 
ATOM     29  C   UNL     1       1.458  11.322  18.892  0.00  0.00    +0.000 A 
ATOM     30  C   UNL     1       0.886  12.568  18.629  0.00  0.00    +0.000 A 
ATOM     31  C   UNL     1      -0.468  12.662  18.318  0.00  0.00    +0.000 A 
ATOM     32  C   UNL     1      -1.242  11.508  18.221  0.00  0.00    +0.000 A 
ATOM     33  C   UNL     1      -0.672  10.262  18.479  0.00  0.00    +0.000 A 
ENDBRANCH  27  28
ENDBRANCH  22  27
ENDBRANCH   1  22
TORSDOF 9
ENDMDL
MODEL 3
REMARK VINA RESULT:      -6.9      2.202      3.080
REMARK  Name = 
REMARK  11 active torsions:
REMARK  status: ('A' for Active; 'I' for Inactive)
REMARK    1  A    between atoms: C_1  and  O_2
REMARK    2  A    between atoms: O_2  and  C_3
REMARK    3  A    between atoms: C_3  and  C_5
REMARK    4  A    between atoms: C_5  and  C_6
REMARK    5  A    between atoms: C_5  and  N_13
REMARK    6  A    between atoms: C_6  and  C_7
REMARK    7  A    between atoms: C_16  and  O_17
REMARK    8  A    between atoms: O_17  and  C_18
REMARK    9  A    between atoms: C_20  and  N_21
REMARK   10  A    between atoms: N_24  and  C_25
REMARK   11  A    between atoms: C_25  and  C_26
REMARK                            x       y       z     vdW  Elec       q    Type
REMARK                         _______ _______ _______ _____ _____    ______ ____
ROOT
ATOM      1  N   UNL     1       1.752   7.285  21.314  0.00  0.00    +0.000 N 
ATOM      2  C   UNL     1       1.522   6.297  20.359  0.00  0.00    +0.000 A 
ATOM      3  N   UNL     1       1.252   5.101  20.836  0.00  0.00    +0.000 NA
ATOM      4  C   UNL     1       1.419   4.078  19.981  0.00  0.00    +0.000 A 
ATOM      5  N   UNL     1       1.994   4.150  18.797  0.00  0.00    +0.000 NA
ATOM      6  C   UNL     1       2.343   5.365  18.501  0.00  0.00    +0.000 A 
ATOM      7  N   UNL     1       1.993   6.476  19.136  0.00  0.00    +0.000 NA
ATOM      8  H   UNL     1       1.386   6.912  22.191  0.00  0.00    +0.000 HD
ENDROOT
BRANCH   6   9
ATOM      9  N   UNL     1       3.730   5.445  17.998  0.00  0.00    +0.000 NA
ATOM     10  C   UNL     1       4.203   4.395  16.975  0.00  0.00    +0.000 C 
ATOM     11  C   UNL     1       5.759   4.684  16.709  0.00  0.00    +0.000 C 
ATOM     12  N   UNL     1       6.270   5.919  17.600  0.00  0.00    +0.000 N 
ATOM     13  C   UNL     1       6.033   5.568  19.082  0.00  0.00    +0.000 C 
ATOM     14  C   UNL     1       4.583   5.147  19.280  0.00  0.00    +0.000 C 
ATOM     15  C   UNL     1       5.366   7.171  17.277  0.00  0.00    +0.000 C 
ATOM     16  C   UNL     1       3.886   6.791  17.306  0.00  0.00    +0.000 C 
BRANCH  12  17
ATOM     17  C   UNL     1       7.725   6.406  17.393  0.00  0.00    +0.000 C 
BRANCH  17  18
ATOM     18  C   UNL     1       8.328   7.332  18.448  0.00  0.00    +0.000 C 
ATOM     19 CL   UNL     1       8.249   9.028  17.954  0.00  0.00    +0.000 Cl
ENDBRANCH  17  18
ENDBRANCH  12  17
ENDBRANCH   6   9
BRANCH   4  20
ATOM     20  O   UNL     1       1.273   2.779  20.400  0.00  0.00    +0.000 OA
ATOM     21  C   UNL     1       1.619   2.565  21.755  0.00  0.00    +0.000 C 
ENDBRANCH   4  20
BRANCH   1  22
ATOM     22  C   UNL     1       1.288   8.687  21.081  0.00  0.00    +0.000 C 
BRANCH  22  23
ATOM     23  C   UNL     1       0.065   9.066  21.967  0.00  0.00    +0.000 C 
ATOM     24  O   UNL     1      -0.953   8.390  22.124  0.00  0.00    +0.000 OA
BRANCH  23  26
ATOM     25  C   UNL     1      -0.739  11.227  22.657  0.00  0.00    +0.000 C 
ATOM     26  O   UNL     1       0.308  10.256  22.599  0.00  0.00    +0.000 OA
ENDBRANCH  23  26
ENDBRANCH  22  23
BRANCH  22  27
ATOM     27  C   UNL     1       0.879   8.852  19.583  0.00  0.00    +0.000 C 
BRANCH  27  28
ATOM     28  C   UNL     1       0.323  10.225  19.270  0.00  0.00    +0.000 A 
ATOM     29  C   UNL     1      -1.018  10.384  18.892  0.00  0.00    +0.000 A 
ATOM     30  C   UNL     1      -1.492  11.633  18.487  0.00  0.00    +0.000 A 
ATOM     31  C   UNL     1      -0.637  12.733  18.475  0.00  0.00    +0.000 A 
ATOM     32  C   UNL     1       0.678  12.598  18.913  0.00  0.00    +0.000 A 
ATOM     33  C   UNL     1       1.152  11.352  19.323  0.00  0.00    +0.000 A 
ENDBRANCH  27  28
ENDBRANCH  22  27
ENDBRANCH   1  22
TORSDOF 9
ENDMDL
MODEL 4
REMARK VINA RESULT:      -6.6      3.227      8.143
REMARK  Name = 
REMARK  11 active torsions:
REMARK  status: ('A' for Active; 'I' for Inactive)
REMARK    1  A    between atoms: C_1  and  O_2
REMARK    2  A    between atoms: O_2  and  C_3
REMARK    3  A    between atoms: C_3  and  C_5
REMARK    4  A    between atoms: C_5  and  C_6
REMARK    5  A    between atoms: C_5  and  N_13
REMARK    6  A    between atoms: C_6  and  C_7
REMARK    7  A    between atoms: C_16  and  O_17
REMARK    8  A    between atoms: O_17  and  C_18
REMARK    9  A    between atoms: C_20  and  N_21
REMARK   10  A    between atoms: N_24  and  C_25
REMARK   11  A    between atoms: C_25  and  C_26
REMARK                            x       y       z     vdW  Elec       q    Type
REMARK                         _______ _______ _______ _____ _____    ______ ____
ROOT
ATOM      1  N   UNL     1       1.377   6.667  19.930  0.00  0.00    +0.000 N 
ATOM      2  C   UNL     1       1.619   7.946  20.427  0.00  0.00    +0.000 A 
ATOM      3  N   UNL     1       1.334   8.123  21.699  0.00  0.00    +0.000 NA
ATOM      4  C   UNL     1       1.179   9.398  22.093  0.00  0.00    +0.000 A 
ATOM      5  N   UNL     1       1.104  10.445  21.297  0.00  0.00    +0.000 NA
ATOM      6  C   UNL     1       1.261  10.121  20.051  0.00  0.00    +0.000 A 
ATOM      7  N   UNL     1       1.682   8.956  19.574  0.00  0.00    +0.000 NA
ATOM      8  H   UNL     1       1.284   6.066  20.750  0.00  0.00    +0.000 HD
ENDROOT
BRANCH   6   9
ATOM      9  N   UNL     1       0.230  10.719  19.178  0.00  0.00    +0.000 NA
ATOM     10  C   UNL     1       0.480  12.126  18.601  0.00  0.00    +0.000 C 
ATOM     11  C   UNL     1      -0.846  12.532  17.795  0.00  0.00    +0.000 C 
ATOM     12  N   UNL     1      -1.951  11.370  17.893  0.00  0.00    +0.000 N 
ATOM     13  C   UNL     1      -2.275  11.144  19.382  0.00  0.00    +0.000 C 
ATOM     14  C   UNL     1      -0.983  10.912  20.154  0.00  0.00    +0.000 C 
ATOM     15  C   UNL     1      -1.312  10.032  17.354  0.00  0.00    +0.000 C 
ATOM     16  C   UNL     1       0.067   9.804  17.973  0.00  0.00    +0.000 C 
BRANCH  12  17
ATOM     17  C   UNL     1      -3.260  11.548  17.083  0.00  0.00    +0.000 C 
BRANCH  17  18
ATOM     18  C   UNL     1      -3.798  10.341  16.318  0.00  0.00    +0.000 C 
ATOM     19 CL   UNL     1      -3.422  10.437  14.592  0.00  0.00    +0.000 Cl
ENDBRANCH  17  18
ENDBRANCH  12  17
ENDBRANCH   6   9
BRANCH   4  20
ATOM     20  O   UNL     1       0.772   9.696  23.370  0.00  0.00    +0.000 OA
ATOM     21  C   UNL     1      -0.606   9.992  23.485  0.00  0.00    +0.000 C 
ENDBRANCH   4  20
BRANCH   1  22
ATOM     22  C   UNL     1       2.290   6.065  18.911  0.00  0.00    +0.000 C 
BRANCH  22  23
ATOM     23  C   UNL     1       1.849   4.632  18.487  0.00  0.00    +0.000 C 
ATOM     24  O   UNL     1       1.424   4.304  17.379  0.00  0.00    +0.000 OA
BRANCH  23  26
ATOM     25  C   UNL     1       0.985   2.895  19.911  0.00  0.00    +0.000 C 
ATOM     26  O   UNL     1       2.052   3.764  19.526  0.00  0.00    +0.000 OA
ENDBRANCH  23  26
ENDBRANCH  22  23
BRANCH  22  27
ATOM     27  C   UNL     1       3.734   5.979  19.499  0.00  0.00    +0.000 C 
BRANCH  27  28
ATOM     28  C   UNL     1       4.786   5.710  18.445  0.00  0.00    +0.000 A 
ATOM     29  C   UNL     1       5.851   4.834  18.705  0.00  0.00    +0.000 A 
ATOM     30  C   UNL     1       6.882   4.685  17.776  0.00  0.00    +0.000 A 
ATOM     31  C   UNL     1       6.849   5.392  16.576  0.00  0.00    +0.000 A 
ATOM     32  C   UNL     1       5.762   6.213  16.282  0.00  0.00    +0.000 A 
ATOM     33  C   UNL     1       4.728   6.360  17.206  0.00  0.00    +0.000 A 
ENDBRANCH  27  28
ENDBRANCH  22  27
ENDBRANCH   1  22
TORSDOF 9
ENDMDL
MODEL 5
REMARK VINA RESULT:      -6.5      1.605      2.588
REMARK  Name = 
REMARK  11 active torsions:
REMARK  status: ('A' for Active; 'I' for Inactive)
REMARK    1  A    between atoms: C_1  and  O_2
REMARK    2  A    between atoms: O_2  and  C_3
REMARK    3  A    between atoms: C_3  and  C_5
REMARK    4  A    between atoms: C_5  and  C_6
REMARK    5  A    between atoms: C_5  and  N_13
REMARK    6  A    between atoms: C_6  and  C_7
REMARK    7  A    between atoms: C_16  and  O_17
REMARK    8  A    between atoms: O_17  and  C_18
REMARK    9  A    between atoms: C_20  and  N_21
REMARK   10  A    between atoms: N_24  and  C_25
REMARK   11  A    between atoms: C_25  and  C_26
REMARK                            x       y       z     vdW  Elec       q    Type
REMARK                         _______ _______ _______ _____ _____    ______ ____
ROOT
ATOM      1  N   UNL     1       1.782   8.394  20.652  0.00  0.00    +0.000 N 
ATOM      2  C   UNL     1       1.650   7.056  20.285  0.00  0.00    +0.000 A 
ATOM      3  N   UNL     1       1.753   6.187  21.268  0.00  0.00    +0.000 NA
ATOM      4  C   UNL     1       2.025   4.922  20.905  0.00  0.00    +0.000 A 
ATOM      5  N   UNL     1       2.373   4.526  19.698  0.00  0.00    +0.000 NA
ATOM      6  C   UNL     1       2.369   5.504  18.846  0.00  0.00    +0.000 A 
ATOM      7  N   UNL     1       1.867   6.720  19.025  0.00  0.00    +0.000 NA
ATOM      8  H   UNL     1       1.658   8.416  21.665  0.00  0.00    +0.000 HD
ENDROOT
BRANCH   6   9
ATOM      9  N   UNL     1       3.600   5.545  18.029  0.00  0.00    +0.000 NA
ATOM     10  C   UNL     1       3.851   6.777  17.138  0.00  0.00    +0.000 C 
ATOM     11  C   UNL     1       5.193   6.478  16.311  0.00  0.00    +0.000 C 
ATOM     12  N   UNL     1       5.775   5.026  16.675  0.00  0.00    +0.000 N 
ATOM     13  C   UNL     1       4.693   3.981  16.340  0.00  0.00    +0.000 C 
ATOM     14  C   UNL     1       3.383   4.371  17.013  0.00  0.00    +0.000 C 
ATOM     15  C   UNL     1       6.007   4.961  18.234  0.00  0.00    +0.000 C 
ATOM     16  C   UNL     1       4.783   5.484  18.985  0.00  0.00    +0.000 C 
BRANCH  12  17
ATOM     17  C   UNL     1       7.128   4.612  16.046  0.00  0.00    +0.000 C 
BRANCH  17  18
ATOM     18  C   UNL     1       7.351   4.909  14.565  0.00  0.00    +0.000 C 
ATOM     19 CL   UNL     1       6.432   3.808  13.530  0.00  0.00    +0.000 Cl
ENDBRANCH  17  18
ENDBRANCH  12  17
ENDBRANCH   6   9
BRANCH   4  20
ATOM     20  O   UNL     1       2.264   3.955  21.850  0.00  0.00    +0.000 OA
ATOM     21  C   UNL     1       1.594   2.732  21.608  0.00  0.00    +0.000 C 
ENDBRANCH   4  20
BRANCH   1  22
ATOM     22  C   UNL     1       0.964   9.448  19.978  0.00  0.00    +0.000 C 
BRANCH  22  23
ATOM     23  C   UNL     1       1.390   9.678  18.497  0.00  0.00    +0.000 C 
ATOM     24  O   UNL     1       2.519   9.978  18.107  0.00  0.00    +0.000 OA
BRANCH  23  26
ATOM     25  C   UNL     1      -0.938  10.033  18.001  0.00  0.00    +0.000 C 
ATOM     26  O   UNL     1       0.323   9.445  17.672  0.00  0.00    +0.000 OA
ENDBRANCH  23  26
ENDBRANCH  22  23
BRANCH  22  27
ATOM     27  C   UNL     1       1.123  10.796  20.749  0.00  0.00    +0.000 C 
BRANCH  27  28
ATOM     28  C   UNL     1      -0.159  11.255  21.409  0.00  0.00    +0.000 A 
ATOM     29  C   UNL     1      -0.930  12.280  20.839  0.00  0.00    +0.000 A 
ATOM     30  C   UNL     1      -2.043  12.781  21.515  0.00  0.00    +0.000 A 
ATOM     31  C   UNL     1      -2.407  12.252  22.751  0.00  0.00    +0.000 A 
ATOM     32  C   UNL     1      -1.686  11.190  23.292  0.00  0.00    +0.000 A 
ATOM     33  C   UNL     1      -0.576  10.684  22.617  0.00  0.00    +0.000 A 
ENDBRANCH  27  28
ENDBRANCH  22  27
ENDBRANCH   1  22
TORSDOF 9
ENDMDL
MODEL 6
REMARK VINA RESULT:      -6.5      2.299      3.148
REMARK  Name = 
REMARK  11 active torsions:
REMARK  status: ('A' for Active; 'I' for Inactive)
REMARK    1  A    between atoms: C_1  and  O_2
REMARK    2  A    between atoms: O_2  and  C_3
REMARK    3  A    between atoms: C_3  and  C_5
REMARK    4  A    between atoms: C_5  and  C_6
REMARK    5  A    between atoms: C_5  and  N_13
REMARK    6  A    between atoms: C_6  and  C_7
REMARK    7  A    between atoms: C_16  and  O_17
REMARK    8  A    between atoms: O_17  and  C_18
REMARK    9  A    between atoms: C_20  and  N_21
REMARK   10  A    between atoms: N_24  and  C_25
REMARK   11  A    between atoms: C_25  and  C_26
REMARK                            x       y       z     vdW  Elec       q    Type
REMARK                         _______ _______ _______ _____ _____    ______ ____
ROOT
ATOM      1  N   UNL     1       1.761   7.462  21.295  0.00  0.00    +0.000 N 
ATOM      2  C   UNL     1       1.565   6.425  20.385  0.00  0.00    +0.000 A 
ATOM      3  N   UNL     1       1.341   5.242  20.916  0.00  0.00    +0.000 NA
ATOM      4  C   UNL     1       1.543   4.189  20.106  0.00  0.00    +0.000 A 
ATOM      5  N   UNL     1       2.111   4.230  18.918  0.00  0.00    +0.000 NA
ATOM      6  C   UNL     1       2.414   5.442  18.566  0.00  0.00    +0.000 A 
ATOM      7  N   UNL     1       2.026   6.567  19.154  0.00  0.00    +0.000 NA
ATOM      8  H   UNL     1       1.411   7.116  22.189  0.00  0.00    +0.000 HD
ENDROOT
BRANCH   6   9
ATOM      9  N   UNL     1       3.796   5.551  18.054  0.00  0.00    +0.000 NA
ATOM     10  C   UNL     1       4.270   4.537  16.995  0.00  0.00    +0.000 C 
ATOM     11  C   UNL     1       5.821   4.849  16.725  0.00  0.00    +0.000 C 
ATOM     12  N   UNL     1       6.328   6.061  17.649  0.00  0.00    +0.000 N 
ATOM     13  C   UNL     1       6.108   5.662  19.121  0.00  0.00    +0.000 C 
ATOM     14  C   UNL     1       4.663   5.222  19.319  0.00  0.00    +0.000 C 
ATOM     15  C   UNL     1       5.409   7.314  17.372  0.00  0.00    +0.000 C 
ATOM     16  C   UNL     1       3.933   6.919  17.402  0.00  0.00    +0.000 C 
BRANCH  12  17
ATOM     17  C   UNL     1       7.777   6.568  17.445  0.00  0.00    +0.000 C 
BRANCH  17  18
ATOM     18  C   UNL     1       7.997   8.074  17.317  0.00  0.00    +0.000 C 
ATOM     19 CL   UNL     1       8.682   8.764  18.794  0.00  0.00    +0.000 Cl
ENDBRANCH  17  18
ENDBRANCH  12  17
ENDBRANCH   6   9
BRANCH   4  20
ATOM     20  O   UNL     1       1.447   2.905  20.583  0.00  0.00    +0.000 OA
ATOM     21  C   UNL     1       1.733   1.908  19.622  0.00  0.00    +0.000 C 
ENDBRANCH   4  20
BRANCH   1  22
ATOM     22  C   UNL     1       1.245   8.834  21.001  0.00  0.00    +0.000 C 
BRANCH  22  23
ATOM     23  C   UNL     1       0.017   9.211  21.883  0.00  0.00    +0.000 C 
ATOM     24  O   UNL     1      -0.926   8.471  22.166  0.00  0.00    +0.000 OA
BRANCH  23  26
ATOM     25  C   UNL     1      -0.970  11.144  22.922  0.00  0.00    +0.000 C 
ATOM     26  O   UNL     1       0.164  10.490  22.349  0.00  0.00    +0.000 OA
ENDBRANCH  23  26
ENDBRANCH  22  23
BRANCH  22  27
ATOM     27  C   UNL     1       0.814   8.914  19.502  0.00  0.00    +0.000 C 
BRANCH  27  28
ATOM     28  C   UNL     1       0.377  10.302  19.086  0.00  0.00    +0.000 A 
ATOM     29  C   UNL     1       1.282  11.374  19.112  0.00  0.00    +0.000 A 
ATOM     30  C   UNL     1       0.843  12.672  18.845  0.00  0.00    +0.000 A 
ATOM     31  C   UNL     1      -0.495  12.906  18.532  0.00  0.00    +0.000 A 
ATOM     32  C   UNL     1      -1.385  11.838  18.438  0.00  0.00    +0.000 A 
ATOM     33  C   UNL     1      -0.948  10.540  18.700  0.00  0.00    +0.000 A 
ENDBRANCH  27  28
ENDBRANCH  22  27
ENDBRANCH   1  22
TORSDOF 9
ENDMDL
MODEL 7
REMARK VINA RESULT:      -6.4      3.711      8.418
REMARK  Name = 
REMARK  11 active torsions:
REMARK  status: ('A' for Active; 'I' for Inactive)
REMARK    1  A    between atoms: C_1  and  O_2
REMARK    2  A    between atoms: O_2  and  C_3
REMARK    3  A    between atoms: C_3  and  C_5
REMARK    4  A    between atoms: C_5  and  C_6
REMARK    5  A    between atoms: C_5  and  N_13
REMARK    6  A    between atoms: C_6  and  C_7
REMARK    7  A    between atoms: C_16  and  O_17
REMARK    8  A    between atoms: O_17  and  C_18
REMARK    9  A    between atoms: C_20  and  N_21
REMARK   10  A    between atoms: N_24  and  C_25
REMARK   11  A    between atoms: C_25  and  C_26
REMARK                            x       y       z     vdW  Elec       q    Type
REMARK                         _______ _______ _______ _____ _____    ______ ____
ROOT
ATOM      1  N   UNL     1       1.388   6.649  19.860  0.00  0.00    +0.000 N 
ATOM      2  C   UNL     1       1.635   7.927  20.355  0.00  0.00    +0.000 A 
ATOM      3  N   UNL     1       1.387   8.096  21.637  0.00  0.00    +0.000 NA
ATOM      4  C   UNL     1       1.233   9.368  22.041  0.00  0.00    +0.000 A 
ATOM      5  N   UNL     1       1.125  10.418  21.254  0.00  0.00    +0.000 NA
ATOM      6  C   UNL     1       1.247  10.101  20.001  0.00  0.00    +0.000 A 
ATOM      7  N   UNL     1       1.663   8.941  19.506  0.00  0.00    +0.000 NA
ATOM      8  H   UNL     1       1.325   6.043  20.679  0.00  0.00    +0.000 HD
ENDROOT
BRANCH   6   9
ATOM      9  N   UNL     1       0.185  10.694  19.163  0.00  0.00    +0.000 NA
ATOM     10  C   UNL     1       0.417  12.094  18.563  0.00  0.00    +0.000 C 
ATOM     11  C   UNL     1      -0.938  12.498  17.805  0.00  0.00    +0.000 C 
ATOM     12  N   UNL     1      -2.043  11.341  17.957  0.00  0.00    +0.000 N 
ATOM     13  C   UNL     1      -2.309  11.131  19.460  0.00  0.00    +0.000 C 
ATOM     14  C   UNL     1      -0.988  10.902  20.184  0.00  0.00    +0.000 C 
ATOM     15  C   UNL     1      -1.430   9.994  17.408  0.00  0.00    +0.000 C 
ATOM     16  C   UNL     1      -0.028   9.768  17.975  0.00  0.00    +0.000 C 
BRANCH  12  17
ATOM     17  C   UNL     1      -3.381  11.516  17.198  0.00  0.00    +0.000 C 
BRANCH  17  18
ATOM     18  C   UNL     1      -4.665  11.074  17.898  0.00  0.00    +0.000 C 
ATOM     19 CL   UNL     1      -5.707  12.448  18.286  0.00  0.00    +0.000 Cl
ENDBRANCH  17  18
ENDBRANCH  12  17
ENDBRANCH   6   9
BRANCH   4  20
ATOM     20  O   UNL     1       0.863   9.656  23.332  0.00  0.00    +0.000 OA
ATOM     21  C   UNL     1      -0.510   9.959  23.486  0.00  0.00    +0.000 C 
ENDBRANCH   4  20
BRANCH   1  22
ATOM     22  C   UNL     1       2.275   6.059  18.811  0.00  0.00    +0.000 C 
BRANCH  22  23
ATOM     23  C   UNL     1       1.843   4.619  18.405  0.00  0.00    +0.000 C 
ATOM     24  O   UNL     1       1.295   4.298  17.349  0.00  0.00    +0.000 OA
BRANCH  23  26
ATOM     25  C   UNL     1       2.611   2.418  19.003  0.00  0.00    +0.000 C 
ATOM     26  O   UNL     1       2.212   3.737  19.384  0.00  0.00    +0.000 OA
ENDBRANCH  23  26
ENDBRANCH  22  23
BRANCH  22  27
ATOM     27  C   UNL     1       3.740   5.998  19.347  0.00  0.00    +0.000 C 
BRANCH  27  28
ATOM     28  C   UNL     1       4.765   5.814  18.249  0.00  0.00    +0.000 A 
ATOM     29  C   UNL     1       4.639   6.498  17.031  0.00  0.00    +0.000 A 
ATOM     30  C   UNL     1       5.517   6.232  15.980  0.00  0.00    +0.000 A 
ATOM     31  C   UNL     1       6.536   5.297  16.142  0.00  0.00    +0.000 A 
ATOM     32  C   UNL     1       6.710   4.662  17.370  0.00  0.00    +0.000 A 
ATOM     33  C   UNL     1       5.837   4.930  18.423  0.00  0.00    +0.000 A 
ENDBRANCH  27  28
ENDBRANCH  22  27
ENDBRANCH   1  22
TORSDOF 9
ENDMDL
MODEL 8
REMARK VINA RESULT:      -6.4      7.158     10.750
REMARK  Name = 
REMARK  11 active torsions:
REMARK  status: ('A' for Active; 'I' for Inactive)
REMARK    1  A    between atoms: C_1  and  O_2
REMARK    2  A    between atoms: O_2  and  C_3
REMARK    3  A    between atoms: C_3  and  C_5
REMARK    4  A    between atoms: C_5  and  C_6
REMARK    5  A    between atoms: C_5  and  N_13
REMARK    6  A    between atoms: C_6  and  C_7
REMARK    7  A    between atoms: C_16  and  O_17
REMARK    8  A    between atoms: O_17  and  C_18
REMARK    9  A    between atoms: C_20  and  N_21
REMARK   10  A    between atoms: N_24  and  C_25
REMARK   11  A    between atoms: C_25  and  C_26
REMARK                            x       y       z     vdW  Elec       q    Type
REMARK                         _______ _______ _______ _____ _____    ______ ____
ROOT
ATOM      1  N   UNL     1      -1.224  12.900  17.987  0.00  0.00    +0.000 N 
ATOM      2  C   UNL     1      -2.169  11.879  17.905  0.00  0.00    +0.000 A 
ATOM      3  N   UNL     1      -2.455  11.469  16.688  0.00  0.00    +0.000 NA
ATOM      4  C   UNL     1      -3.610  10.798  16.552  0.00  0.00    +0.000 A 
ATOM      5  N   UNL     1      -4.546  10.681  17.473  0.00  0.00    +0.000 NA
ATOM      6  C   UNL     1      -4.202  11.250  18.588  0.00  0.00    +0.000 A 
ATOM      7  N   UNL     1      -2.999  11.701  18.919  0.00  0.00    +0.000 NA
ATOM      8  H   UNL     1      -0.755  12.916  17.081  0.00  0.00    +0.000 HD
ENDROOT
BRANCH   6   9
ATOM      9  N   UNL     1      -5.270  12.115  19.131  0.00  0.00    +0.000 NA
ATOM     10  C   UNL     1      -5.950  13.125  18.187  0.00  0.00    +0.000 C 
ATOM     11  C   UNL     1      -6.974  13.974  19.084  0.00  0.00    +0.000 C 
ATOM     12  N   UNL     1      -6.913  13.502  20.619  0.00  0.00    +0.000 N 
ATOM     13  C   UNL     1      -5.469  13.696  21.120  0.00  0.00    +0.000 C 
ATOM     14  C   UNL     1      -4.502  13.010  20.164  0.00  0.00    +0.000 C 
ATOM     15  C   UNL     1      -7.212  11.953  20.673  0.00  0.00    +0.000 C 
ATOM     16  C   UNL     1      -6.384  11.206  19.629  0.00  0.00    +0.000 C 
BRANCH  12  17
ATOM     17  C   UNL     1      -7.913  14.143  21.612  0.00  0.00    +0.000 C 
BRANCH  17  18
ATOM     18  C   UNL     1      -7.911  15.664  21.749  0.00  0.00    +0.000 C 
ATOM     19 CL   UNL     1      -7.157  16.186  23.261  0.00  0.00    +0.000 Cl
ENDBRANCH  17  18
ENDBRANCH  12  17
ENDBRANCH   6   9
BRANCH   4  20
ATOM     20  O   UNL     1      -4.063  10.419  15.313  0.00  0.00    +0.000 OA
ATOM     21  C   UNL     1      -3.036  10.097  14.394  0.00  0.00    +0.000 C 
ENDBRANCH   4  20
BRANCH   1  22
ATOM     22  C   UNL     1      -0.240  12.931  19.112  0.00  0.00    +0.000 C 
BRANCH  22  23
ATOM     23  C   UNL     1       0.815  14.066  18.950  0.00  0.00    +0.000 C 
ATOM     24  O   UNL     1       1.939  13.946  18.463  0.00  0.00    +0.000 OA
BRANCH  23  26
ATOM     25  C   UNL     1       0.441  16.414  18.574  0.00  0.00    +0.000 C 
ATOM     26  O   UNL     1       0.284  15.250  19.389  0.00  0.00    +0.000 OA
ENDBRANCH  23  26
ENDBRANCH  22  23
BRANCH  22  27
ATOM     27  C   UNL     1       0.516  11.566  19.175  0.00  0.00    +0.000 C 
BRANCH  27  28
ATOM     28  C   UNL     1       0.251  10.802  20.454  0.00  0.00    +0.000 A 
ATOM     29  C   UNL     1       0.495   9.423  20.527  0.00  0.00    +0.000 A 
ATOM     30  C   UNL     1       0.135   8.703  21.668  0.00  0.00    +0.000 A 
ATOM     31  C   UNL     1      -0.453   9.357  22.748  0.00  0.00    +0.000 A 
ATOM     32  C   UNL     1      -0.638  10.737  22.711  0.00  0.00    +0.000 A 
ATOM     33  C   UNL     1      -0.275  11.459  21.575  0.00  0.00    +0.000 A 
ENDBRANCH  27  28
ENDBRANCH  22  27
ENDBRANCH   1  22
TORSDOF 9
ENDMDL
MODEL 9
REMARK VINA RESULT:      -6.3      0.721      1.547
REMARK  Name = 
REMARK  11 active torsions:
REMARK  status: ('A' for Active; 'I' for Inactive)
REMARK    1  A    between atoms: C_1  and  O_2
REMARK    2  A    between atoms: O_2  and  C_3
REMARK    3  A    between atoms: C_3  and  C_5
REMARK    4  A    between atoms: C_5  and  C_6
REMARK    5  A    between atoms: C_5  and  N_13
REMARK    6  A    between atoms: C_6  and  C_7
REMARK    7  A    between atoms: C_16  and  O_17
REMARK    8  A    between atoms: O_17  and  C_18
REMARK    9  A    between atoms: C_20  and  N_21
REMARK   10  A    between atoms: N_24  and  C_25
REMARK   11  A    between atoms: C_25  and  C_26
REMARK                            x       y       z     vdW  Elec       q    Type
REMARK                         _______ _______ _______ _____ _____    ______ ____
ROOT
ATOM      1  N   UNL     1       1.728   8.556  20.115  0.00  0.00    +0.000 N 
ATOM      2  C   UNL     1       1.658   7.180  19.909  0.00  0.00    +0.000 A 
ATOM      3  N   UNL     1       1.759   6.439  20.992  0.00  0.00    +0.000 NA
ATOM      4  C   UNL     1       2.090   5.153  20.793  0.00  0.00    +0.000 A 
ATOM      5  N   UNL     1       2.494   4.629  19.654  0.00  0.00    +0.000 NA
ATOM      6  C   UNL     1       2.483   5.497  18.690  0.00  0.00    +0.000 A 
ATOM      7  N   UNL     1       1.930   6.704  18.705  0.00  0.00    +0.000 NA
ATOM      8  H   UNL     1       1.569   8.694  21.113  0.00  0.00    +0.000 HD
ENDROOT
BRANCH   6   9
ATOM      9  N   UNL     1       3.739   5.490  17.911  0.00  0.00    +0.000 NA
ATOM     10  C   UNL     1       4.082   6.727  17.058  0.00  0.00    +0.000 C 
ATOM     11  C   UNL     1       5.431   6.375  16.264  0.00  0.00    +0.000 C 
ATOM     12  N   UNL     1       5.923   4.885  16.608  0.00  0.00    +0.000 N 
ATOM     13  C   UNL     1       4.797   3.909  16.215  0.00  0.00    +0.000 C 
ATOM     14  C   UNL     1       3.490   4.354  16.859  0.00  0.00    +0.000 C 
ATOM     15  C   UNL     1       6.103   4.770  18.172  0.00  0.00    +0.000 C 
ATOM     16  C   UNL     1       4.886   5.342  18.899  0.00  0.00    +0.000 C 
BRANCH  12  17
ATOM     17  C   UNL     1       7.271   4.413  16.010  0.00  0.00    +0.000 C 
BRANCH  17  18
ATOM     18  C   UNL     1       7.596   4.816  14.573  0.00  0.00    +0.000 C 
ATOM     19 CL   UNL     1       6.563   3.980  13.406  0.00  0.00    +0.000 Cl
ENDBRANCH  17  18
ENDBRANCH  12  17
ENDBRANCH   6   9
BRANCH   4  20
ATOM     20  O   UNL     1       2.331   4.316  21.855  0.00  0.00    +0.000 OA
ATOM     21  C   UNL     1       2.427   2.948  21.503  0.00  0.00    +0.000 C 
ENDBRANCH   4  20
BRANCH   1  22
ATOM     22  C   UNL     1       0.896   9.487  19.294  0.00  0.00    +0.000 C 
BRANCH  22  23
ATOM     23  C   UNL     1       1.745  10.597  18.604  0.00  0.00    +0.000 C 
ATOM     24  O   UNL     1       2.352  10.485  17.539  0.00  0.00    +0.000 OA
BRANCH  23  26
ATOM     25  C   UNL     1       1.904  12.997  18.679  0.00  0.00    +0.000 C 
ATOM     26  O   UNL     1       1.676  11.749  19.339  0.00  0.00    +0.000 OA
ENDBRANCH  23  26
ENDBRANCH  22  23
BRANCH  22  27
ATOM     27  C   UNL     1      -0.162  10.179  20.212  0.00  0.00    +0.000 C 
BRANCH  27  28
ATOM     28  C   UNL     1      -1.356  10.704  19.446  0.00  0.00    +0.000 A 
ATOM     29  C   UNL     1      -2.039  11.849  19.883  0.00  0.00    +0.000 A 
ATOM     30  C   UNL     1      -3.211  12.256  19.244  0.00  0.00    +0.000 A 
ATOM     31  C   UNL     1      -3.699  11.537  18.155  0.00  0.00    +0.000 A 
ATOM     32  C   UNL     1      -2.991  10.438  17.673  0.00  0.00    +0.000 A 
ATOM     33  C   UNL     1      -1.817  10.032  18.307  0.00  0.00    +0.000 A 
ENDBRANCH  27  28
ENDBRANCH  22  27
ENDBRANCH   1  22
TORSDOF 9
ENDMDL
