MODEL 1
REMARK VINA RESULT:      -6.3      0.000      0.000
REMARK  Name = 
REMARK  6 active torsions:
REMARK  status: ('A' for Active; 'I' for Inactive)
REMARK    1  A    between atoms: C_1  and  C_2
REMARK    2  A    between atoms: N_6  and  C_7
REMARK    3  A    between atoms: C_11  and  C_13
REMARK    4  A    between atoms: C_13  and  N_14
REMARK    5  A    between atoms: N_14  and  C_15
REMARK    6  A    between atoms: N_14  and  C_16
REMARK                            x       y       z     vdW  Elec       q    Type
REMARK                         _______ _______ _______ _____ _____    ______ ____
ROOT
ATOM      1  C   UNL     1       0.498  10.641  21.766  0.00  0.00    +0.000 C 
ATOM      2  C   UNL     1       0.825  10.959  20.303  0.00  0.00    +0.000 C 
ATOM      3  C   UNL     1       0.744   9.767  19.362  0.00  0.00    +0.000 C 
ATOM      4  N   UNL     1       1.466   8.619  19.888  0.00  0.00    +0.000 N 
ATOM      5  C   UNL     1       2.106   7.772  18.977  0.00  0.00    +0.000 C 
ATOM      6  O   UNL     1       2.069   7.981  17.759  0.00  0.00    +0.000 OA
ATOM      7  C   UNL     1       1.035   8.180  21.212  0.00  0.00    +0.000 C 
ATOM      8  C   UNL     1       1.081   9.302  22.239  0.00  0.00    +0.000 C 
ENDROOT
BRANCH   1  14
ATOM      9  C   UNL     1      -2.521  15.489  24.687  0.00  0.00    +0.000 C 
ATOM     10  C   UNL     1      -2.163  14.235  23.957  0.00  0.00    +0.000 A 
ATOM     11  C   UNL     1      -3.123  13.334  23.526  0.00  0.00    +0.000 A 
ATOM     12  C   UNL     1      -2.707  12.161  22.887  0.00  0.00    +0.000 A 
ATOM     13  C   UNL     1      -1.353  11.919  22.701  0.00  0.00    +0.000 A 
ATOM     14  N   UNL     1      -0.952  10.749  22.013  0.00  0.00    +0.000 N 
ATOM     15  N   UNL     1      -0.459  12.828  23.135  0.00  0.00    +0.000 NA
ATOM     16  N   UNL     1      -0.856  13.981  23.776  0.00  0.00    +0.000 NA
ATOM     17  H   UNL     1      -1.364   9.929  22.446  0.00  0.00    +0.000 HD
ENDBRANCH   1  14
BRANCH   5  18
ATOM     18  C   UNL     1       2.941   6.604  19.517  0.00  0.00    +0.000 C 
BRANCH  18  19
ATOM     19  N   UNL     1       3.436   5.706  18.447  0.00  0.00    +0.000 NA
ATOM     20  C   UNL     1       4.887   5.501  18.572  0.00  0.00    +0.000 C 
BRANCH  19  21
ATOM     21  C   UNL     1       2.729   4.406  18.490  0.00  0.00    +0.000 C 
ATOM     22  C   UNL     1       1.498   4.191  17.649  0.00  0.00    +0.000 C 
ATOM     23  C   UNL     1       2.780   3.502  17.288  0.00  0.00    +0.000 C 
ENDBRANCH  19  21
ENDBRANCH  18  19
ENDBRANCH   5  18
TORSDOF 4
ENDMDL
MODEL 2
REMARK VINA RESULT:      -6.3      0.899      1.109
REMARK  Name = 
REMARK  6 active torsions:
REMARK  status: ('A' for Active; 'I' for Inactive)
REMARK    1  A    between atoms: C_1  and  C_2
REMARK    2  A    between atoms: N_6  and  C_7
REMARK    3  A    between atoms: C_11  and  C_13
REMARK    4  A    between atoms: C_13  and  N_14
REMARK    5  A    between atoms: N_14  and  C_15
REMARK    6  A    between atoms: N_14  and  C_16
REMARK                            x       y       z     vdW  Elec       q    Type
REMARK                         _______ _______ _______ _____ _____    ______ ____
ROOT
ATOM      1  C   UNL     1       0.495  10.764  21.688  0.00  0.00    +0.000 C 
ATOM      2  C   UNL     1       0.786  11.168  20.239  0.00  0.00    +0.000 C 
ATOM      3  C   UNL     1       0.701  10.028  19.234  0.00  0.00    +0.000 C 
ATOM      4  N   UNL     1       1.450   8.864  19.680  0.00  0.00    +0.000 N 
ATOM      5  C   UNL     1       2.081   8.079  18.709  0.00  0.00    +0.000 C 
ATOM      6  O   UNL     1       2.014   8.354  17.506  0.00  0.00    +0.000 OA
ATOM      7  C   UNL     1       1.053   8.346  20.986  0.00  0.00    +0.000 C 
ATOM      8  C   UNL     1       1.107   9.410  22.073  0.00  0.00    +0.000 C 
ENDROOT
BRANCH   1  14
ATOM      9  C   UNL     1      -2.546  15.470  24.812  0.00  0.00    +0.000 C 
ATOM     10  C   UNL     1      -2.182  14.243  24.039  0.00  0.00    +0.000 A 
ATOM     11  C   UNL     1      -3.134  13.336  23.605  0.00  0.00    +0.000 A 
ATOM     12  C   UNL     1      -2.711  12.190  22.924  0.00  0.00    +0.000 A 
ATOM     13  C   UNL     1      -1.357  11.980  22.700  0.00  0.00    +0.000 A 
ATOM     14  N   UNL     1      -0.950  10.837  21.971  0.00  0.00    +0.000 N 
ATOM     15  N   UNL     1      -0.470  12.893  23.139  0.00  0.00    +0.000 NA
ATOM     16  N   UNL     1      -0.874  14.020  23.821  0.00  0.00    +0.000 NA
ATOM     17  H   UNL     1      -1.336   9.997  22.390  0.00  0.00    +0.000 HD
ENDBRANCH   1  14
BRANCH   5  18
ATOM     18  C   UNL     1       2.943   6.895  19.166  0.00  0.00    +0.000 C 
BRANCH  18  19
ATOM     19  N   UNL     1       2.291   5.584  18.935  0.00  0.00    +0.000 NA
ATOM     20  C   UNL     1       3.021   4.814  17.917  0.00  0.00    +0.000 C 
BRANCH  19  21
ATOM     21  C   UNL     1       2.209   4.815  20.198  0.00  0.00    +0.000 C 
ATOM     22  C   UNL     1       1.003   3.958  20.479  0.00  0.00    +0.000 C 
ATOM     23  C   UNL     1       2.317   3.315  20.152  0.00  0.00    +0.000 C 
ENDBRANCH  19  21
ENDBRANCH  18  19
ENDBRANCH   5  18
TORSDOF 4
ENDMDL
MODEL 3
REMARK VINA RESULT:      -6.2      3.073      9.850
REMARK  Name = 
REMARK  6 active torsions:
REMARK  status: ('A' for Active; 'I' for Inactive)
REMARK    1  A    between atoms: C_1  and  C_2
REMARK    2  A    between atoms: N_6  and  C_7
REMARK    3  A    between atoms: C_11  and  C_13
REMARK    4  A    between atoms: C_13  and  N_14
REMARK    5  A    between atoms: N_14  and  C_15
REMARK    6  A    between atoms: N_14  and  C_16
REMARK                            x       y       z     vdW  Elec       q    Type
REMARK                         _______ _______ _______ _____ _____    ______ ____
ROOT
ATOM      1  C   UNL     1       4.624   5.976  18.109  0.00  0.00    +0.000 C 
ATOM      2  C   UNL     1       4.084   5.528  19.471  0.00  0.00    +0.000 C 
ATOM      3  C   UNL     1       2.635   5.909  19.735  0.00  0.00    +0.000 C 
ATOM      4  N   UNL     1       2.387   7.311  19.438  0.00  0.00    +0.000 N 
ATOM      5  C   UNL     1       1.457   7.995  20.228  0.00  0.00    +0.000 C 
ATOM      6  O   UNL     1       0.859   7.438  21.155  0.00  0.00    +0.000 OA
ATOM      7  C   UNL     1       2.720   7.715  18.075  0.00  0.00    +0.000 C 
ATOM      8  C   UNL     1       4.159   7.382  17.706  0.00  0.00    +0.000 C 
ENDROOT
BRANCH   1  14
ATOM      9  C   UNL     1       8.034   4.896  12.783  0.00  0.00    +0.000 C 
ATOM     10  C   UNL     1       7.046   4.855  13.904  0.00  0.00    +0.000 A 
ATOM     11  C   UNL     1       6.029   3.916  13.956  0.00  0.00    +0.000 A 
ATOM     12  C   UNL     1       5.118   3.968  15.016  0.00  0.00    +0.000 A 
ATOM     13  C   UNL     1       5.243   4.953  15.986  0.00  0.00    +0.000 A 
ATOM     14  N   UNL     1       4.339   4.964  17.075  0.00  0.00    +0.000 N 
ATOM     15  N   UNL     1       6.251   5.841  15.893  0.00  0.00    +0.000 NA
ATOM     16  N   UNL     1       7.148   5.807  14.848  0.00  0.00    +0.000 NA
ATOM     17  H   UNL     1       3.382   4.972  16.737  0.00  0.00    +0.000 HD
ENDBRANCH   1  14
BRANCH   5  18
ATOM     18  C   UNL     1       1.243   9.494  19.984  0.00  0.00    +0.000 C 
BRANCH  18  19
ATOM     19  N   UNL     1      -0.189   9.877  19.968  0.00  0.00    +0.000 NA
ATOM     20  C   UNL     1      -0.526  10.673  21.157  0.00  0.00    +0.000 C 
BRANCH  19  21
ATOM     21  C   UNL     1      -0.511  10.633  18.736  0.00  0.00    +0.000 C 
ATOM     22  C   UNL     1      -1.548  10.106  17.780  0.00  0.00    +0.000 C 
ATOM     23  C   UNL     1      -1.849  11.310  18.620  0.00  0.00    +0.000 C 
ENDBRANCH  19  21
ENDBRANCH  18  19
ENDBRANCH   5  18
TORSDOF 4
ENDMDL
MODEL 4
REMARK VINA RESULT:      -6.2      3.854     10.095
REMARK  Name = 
REMARK  6 active torsions:
REMARK  status: ('A' for Active; 'I' for Inactive)
REMARK    1  A    between atoms: C_1  and  C_2
REMARK    2  A    between atoms: N_6  and  C_7
REMARK    3  A    between atoms: C_11  and  C_13
REMARK    4  A    between atoms: C_13  and  N_14
REMARK    5  A    between atoms: N_14  and  C_15
REMARK    6  A    between atoms: N_14  and  C_16
REMARK                            x       y       z     vdW  Elec       q    Type
REMARK                         _______ _______ _______ _____ _____    ______ ____
ROOT
ATOM      1  C   UNL     1       5.205   4.121  18.033  0.00  0.00    +0.000 C 
ATOM      2  C   UNL     1       4.361   3.354  19.057  0.00  0.00    +0.000 C 
ATOM      3  C   UNL     1       2.967   3.920  19.279  0.00  0.00    +0.000 C 
ATOM      4  N   UNL     1       3.002   5.356  19.506  0.00  0.00    +0.000 N 
ATOM      5  C   UNL     1       2.062   5.905  20.385  0.00  0.00    +0.000 C 
ATOM      6  O   UNL     1       1.223   5.202  20.961  0.00  0.00    +0.000 OA
ATOM      7  C   UNL     1       3.638   6.127  18.442  0.00  0.00    +0.000 C 
ATOM      8  C   UNL     1       5.049   5.643  18.139  0.00  0.00    +0.000 C 
ENDROOT
BRANCH   1  14
ATOM      9  C   UNL     1       8.448   5.714  12.732  0.00  0.00    +0.000 C 
ATOM     10  C   UNL     1       7.519   5.110  13.736  0.00  0.00    +0.000 A 
ATOM     11  C   UNL     1       6.587   4.146  13.391  0.00  0.00    +0.000 A 
ATOM     12  C   UNL     1       5.723   3.660  14.377  0.00  0.00    +0.000 A 
ATOM     13  C   UNL     1       5.810   4.151  15.673  0.00  0.00    +0.000 A 
ATOM     14  N   UNL     1       4.958   3.616  16.669  0.00  0.00    +0.000 N 
ATOM     15  N   UNL     1       6.736   5.086  15.960  0.00  0.00    +0.000 NA
ATOM     16  N   UNL     1       7.584   5.581  14.994  0.00  0.00    +0.000 NA
ATOM     17  H   UNL     1       3.990   3.676  16.372  0.00  0.00    +0.000 HD
ENDBRANCH   1  14
BRANCH   5  18
ATOM     18  C   UNL     1       2.135   7.404  20.701  0.00  0.00    +0.000 C 
BRANCH  18  19
ATOM     19  N   UNL     1       0.986   8.165  20.155  0.00  0.00    +0.000 NA
ATOM     20  C   UNL     1       0.187   8.748  21.243  0.00  0.00    +0.000 C 
BRANCH  19  21
ATOM     21  C   UNL     1       1.455   9.228  19.237  0.00  0.00    +0.000 C 
ATOM     22  C   UNL     1       1.340   9.039  17.747  0.00  0.00    +0.000 C 
ATOM     23  C   UNL     1       0.444  10.016  18.448  0.00  0.00    +0.000 C 
ENDBRANCH  19  21
ENDBRANCH  18  19
ENDBRANCH   5  18
TORSDOF 4
ENDMDL
MODEL 5
REMARK VINA RESULT:      -6.1      2.996      9.970
REMARK  Name = 
REMARK  6 active torsions:
REMARK  status: ('A' for Active; 'I' for Inactive)
REMARK    1  A    between atoms: C_1  and  C_2
REMARK    2  A    between atoms: N_6  and  C_7
REMARK    3  A    between atoms: C_11  and  C_13
REMARK    4  A    between atoms: C_13  and  N_14
REMARK    5  A    between atoms: N_14  and  C_15
REMARK    6  A    between atoms: N_14  and  C_16
REMARK                            x       y       z     vdW  Elec       q    Type
REMARK                         _______ _______ _______ _____ _____    ______ ____
ROOT
ATOM      1  C   UNL     1       4.667   6.069  17.998  0.00  0.00    +0.000 C 
ATOM      2  C   UNL     1       4.306   5.677  19.435  0.00  0.00    +0.000 C 
ATOM      3  C   UNL     1       2.848   5.906  19.806  0.00  0.00    +0.000 C 
ATOM      4  N   UNL     1       2.403   7.239  19.433  0.00  0.00    +0.000 N 
ATOM      5  C   UNL     1       1.466   7.873  20.256  0.00  0.00    +0.000 C 
ATOM      6  O   UNL     1       1.023   7.329  21.274  0.00  0.00    +0.000 OA
ATOM      7  C   UNL     1       2.565   7.563  18.019  0.00  0.00    +0.000 C 
ATOM      8  C   UNL     1       3.997   7.371  17.540  0.00  0.00    +0.000 C 
ENDROOT
BRANCH   1  14
ATOM      9  C   UNL     1       7.873   4.822  12.583  0.00  0.00    +0.000 C 
ATOM     10  C   UNL     1       6.955   4.794  13.762  0.00  0.00    +0.000 A 
ATOM     11  C   UNL     1       6.034   3.777  13.956  0.00  0.00    +0.000 A 
ATOM     12  C   UNL     1       5.180   3.843  15.061  0.00  0.00    +0.000 A 
ATOM     13  C   UNL     1       5.264   4.918  15.935  0.00  0.00    +0.000 A 
ATOM     14  N   UNL     1       4.423   4.947  17.073  0.00  0.00    +0.000 N 
ATOM     15  N   UNL     1       6.178   5.880  15.706  0.00  0.00    +0.000 NA
ATOM     16  N   UNL     1       7.017   5.832  14.615  0.00  0.00    +0.000 NA
ATOM     17  H   UNL     1       3.452   4.840  16.795  0.00  0.00    +0.000 HD
ENDBRANCH   1  14
BRANCH   5  18
ATOM     18  C   UNL     1       1.047   9.310  19.924  0.00  0.00    +0.000 C 
BRANCH  18  19
ATOM     19  N   UNL     1       0.957  10.176  21.124  0.00  0.00    +0.000 NA
ATOM     20  C   UNL     1       1.232  11.578  20.773  0.00  0.00    +0.000 C 
BRANCH  19  21
ATOM     21  C   UNL     1      -0.379  10.057  21.752  0.00  0.00    +0.000 C 
ATOM     22  C   UNL     1      -0.494   9.779  23.227  0.00  0.00    +0.000 C 
ATOM     23  C   UNL     1      -0.847  11.135  22.692  0.00  0.00    +0.000 C 
ENDBRANCH  19  21
ENDBRANCH  18  19
ENDBRANCH   5  18
TORSDOF 4
ENDMDL
MODEL 6
REMARK VINA RESULT:      -6.1      2.920      5.292
REMARK  Name = 
REMARK  6 active torsions:
REMARK  status: ('A' for Active; 'I' for Inactive)
REMARK    1  A    between atoms: C_1  and  C_2
REMARK    2  A    between atoms: N_6  and  C_7
REMARK    3  A    between atoms: C_11  and  C_13
REMARK    4  A    between atoms: C_13  and  N_14
REMARK    5  A    between atoms: N_14  and  C_15
REMARK    6  A    between atoms: N_14  and  C_16
REMARK                            x       y       z     vdW  Elec       q    Type
REMARK                         _______ _______ _______ _____ _____    ______ ____
ROOT
ATOM      1  C   UNL     1       2.329   7.021  18.746  0.00  0.00    +0.000 C 
ATOM      2  C   UNL     1       1.673   5.672  18.431  0.00  0.00    +0.000 C 
ATOM      3  C   UNL     1       2.605   4.474  18.536  0.00  0.00    +0.000 C 
ATOM      4  N   UNL     1       3.851   4.701  17.821  0.00  0.00    +0.000 N 
ATOM      5  C   UNL     1       4.461   3.605  17.202  0.00  0.00    +0.000 C 
ATOM      6  O   UNL     1       3.967   2.473  17.250  0.00  0.00    +0.000 OA
ATOM      7  C   UNL     1       4.590   5.887  18.244  0.00  0.00    +0.000 C 
ATOM      8  C   UNL     1       3.747   7.152  18.173  0.00  0.00    +0.000 C 
ENDROOT
BRANCH   1  14
ATOM      9  C   UNL     1      -1.040  11.687  21.579  0.00  0.00    +0.000 C 
ATOM     10  C   UNL     1      -0.175  10.507  21.269  0.00  0.00    +0.000 A 
ATOM     11  C   UNL     1       0.433   9.759  22.262  0.00  0.00    +0.000 A 
ATOM     12  C   UNL     1       1.262   8.695  21.892  0.00  0.00    +0.000 A 
ATOM     13  C   UNL     1       1.463   8.412  20.548  0.00  0.00    +0.000 A 
ATOM     14  N   UNL     1       2.270   7.305  20.191  0.00  0.00    +0.000 N 
ATOM     15  N   UNL     1       0.847   9.168  19.619  0.00  0.00    +0.000 NA
ATOM     16  N   UNL     1       0.037  10.225  19.971  0.00  0.00    +0.000 NA
ATOM     17  H   UNL     1       3.178   7.373  20.640  0.00  0.00    +0.000 HD
ENDBRANCH   1  14
BRANCH   5  18
ATOM     18  C   UNL     1       5.732   3.838  16.375  0.00  0.00    +0.000 C 
BRANCH  18  19
ATOM     19  N   UNL     1       5.448   4.352  15.014  0.00  0.00    +0.000 NA
ATOM     20  C   UNL     1       5.642   5.809  14.959  0.00  0.00    +0.000 C 
BRANCH  19  21
ATOM     21  C   UNL     1       6.311   3.681  14.015  0.00  0.00    +0.000 C 
ATOM     22  C   UNL     1       5.785   3.405  12.631  0.00  0.00    +0.000 C 
ATOM     23  C   UNL     1       6.821   4.469  12.838  0.00  0.00    +0.000 C 
ENDBRANCH  19  21
ENDBRANCH  18  19
ENDBRANCH   5  18
TORSDOF 4
ENDMDL
MODEL 7
REMARK VINA RESULT:      -6.0      2.333      2.820
REMARK  Name = 
REMARK  6 active torsions:
REMARK  status: ('A' for Active; 'I' for Inactive)
REMARK    1  A    between atoms: C_1  and  C_2
REMARK    2  A    between atoms: N_6  and  C_7
REMARK    3  A    between atoms: C_11  and  C_13
REMARK    4  A    between atoms: C_13  and  N_14
REMARK    5  A    between atoms: N_14  and  C_15
REMARK    6  A    between atoms: N_14  and  C_16
REMARK                            x       y       z     vdW  Elec       q    Type
REMARK                         _______ _______ _______ _____ _____    ______ ____
ROOT
ATOM      1  C   UNL     1       1.143   9.913  19.538  0.00  0.00    +0.000 C 
ATOM      2  C   UNL     1       1.933   9.755  18.234  0.00  0.00    +0.000 C 
ATOM      3  C   UNL     1       2.080   8.319  17.753  0.00  0.00    +0.000 C 
ATOM      4  N   UNL     1       2.529   7.440  18.822  0.00  0.00    +0.000 N 
ATOM      5  C   UNL     1       3.371   6.374  18.484  0.00  0.00    +0.000 C 
ATOM      6  O   UNL     1       3.731   6.174  17.319  0.00  0.00    +0.000 OA
ATOM      7  C   UNL     1       1.677   7.434  20.007  0.00  0.00    +0.000 C 
ATOM      8  C   UNL     1       1.466   8.830  20.576  0.00  0.00    +0.000 C 
ENDROOT
BRANCH   1  14
ATOM      9  C   UNL     1      -2.639  14.881  21.010  0.00  0.00    +0.000 C 
ATOM     10  C   UNL     1      -2.066  13.595  20.507  0.00  0.00    +0.000 A 
ATOM     11  C   UNL     1      -2.829  12.670  19.813  0.00  0.00    +0.000 A 
ATOM     12  C   UNL     1      -2.233  11.471  19.411  0.00  0.00    +0.000 A 
ATOM     13  C   UNL     1      -0.901  11.227  19.716  0.00  0.00    +0.000 A 
ATOM     14  N   UNL     1      -0.301  10.027  19.263  0.00  0.00    +0.000 N 
ATOM     15  N   UNL     1      -0.200  12.158  20.390  0.00  0.00    +0.000 NA
ATOM     16  N   UNL     1      -0.779  13.339  20.800  0.00  0.00    +0.000 NA
ATOM     17  H   UNL     1      -0.847   9.226  19.565  0.00  0.00    +0.000 HD
ENDBRANCH   1  14
BRANCH   5  18
ATOM     18  C   UNL     1       3.920   5.485  19.607  0.00  0.00    +0.000 C 
BRANCH  18  19
ATOM     19  N   UNL     1       3.280   4.149  19.652  0.00  0.00    +0.000 NA
ATOM     20  C   UNL     1       4.296   3.086  19.641  0.00  0.00    +0.000 C 
BRANCH  19  21
ATOM     21  C   UNL     1       2.420   4.025  20.851  0.00  0.00    +0.000 C 
ATOM     22  C   UNL     1       1.044   3.424  20.730  0.00  0.00    +0.000 C 
ATOM     23  C   UNL     1       2.137   2.657  21.412  0.00  0.00    +0.000 C 
ENDBRANCH  19  21
ENDBRANCH  18  19
ENDBRANCH   5  18
TORSDOF 4
ENDMDL
MODEL 8
REMARK VINA RESULT:      -6.0      3.329      5.961
REMARK  Name = 
REMARK  6 active torsions:
REMARK  status: ('A' for Active; 'I' for Inactive)
REMARK    1  A    between atoms: C_1  and  C_2
REMARK    2  A    between atoms: N_6  and  C_7
REMARK    3  A    between atoms: C_11  and  C_13
REMARK    4  A    between atoms: C_13  and  N_14
REMARK    5  A    between atoms: N_14  and  C_15
REMARK    6  A    between atoms: N_14  and  C_16
REMARK                            x       y       z     vdW  Elec       q    Type
REMARK                         _______ _______ _______ _____ _____    ______ ____
ROOT
ATOM      1  C   UNL     1       2.609   6.598  18.117  0.00  0.00    +0.000 C 
ATOM      2  C   UNL     1       2.472   5.138  17.673  0.00  0.00    +0.000 C 
ATOM      3  C   UNL     1       3.772   4.348  17.684  0.00  0.00    +0.000 C 
ATOM      4  N   UNL     1       4.842   5.068  17.011  0.00  0.00    +0.000 N 
ATOM      5  C   UNL     1       5.792   4.322  16.304  0.00  0.00    +0.000 C 
ATOM      6  O   UNL     1       5.735   3.089  16.244  0.00  0.00    +0.000 OA
ATOM      7  C   UNL     1       5.116   6.398  17.547  0.00  0.00    +0.000 C 
ATOM      8  C   UNL     1       3.874   7.278  17.578  0.00  0.00    +0.000 C 
ENDROOT
BRANCH   1  14
ATOM      9  C   UNL     1      -0.223  11.376  21.329  0.00  0.00    +0.000 C 
ATOM     10  C   UNL     1       0.473  10.117  20.920  0.00  0.00    +0.000 A 
ATOM     11  C   UNL     1       0.880   9.167  21.841  0.00  0.00    +0.000 A 
ATOM     12  C   UNL     1       1.563   8.035  21.385  0.00  0.00    +0.000 A 
ATOM     13  C   UNL     1       1.825   7.886  20.030  0.00  0.00    +0.000 A 
ATOM     14  N   UNL     1       2.479   6.714  19.581  0.00  0.00    +0.000 N 
ATOM     15  N   UNL     1       1.406   8.837  19.173  0.00  0.00    +0.000 NA
ATOM     16  N   UNL     1       0.742   9.961  19.612  0.00  0.00    +0.000 NA
ATOM     17  H   UNL     1       3.348   6.581  20.088  0.00  0.00    +0.000 HD
ENDBRANCH   1  14
BRANCH   5  18
ATOM     18  C   UNL     1       6.879   5.067  15.520  0.00  0.00    +0.000 C 
BRANCH  18  19
ATOM     19  N   UNL     1       6.630   5.079  14.058  0.00  0.00    +0.000 NA
ATOM     20  C   UNL     1       7.854   5.437  13.327  0.00  0.00    +0.000 C 
BRANCH  19  21
ATOM     21  C   UNL     1       6.128   3.761  13.606  0.00  0.00    +0.000 C 
ATOM     22  C   UNL     1       4.986   3.687  12.628  0.00  0.00    +0.000 C 
ATOM     23  C   UNL     1       6.373   3.331  12.185  0.00  0.00    +0.000 C 
ENDBRANCH  19  21
ENDBRANCH  18  19
ENDBRANCH   5  18
TORSDOF 4
ENDMDL
MODEL 9
REMARK VINA RESULT:      -6.0      2.860      4.845
REMARK  Name = 
REMARK  6 active torsions:
REMARK  status: ('A' for Active; 'I' for Inactive)
REMARK    1  A    between atoms: C_1  and  C_2
REMARK    2  A    between atoms: N_6  and  C_7
REMARK    3  A    between atoms: C_11  and  C_13
REMARK    4  A    between atoms: C_13  and  N_14
REMARK    5  A    between atoms: N_14  and  C_15
REMARK    6  A    between atoms: N_14  and  C_16
REMARK                            x       y       z     vdW  Elec       q    Type
REMARK                         _______ _______ _______ _____ _____    ______ ____
ROOT
ATOM      1  C   UNL     1       1.488   6.629  20.075  0.00  0.00    +0.000 C 
ATOM      2  C   UNL     1       1.609   5.183  20.567  0.00  0.00    +0.000 C 
ATOM      3  C   UNL     1       3.025   4.627  20.559  0.00  0.00    +0.000 C 
ATOM      4  N   UNL     1       3.689   4.872  19.288  0.00  0.00    +0.000 N 
ATOM      5  C   UNL     1       4.591   3.909  18.822  0.00  0.00    +0.000 C 
ATOM      6  O   UNL     1       4.825   2.876  19.460  0.00  0.00    +0.000 OA
ATOM      7  C   UNL     1       3.752   6.276  18.892  0.00  0.00    +0.000 C 
ATOM      8  C   UNL     1       2.379   6.932  18.863  0.00  0.00    +0.000 C 
ENDROOT
BRANCH   1  14
ATOM      9  C   UNL     1      -1.498  12.247  20.896  0.00  0.00    +0.000 C 
ATOM     10  C   UNL     1      -0.653  11.022  21.033  0.00  0.00    +0.000 A 
ATOM     11  C   UNL     1       0.172  10.815  22.126  0.00  0.00    +0.000 A 
ATOM     12  C   UNL     1       0.965   9.664  22.163  0.00  0.00    +0.000 A 
ATOM     13  C   UNL     1       0.918   8.759  21.111  0.00  0.00    +0.000 A 
ATOM     14  N   UNL     1       1.694   7.577  21.185  0.00  0.00    +0.000 N 
ATOM     15  N   UNL     1       0.097   9.003  20.072  0.00  0.00    +0.000 NA
ATOM     16  N   UNL     1      -0.680  10.139  20.019  0.00  0.00    +0.000 NA
ATOM     17  H   UNL     1       2.667   7.807  21.362  0.00  0.00    +0.000 HD
ENDBRANCH   1  14
BRANCH   5  18
ATOM     18  C   UNL     1       5.239   4.110  17.446  0.00  0.00    +0.000 C 
BRANCH  18  19
ATOM     19  N   UNL     1       6.653   4.544  17.532  0.00  0.00    +0.000 NA
ATOM     20  C   UNL     1       7.182   4.856  16.196  0.00  0.00    +0.000 C 
BRANCH  19  21
ATOM     21  C   UNL     1       6.783   5.721  18.423  0.00  0.00    +0.000 C 
ATOM     22  C   UNL     1       7.938   5.813  19.384  0.00  0.00    +0.000 C 
ATOM     23  C   UNL     1       7.894   6.706  18.181  0.00  0.00    +0.000 C 
ENDBRANCH  19  21
ENDBRANCH  18  19
ENDBRANCH   5  18
TORSDOF 4
ENDMDL
