MODEL 1
REMARK VINA RESULT:      -8.1      0.000      0.000
REMARK  Name = 
REMARK  11 active torsions:
REMARK  status: ('A' for Active; 'I' for Inactive)
REMARK    1  A    between atoms: C_1  and  C_2
REMARK    2  A    between atoms: N_4  and  C_5
REMARK    3  A    between atoms: C_5  and  C_6
REMARK    4  A    between atoms: C_9  and  C_10
REMARK    5  A    between atoms: C_10  and  S_11
REMARK    6  A    between atoms: S_11  and  C_13
REMARK    7  A    between atoms: C_16  and  C_17
REMARK    8  A    between atoms: C_25  and  C_26
REMARK    9  A    between atoms: C_27  and  C_28
REMARK   10  A    between atoms: C_28  and  C_29
REMARK   11  A    between atoms: C_29  and  O_31
REMARK                            x       y       z     vdW  Elec       q    Type
REMARK                         _______ _______ _______ _____ _____    ______ ____
ROOT
ATOM      1  C   UNL     1       2.434   6.564  19.453  0.00  0.00    +0.000 A 
ATOM      2  C   UNL     1       1.806   7.298  20.475  0.00  0.00    +0.000 A 
ATOM      3  C   UNL     1       1.350   8.611  20.246  0.00  0.00    +0.000 A 
ATOM      4  C   UNL     1       1.521   9.225  18.994  0.00  0.00    +0.000 A 
ATOM      5  C   UNL     1       2.035   8.438  17.954  0.00  0.00    +0.000 A 
ATOM      6  C   UNL     1       2.482   7.132  18.177  0.00  0.00    +0.000 A 
ENDROOT
BRANCH   1   7
ATOM      7  C   UNL     1       3.181   5.273  19.727  0.00  0.00    +0.000 C 
BRANCH   7  11
ATOM      8  C   UNL     1       7.906   5.878  18.983  0.00  0.00    +0.000 C 
ATOM      9  C   UNL     1       6.529   5.417  18.669  0.00  0.00    +0.000 A 
ATOM     10  N   UNL     1       5.532   5.726  19.509  0.00  0.00    +0.000 NA
ATOM     11  N   UNL     1       4.442   5.116  19.004  0.00  0.00    +0.000 N 
ATOM     12  C   UNL     1       4.692   4.567  17.764  0.00  0.00    +0.000 A 
ATOM     13  C   UNL     1       3.711   3.916  16.855  0.00  0.00    +0.000 C 
ATOM     14  C   UNL     1       6.063   4.663  17.558  0.00  0.00    +0.000 A 
BRANCH  14  15
ATOM     15  C   UNL     1       6.813   4.021  16.419  0.00  0.00    +0.000 C 
BRANCH  15  16
ATOM     16  C   UNL     1       6.893   4.763  15.098  0.00  0.00    +0.000 C 
ATOM     17  O   UNL     1       7.754   5.600  14.876  0.00  0.00    +0.000 OA
BRANCH  16  18
ATOM     18  O   UNL     1       5.959   4.443  14.178  0.00  0.00    +0.000 OA
ATOM     19  H   UNL     1       5.236   5.088  14.082  0.00  0.00    +0.000 HD
ENDBRANCH  16  18
ENDBRANCH  15  16
ENDBRANCH  14  15
ENDBRANCH   7  11
ENDBRANCH   1   7
BRANCH   4  20
ATOM     20  C   UNL     1       1.179  10.691  18.774  0.00  0.00    +0.000 C 
BRANCH  20  21
ATOM     21  S   UNL     1       0.324  11.448  20.221  0.00  0.00    +0.000 S 
ATOM     22  O   UNL     1       0.768  12.952  20.353  0.00  0.00    +0.000 OA
BRANCH  21  23
ATOM     23  C   UNL     1      -1.393  11.488  19.635  0.00  0.00    +0.000 A 
ATOM     24  C   UNL     1      -2.334  12.321  20.241  0.00  0.00    +0.000 A 
ATOM     25  C   UNL     1      -3.624  12.448  19.718  0.00  0.00    +0.000 A 
ATOM     26  C   UNL     1      -4.000  11.756  18.553  0.00  0.00    +0.000 A 
ATOM     27  C   UNL     1      -3.060  10.920  17.942  0.00  0.00    +0.000 A 
ATOM     28  C   UNL     1      -1.767  10.790  18.473  0.00  0.00    +0.000 A 
BRANCH  26  29
ATOM     29  C   UNL     1      -5.374  11.946  17.958  0.00  0.00    +0.000 C 
ATOM     30  F   UNL     1      -6.070  10.780  17.834  0.00  0.00    +0.000 F 
ATOM     31  F   UNL     1      -6.161  12.764  18.711  0.00  0.00    +0.000 F 
ATOM     32  F   UNL     1      -5.345  12.494  16.713  0.00  0.00    +0.000 F 
ENDBRANCH  26  29
ENDBRANCH  21  23
ENDBRANCH  20  21
ENDBRANCH   4  20
TORSDOF 9
ENDMDL
MODEL 2
REMARK VINA RESULT:      -7.9      2.461      3.125
REMARK  Name = 
REMARK  11 active torsions:
REMARK  status: ('A' for Active; 'I' for Inactive)
REMARK    1  A    between atoms: C_1  and  C_2
REMARK    2  A    between atoms: N_4  and  C_5
REMARK    3  A    between atoms: C_5  and  C_6
REMARK    4  A    between atoms: C_9  and  C_10
REMARK    5  A    between atoms: C_10  and  S_11
REMARK    6  A    between atoms: S_11  and  C_13
REMARK    7  A    between atoms: C_16  and  C_17
REMARK    8  A    between atoms: C_25  and  C_26
REMARK    9  A    between atoms: C_27  and  C_28
REMARK   10  A    between atoms: C_28  and  C_29
REMARK   11  A    between atoms: C_29  and  O_31
REMARK                            x       y       z     vdW  Elec       q    Type
REMARK                         _______ _______ _______ _____ _____    ______ ____
ROOT
ATOM      1  C   UNL     1       2.447   6.916  19.592  0.00  0.00    +0.000 A 
ATOM      2  C   UNL     1       2.500   7.658  18.399  0.00  0.00    +0.000 A 
ATOM      3  C   UNL     1       1.821   8.887  18.281  0.00  0.00    +0.000 A 
ATOM      4  C   UNL     1       1.064   9.396  19.349  0.00  0.00    +0.000 A 
ATOM      5  C   UNL     1       1.122   8.708  20.569  0.00  0.00    +0.000 A 
ATOM      6  C   UNL     1       1.802   7.492  20.691  0.00  0.00    +0.000 A 
ENDROOT
BRANCH   1   7
ATOM      7  C   UNL     1       2.921   5.478  19.672  0.00  0.00    +0.000 C 
BRANCH   7  11
ATOM      8  C   UNL     1       7.643   5.613  18.708  0.00  0.00    +0.000 C 
ATOM      9  C   UNL     1       6.217   5.267  18.472  0.00  0.00    +0.000 A 
ATOM     10  N   UNL     1       5.291   5.702  19.337  0.00  0.00    +0.000 NA
ATOM     11  N   UNL     1       4.128   5.175  18.905  0.00  0.00    +0.000 N 
ATOM     12  C   UNL     1       4.272   4.553  17.683  0.00  0.00    +0.000 A 
ATOM     13  C   UNL     1       3.196   3.957  16.846  0.00  0.00    +0.000 C 
ATOM     14  C   UNL     1       5.636   4.513  17.417  0.00  0.00    +0.000 A 
BRANCH  14  15
ATOM     15  C   UNL     1       6.273   3.758  16.278  0.00  0.00    +0.000 C 
BRANCH  15  16
ATOM     16  C   UNL     1       6.732   4.539  15.061  0.00  0.00    +0.000 C 
ATOM     17  O   UNL     1       6.522   4.147  13.924  0.00  0.00    +0.000 OA
BRANCH  16  18
ATOM     18  O   UNL     1       7.383   5.695  15.307  0.00  0.00    +0.000 OA
ATOM     19  H   UNL     1       8.175   5.846  14.760  0.00  0.00    +0.000 HD
ENDBRANCH  16  18
ENDBRANCH  15  16
ENDBRANCH  14  15
ENDBRANCH   7  11
ENDBRANCH   1   7
BRANCH   4  20
ATOM     20  C   UNL     1       0.199  10.638  19.189  0.00  0.00    +0.000 C 
BRANCH  20  21
ATOM     21  S   UNL     1       0.871  12.095  20.098  0.00  0.00    +0.000 S 
ATOM     22  O   UNL     1       0.854  13.348  19.147  0.00  0.00    +0.000 OA
BRANCH  21  23
ATOM     23  C   UNL     1      -0.440  12.382  21.321  0.00  0.00    +0.000 A 
ATOM     24  C   UNL     1      -1.277  13.494  21.221  0.00  0.00    +0.000 A 
ATOM     25  C   UNL     1      -2.364  13.655  22.085  0.00  0.00    +0.000 A 
ATOM     26  C   UNL     1      -2.655  12.688  23.064  0.00  0.00    +0.000 A 
ATOM     27  C   UNL     1      -1.820  11.572  23.166  0.00  0.00    +0.000 A 
ATOM     28  C   UNL     1      -0.726  11.415  22.301  0.00  0.00    +0.000 A 
BRANCH  26  29
ATOM     29  C   UNL     1      -3.866  12.837  23.952  0.00  0.00    +0.000 C 
ATOM     30  F   UNL     1      -4.133  11.720  24.686  0.00  0.00    +0.000 F 
ATOM     31  F   UNL     1      -3.730  13.847  24.857  0.00  0.00    +0.000 F 
ATOM     32  F   UNL     1      -5.006  13.105  23.259  0.00  0.00    +0.000 F 
ENDBRANCH  26  29
ENDBRANCH  21  23
ENDBRANCH  20  21
ENDBRANCH   4  20
TORSDOF 9
ENDMDL
MODEL 3
REMARK VINA RESULT:      -7.8      5.255      9.897
REMARK  Name = 
REMARK  11 active torsions:
REMARK  status: ('A' for Active; 'I' for Inactive)
REMARK    1  A    between atoms: C_1  and  C_2
REMARK    2  A    between atoms: N_4  and  C_5
REMARK    3  A    between atoms: C_5  and  C_6
REMARK    4  A    between atoms: C_9  and  C_10
REMARK    5  A    between atoms: C_10  and  S_11
REMARK    6  A    between atoms: S_11  and  C_13
REMARK    7  A    between atoms: C_16  and  C_17
REMARK    8  A    between atoms: C_25  and  C_26
REMARK    9  A    between atoms: C_27  and  C_28
REMARK   10  A    between atoms: C_28  and  C_29
REMARK   11  A    between atoms: C_29  and  O_31
REMARK                            x       y       z     vdW  Elec       q    Type
REMARK                         _______ _______ _______ _____ _____    ______ ____
ROOT
ATOM      1  C   UNL     1       1.892   7.145  19.837  0.00  0.00    +0.000 A 
ATOM      2  C   UNL     1       2.111   6.856  18.479  0.00  0.00    +0.000 A 
ATOM      3  C   UNL     1       2.061   5.531  18.005  0.00  0.00    +0.000 A 
ATOM      4  C   UNL     1       1.803   4.463  18.880  0.00  0.00    +0.000 A 
ATOM      5  C   UNL     1       1.465   4.779  20.203  0.00  0.00    +0.000 A 
ATOM      6  C   UNL     1       1.506   6.095  20.674  0.00  0.00    +0.000 A 
ENDROOT
BRANCH   1   7
ATOM      7  C   UNL     1       2.208   8.503  20.436  0.00  0.00    +0.000 C 
BRANCH   7  11
ATOM      8  C   UNL     1      -1.145  10.803  23.026  0.00  0.00    +0.000 C 
ATOM      9  C   UNL     1      -0.443  10.370  21.790  0.00  0.00    +0.000 A 
ATOM     10  N   UNL     1       0.590   9.523  21.892  0.00  0.00    +0.000 NA
ATOM     11  N   UNL     1       1.056   9.380  20.636  0.00  0.00    +0.000 N 
ATOM     12  C   UNL     1       0.231   9.987  19.712  0.00  0.00    +0.000 A 
ATOM     13  C   UNL     1       0.357   9.946  18.231  0.00  0.00    +0.000 C 
ATOM     14  C   UNL     1      -0.703  10.718  20.437  0.00  0.00    +0.000 A 
BRANCH  14  15
ATOM     15  C   UNL     1      -1.688  11.692  19.843  0.00  0.00    +0.000 C 
BRANCH  15  16
ATOM     16  C   UNL     1      -1.212  13.097  19.524  0.00  0.00    +0.000 C 
ATOM     17  O   UNL     1      -1.104  13.955  20.386  0.00  0.00    +0.000 OA
BRANCH  16  18
ATOM     18  O   UNL     1      -0.910  13.344  18.232  0.00  0.00    +0.000 OA
ATOM     19  H   UNL     1       0.035  13.496  18.051  0.00  0.00    +0.000 HD
ENDBRANCH  16  18
ENDBRANCH  15  16
ENDBRANCH  14  15
ENDBRANCH   7  11
ENDBRANCH   1   7
BRANCH   4  20
ATOM     20  C   UNL     1       1.900   3.016  18.419  0.00  0.00    +0.000 C 
BRANCH  20  21
ATOM     21  S   UNL     1       3.469   2.204  18.945  0.00  0.00    +0.000 S 
ATOM     22  O   UNL     1       3.781   1.006  17.974  0.00  0.00    +0.000 OA
BRANCH  21  23
ATOM     23  C   UNL     1       4.683   3.494  18.547  0.00  0.00    +0.000 A 
ATOM     24  C   UNL     1       4.973   3.815  17.221  0.00  0.00    +0.000 A 
ATOM     25  C   UNL     1       5.812   4.889  16.909  0.00  0.00    +0.000 A 
ATOM     26  C   UNL     1       6.369   5.686  17.924  0.00  0.00    +0.000 A 
ATOM     27  C   UNL     1       6.081   5.368  19.255  0.00  0.00    +0.000 A 
ATOM     28  C   UNL     1       5.242   4.286  19.565  0.00  0.00    +0.000 A 
BRANCH  26  29
ATOM     29  C   UNL     1       7.224   6.881  17.578  0.00  0.00    +0.000 C 
ATOM     30  F   UNL     1       8.195   7.130  18.502  0.00  0.00    +0.000 F 
ATOM     31  F   UNL     1       7.876   6.732  16.391  0.00  0.00    +0.000 F 
ATOM     32  F   UNL     1       6.510   8.034  17.472  0.00  0.00    +0.000 F 
ENDBRANCH  26  29
ENDBRANCH  21  23
ENDBRANCH  20  21
ENDBRANCH   4  20
TORSDOF 9
ENDMDL
MODEL 4
REMARK VINA RESULT:      -7.8      2.337      2.946
REMARK  Name = 
REMARK  11 active torsions:
REMARK  status: ('A' for Active; 'I' for Inactive)
REMARK    1  A    between atoms: C_1  and  C_2
REMARK    2  A    between atoms: N_4  and  C_5
REMARK    3  A    between atoms: C_5  and  C_6
REMARK    4  A    between atoms: C_9  and  C_10
REMARK    5  A    between atoms: C_10  and  S_11
REMARK    6  A    between atoms: S_11  and  C_13
REMARK    7  A    between atoms: C_16  and  C_17
REMARK    8  A    between atoms: C_25  and  C_26
REMARK    9  A    between atoms: C_27  and  C_28
REMARK   10  A    between atoms: C_28  and  C_29
REMARK   11  A    between atoms: C_29  and  O_31
REMARK                            x       y       z     vdW  Elec       q    Type
REMARK                         _______ _______ _______ _____ _____    ______ ____
ROOT
ATOM      1  C   UNL     1       2.327   6.763  19.474  0.00  0.00    +0.000 A 
ATOM      2  C   UNL     1       1.659   7.447  20.504  0.00  0.00    +0.000 A 
ATOM      3  C   UNL     1       1.225   8.775  20.327  0.00  0.00    +0.000 A 
ATOM      4  C   UNL     1       1.457   9.453  19.119  0.00  0.00    +0.000 A 
ATOM      5  C   UNL     1       2.011   8.718  18.061  0.00  0.00    +0.000 A 
ATOM      6  C   UNL     1       2.437   7.397  18.233  0.00  0.00    +0.000 A 
ENDROOT
BRANCH   1   7
ATOM      7  C   UNL     1       3.051   5.451  19.710  0.00  0.00    +0.000 C 
BRANCH   7  11
ATOM      8  C   UNL     1       7.643   6.023  18.358  0.00  0.00    +0.000 C 
ATOM      9  C   UNL     1       6.252   5.510  18.262  0.00  0.00    +0.000 A 
ATOM     10  N   UNL     1       5.349   5.904  19.170  0.00  0.00    +0.000 NA
ATOM     11  N   UNL     1       4.225   5.225  18.869  0.00  0.00    +0.000 N 
ATOM     12  C   UNL     1       4.347   4.535  17.681  0.00  0.00    +0.000 A 
ATOM     13  C   UNL     1       3.286   3.769  16.974  0.00  0.00    +0.000 C 
ATOM     14  C   UNL     1       5.683   4.624  17.308  0.00  0.00    +0.000 A 
BRANCH  14  15
ATOM     15  C   UNL     1       6.315   3.861  16.172  0.00  0.00    +0.000 C 
BRANCH  15  16
ATOM     16  C   UNL     1       6.600   4.599  14.876  0.00  0.00    +0.000 C 
ATOM     17  O   UNL     1       7.534   5.377  14.767  0.00  0.00    +0.000 OA
BRANCH  16  18
ATOM     18  O   UNL     1       5.763   4.341  13.849  0.00  0.00    +0.000 OA
ATOM     19  H   UNL     1       5.900   3.481  13.412  0.00  0.00    +0.000 HD
ENDBRANCH  16  18
ENDBRANCH  15  16
ENDBRANCH  14  15
ENDBRANCH   7  11
ENDBRANCH   1   7
BRANCH   4  20
ATOM     20  C   UNL     1       1.137  10.933  18.963  0.00  0.00    +0.000 C 
BRANCH  20  21
ATOM     21  S   UNL     1      -0.581  11.230  18.364  0.00  0.00    +0.000 S 
ATOM     22  O   UNL     1      -1.205   9.865  17.892  0.00  0.00    +0.000 OA
BRANCH  21  23
ATOM     23  C   UNL     1      -1.426  11.654  19.913  0.00  0.00    +0.000 A 
ATOM     24  C   UNL     1      -0.794  11.470  21.144  0.00  0.00    +0.000 A 
ATOM     25  C   UNL     1      -1.390  11.908  22.330  0.00  0.00    +0.000 A 
ATOM     26  C   UNL     1      -2.632  12.566  22.312  0.00  0.00    +0.000 A 
ATOM     27  C   UNL     1      -3.269  12.753  21.081  0.00  0.00    +0.000 A 
ATOM     28  C   UNL     1      -2.670  12.307  19.891  0.00  0.00    +0.000 A 
BRANCH  26  29
ATOM     29  C   UNL     1      -3.240  13.091  23.589  0.00  0.00    +0.000 C 
ATOM     30  F   UNL     1      -2.359  13.800  24.350  0.00  0.00    +0.000 F 
ATOM     31  F   UNL     1      -4.288  13.933  23.362  0.00  0.00    +0.000 F 
ATOM     32  F   UNL     1      -3.719  12.107  24.397  0.00  0.00    +0.000 F 
ENDBRANCH  26  29
ENDBRANCH  21  23
ENDBRANCH  20  21
ENDBRANCH   4  20
TORSDOF 9
ENDMDL
MODEL 5
REMARK VINA RESULT:      -7.7      5.297      9.851
REMARK  Name = 
REMARK  11 active torsions:
REMARK  status: ('A' for Active; 'I' for Inactive)
REMARK    1  A    between atoms: C_1  and  C_2
REMARK    2  A    between atoms: N_4  and  C_5
REMARK    3  A    between atoms: C_5  and  C_6
REMARK    4  A    between atoms: C_9  and  C_10
REMARK    5  A    between atoms: C_10  and  S_11
REMARK    6  A    between atoms: S_11  and  C_13
REMARK    7  A    between atoms: C_16  and  C_17
REMARK    8  A    between atoms: C_25  and  C_26
REMARK    9  A    between atoms: C_27  and  C_28
REMARK   10  A    between atoms: C_28  and  C_29
REMARK   11  A    between atoms: C_29  and  O_31
REMARK                            x       y       z     vdW  Elec       q    Type
REMARK                         _______ _______ _______ _____ _____    ______ ____
ROOT
ATOM      1  C   UNL     1       1.834   7.070  19.773  0.00  0.00    +0.000 A 
ATOM      2  C   UNL     1       1.943   6.648  18.437  0.00  0.00    +0.000 A 
ATOM      3  C   UNL     1       1.874   5.281  18.103  0.00  0.00    +0.000 A 
ATOM      4  C   UNL     1       1.706   4.304  19.098  0.00  0.00    +0.000 A 
ATOM      5  C   UNL     1       1.475   4.748  20.407  0.00  0.00    +0.000 A 
ATOM      6  C   UNL     1       1.535   6.106  20.740  0.00  0.00    +0.000 A 
ENDROOT
BRANCH   1   7
ATOM      7  C   UNL     1       2.178   8.482  20.206  0.00  0.00    +0.000 C 
BRANCH   7  11
ATOM      8  C   UNL     1      -1.054  10.955  22.791  0.00  0.00    +0.000 C 
ATOM      9  C   UNL     1      -0.411  10.438  21.555  0.00  0.00    +0.000 A 
ATOM     10  N   UNL     1       0.629   9.600  21.665  0.00  0.00    +0.000 NA
ATOM     11  N   UNL     1       1.034   9.371  20.401  0.00  0.00    +0.000 N 
ATOM     12  C   UNL     1       0.163   9.913  19.479  0.00  0.00    +0.000 A 
ATOM     13  C   UNL     1       0.219   9.772  17.999  0.00  0.00    +0.000 C 
ATOM     14  C   UNL     1      -0.737  10.693  20.196  0.00  0.00    +0.000 A 
BRANCH  14  15
ATOM     15  C   UNL     1      -1.752  11.624  19.584  0.00  0.00    +0.000 C 
BRANCH  15  16
ATOM     16  C   UNL     1      -1.304  13.015  19.177  0.00  0.00    +0.000 C 
ATOM     17  O   UNL     1      -0.536  13.201  18.246  0.00  0.00    +0.000 OA
BRANCH  16  18
ATOM     18  O   UNL     1      -1.807  14.038  19.900  0.00  0.00    +0.000 OA
ATOM     19  H   UNL     1      -1.632  13.991  20.857  0.00  0.00    +0.000 HD
ENDBRANCH  16  18
ENDBRANCH  15  16
ENDBRANCH  14  15
ENDBRANCH   7  11
ENDBRANCH   1   7
BRANCH   4  20
ATOM     20  C   UNL     1       1.787   2.819  18.776  0.00  0.00    +0.000 C 
BRANCH  20  21
ATOM     21  S   UNL     1       3.491   2.141  18.962  0.00  0.00    +0.000 S 
ATOM     22  O   UNL     1       3.757   1.095  17.817  0.00  0.00    +0.000 OA
BRANCH  21  23
ATOM     23  C   UNL     1       4.496   3.595  18.550  0.00  0.00    +0.000 A 
ATOM     24  C   UNL     1       5.069   4.374  19.556  0.00  0.00    +0.000 A 
ATOM     25  C   UNL     1       5.943   5.419  19.245  0.00  0.00    +0.000 A 
ATOM     26  C   UNL     1       6.285   5.699  17.910  0.00  0.00    +0.000 A 
ATOM     27  C   UNL     1       5.714   4.920  16.899  0.00  0.00    +0.000 A 
ATOM     28  C   UNL     1       4.832   3.875  17.214  0.00  0.00    +0.000 A 
BRANCH  26  29
ATOM     29  C   UNL     1       7.278   6.789  17.585  0.00  0.00    +0.000 C 
ATOM     30  F   UNL     1       8.268   6.906  18.515  0.00  0.00    +0.000 F 
ATOM     31  F   UNL     1       7.913   6.580  16.397  0.00  0.00    +0.000 F 
ATOM     32  F   UNL     1       6.707   8.020  17.494  0.00  0.00    +0.000 F 
ENDBRANCH  26  29
ENDBRANCH  21  23
ENDBRANCH  20  21
ENDBRANCH   4  20
TORSDOF 9
ENDMDL
MODEL 6
REMARK VINA RESULT:      -7.7      5.669     10.654
REMARK  Name = 
REMARK  11 active torsions:
REMARK  status: ('A' for Active; 'I' for Inactive)
REMARK    1  A    between atoms: C_1  and  C_2
REMARK    2  A    between atoms: N_4  and  C_5
REMARK    3  A    between atoms: C_5  and  C_6
REMARK    4  A    between atoms: C_9  and  C_10
REMARK    5  A    between atoms: C_10  and  S_11
REMARK    6  A    between atoms: S_11  and  C_13
REMARK    7  A    between atoms: C_16  and  C_17
REMARK    8  A    between atoms: C_25  and  C_26
REMARK    9  A    between atoms: C_27  and  C_28
REMARK   10  A    between atoms: C_28  and  C_29
REMARK   11  A    between atoms: C_29  and  O_31
REMARK                            x       y       z     vdW  Elec       q    Type
REMARK                         _______ _______ _______ _____ _____    ______ ____
ROOT
ATOM      1  C   UNL     1       1.351   9.188  19.051  0.00  0.00    +0.000 A 
ATOM      2  C   UNL     1       1.970   8.738  17.872  0.00  0.00    +0.000 A 
ATOM      3  C   UNL     1       2.696   7.531  17.853  0.00  0.00    +0.000 A 
ATOM      4  C   UNL     1       2.829   6.752  19.014  0.00  0.00    +0.000 A 
ATOM      5  C   UNL     1       2.104   7.151  20.146  0.00  0.00    +0.000 A 
ATOM      6  C   UNL     1       1.376   8.345  20.165  0.00  0.00    +0.000 A 
ENDROOT
BRANCH   1   7
ATOM      7  C   UNL     1       0.806  10.597  19.190  0.00  0.00    +0.000 C 
BRANCH   7  11
ATOM      8  C   UNL     1      -3.089   9.856  16.446  0.00  0.00    +0.000 C 
ATOM      9  C   UNL     1      -2.301  10.456  17.555  0.00  0.00    +0.000 A 
ATOM     10  N   UNL     1      -1.005  10.140  17.676  0.00  0.00    +0.000 NA
ATOM     11  N   UNL     1      -0.591  10.768  18.795  0.00  0.00    +0.000 N 
ATOM     12  C   UNL     1      -1.558  11.616  19.292  0.00  0.00    +0.000 A 
ATOM     13  C   UNL     1      -1.427  12.553  20.440  0.00  0.00    +0.000 C 
ATOM     14  C   UNL     1      -2.715  11.368  18.563  0.00  0.00    +0.000 A 
BRANCH  14  15
ATOM     15  C   UNL     1      -4.076  11.930  18.884  0.00  0.00    +0.000 C 
BRANCH  15  16
ATOM     16  C   UNL     1      -5.176  11.798  17.847  0.00  0.00    +0.000 C 
ATOM     17  O   UNL     1      -6.045  10.945  17.931  0.00  0.00    +0.000 OA
BRANCH  16  18
ATOM     18  O   UNL     1      -5.141  12.681  16.827  0.00  0.00    +0.000 OA
ATOM     19  H   UNL     1      -4.927  12.298  15.957  0.00  0.00    +0.000 HD
ENDBRANCH  16  18
ENDBRANCH  15  16
ENDBRANCH  14  15
ENDBRANCH   7  11
ENDBRANCH   1   7
BRANCH   4  20
ATOM     20  C   UNL     1       3.736   5.531  19.053  0.00  0.00    +0.000 C 
BRANCH  20  21
ATOM     21  S   UNL     1       5.508   5.950  18.767  0.00  0.00    +0.000 S 
ATOM     22  O   UNL     1       6.407   5.036  19.679  0.00  0.00    +0.000 OA
BRANCH  21  23
ATOM     23  C   UNL     1       5.743   5.345  17.072  0.00  0.00    +0.000 A 
ATOM     24  C   UNL     1       6.081   4.013  16.830  0.00  0.00    +0.000 A 
ATOM     25  C   UNL     1       6.143   3.512  15.527  0.00  0.00    +0.000 A 
ATOM     26  C   UNL     1       5.844   4.333  14.425  0.00  0.00    +0.000 A 
ATOM     27  C   UNL     1       5.504   5.668  14.662  0.00  0.00    +0.000 A 
ATOM     28  C   UNL     1       5.448   6.170  15.973  0.00  0.00    +0.000 A 
BRANCH  26  29
ATOM     29  C   UNL     1       5.851   3.770  13.025  0.00  0.00    +0.000 C 
ATOM     30  F   UNL     1       4.635   3.840  12.413  0.00  0.00    +0.000 F 
ATOM     31  F   UNL     1       6.715   4.428  12.201  0.00  0.00    +0.000 F 
ATOM     32  F   UNL     1       6.214   2.460  12.979  0.00  0.00    +0.000 F 
ENDBRANCH  26  29
ENDBRANCH  21  23
ENDBRANCH  20  21
ENDBRANCH   4  20
TORSDOF 9
ENDMDL
MODEL 7
REMARK VINA RESULT:      -7.7      1.596      2.170
REMARK  Name = 
REMARK  11 active torsions:
REMARK  status: ('A' for Active; 'I' for Inactive)
REMARK    1  A    between atoms: C_1  and  C_2
REMARK    2  A    between atoms: N_4  and  C_5
REMARK    3  A    between atoms: C_5  and  C_6
REMARK    4  A    between atoms: C_9  and  C_10
REMARK    5  A    between atoms: C_10  and  S_11
REMARK    6  A    between atoms: S_11  and  C_13
REMARK    7  A    between atoms: C_16  and  C_17
REMARK    8  A    between atoms: C_25  and  C_26
REMARK    9  A    between atoms: C_27  and  C_28
REMARK   10  A    between atoms: C_28  and  C_29
REMARK   11  A    between atoms: C_29  and  O_31
REMARK                            x       y       z     vdW  Elec       q    Type
REMARK                         _______ _______ _______ _____ _____    ______ ____
ROOT
ATOM      1  C   UNL     1       2.333   6.556  19.718  0.00  0.00    +0.000 A 
ATOM      2  C   UNL     1       1.633   7.223  20.738  0.00  0.00    +0.000 A 
ATOM      3  C   UNL     1       1.147   8.532  20.544  0.00  0.00    +0.000 A 
ATOM      4  C   UNL     1       1.359   9.206  19.331  0.00  0.00    +0.000 A 
ATOM      5  C   UNL     1       1.948   8.483  18.284  0.00  0.00    +0.000 A 
ATOM      6  C   UNL     1       2.424   7.182  18.471  0.00  0.00    +0.000 A 
ENDROOT
BRANCH   1   7
ATOM      7  C   UNL     1       3.107   5.277  19.972  0.00  0.00    +0.000 C 
BRANCH   7  11
ATOM      8  C   UNL     1       7.719   5.786  18.662  0.00  0.00    +0.000 C 
ATOM      9  C   UNL     1       6.311   5.330  18.530  0.00  0.00    +0.000 A 
ATOM     10  N   UNL     1       5.421   5.687  19.465  0.00  0.00    +0.000 NA
ATOM     11  N   UNL     1       4.274   5.073  19.115  0.00  0.00    +0.000 N 
ATOM     12  C   UNL     1       4.374   4.469  17.879  0.00  0.00    +0.000 A 
ATOM     13  C   UNL     1       3.288   3.794  17.119  0.00  0.00    +0.000 C 
ATOM     14  C   UNL     1       5.713   4.538  17.513  0.00  0.00    +0.000 A 
BRANCH  14  15
ATOM     15  C   UNL     1       6.320   3.839  16.323  0.00  0.00    +0.000 C 
BRANCH  15  16
ATOM     16  C   UNL     1       6.554   4.641  15.056  0.00  0.00    +0.000 C 
ATOM     17  O   UNL     1       5.808   4.562  14.093  0.00  0.00    +0.000 OA
BRANCH  16  18
ATOM     18  O   UNL     1       7.632   5.452  15.056  0.00  0.00    +0.000 OA
ATOM     19  H   UNL     1       8.491   4.996  14.999  0.00  0.00    +0.000 HD
ENDBRANCH  16  18
ENDBRANCH  15  16
ENDBRANCH  14  15
ENDBRANCH   7  11
ENDBRANCH   1   7
BRANCH   4  20
ATOM     20  C   UNL     1       0.981  10.670  19.158  0.00  0.00    +0.000 C 
BRANCH  20  21
ATOM     21  S   UNL     1       1.188  11.647  20.708  0.00  0.00    +0.000 S 
ATOM     22  O   UNL     1       1.957  12.980  20.379  0.00  0.00    +0.000 OA
BRANCH  21  23
ATOM     23  C   UNL     1      -0.527  12.134  21.049  0.00  0.00    +0.000 A 
ATOM     24  C   UNL     1      -1.404  12.433  20.006  0.00  0.00    +0.000 A 
ATOM     25  C   UNL     1      -2.755  12.688  20.254  0.00  0.00    +0.000 A 
ATOM     26  C   UNL     1      -3.271  12.629  21.561  0.00  0.00    +0.000 A 
ATOM     27  C   UNL     1      -2.396  12.329  22.610  0.00  0.00    +0.000 A 
ATOM     28  C   UNL     1      -1.038  12.078  22.357  0.00  0.00    +0.000 A 
BRANCH  26  29
ATOM     29  C   UNL     1      -4.743  12.844  21.815  0.00  0.00    +0.000 C 
ATOM     30  F   UNL     1      -5.535  11.940  21.172  0.00  0.00    +0.000 F 
ATOM     31  F   UNL     1      -5.067  12.741  23.135  0.00  0.00    +0.000 F 
ATOM     32  F   UNL     1      -5.180  14.069  21.416  0.00  0.00    +0.000 F 
ENDBRANCH  26  29
ENDBRANCH  21  23
ENDBRANCH  20  21
ENDBRANCH   4  20
TORSDOF 9
ENDMDL
MODEL 8
REMARK VINA RESULT:      -7.6      5.669     10.611
REMARK  Name = 
REMARK  11 active torsions:
REMARK  status: ('A' for Active; 'I' for Inactive)
REMARK    1  A    between atoms: C_1  and  C_2
REMARK    2  A    between atoms: N_4  and  C_5
REMARK    3  A    between atoms: C_5  and  C_6
REMARK    4  A    between atoms: C_9  and  C_10
REMARK    5  A    between atoms: C_10  and  S_11
REMARK    6  A    between atoms: S_11  and  C_13
REMARK    7  A    between atoms: C_16  and  C_17
REMARK    8  A    between atoms: C_25  and  C_26
REMARK    9  A    between atoms: C_27  and  C_28
REMARK   10  A    between atoms: C_28  and  C_29
REMARK   11  A    between atoms: C_29  and  O_31
REMARK                            x       y       z     vdW  Elec       q    Type
REMARK                         _______ _______ _______ _____ _____    ______ ____
ROOT
ATOM      1  C   UNL     1       1.507   8.271  20.092  0.00  0.00    +0.000 A 
ATOM      2  C   UNL     1       2.086   8.387  18.817  0.00  0.00    +0.000 A 
ATOM      3  C   UNL     1       2.800   7.314  18.247  0.00  0.00    +0.000 A 
ATOM      4  C   UNL     1       2.961   6.106  18.944  0.00  0.00    +0.000 A 
ATOM      5  C   UNL     1       2.274   5.963  20.158  0.00  0.00    +0.000 A 
ATOM      6  C   UNL     1       1.558   7.024  20.722  0.00  0.00    +0.000 A 
ENDROOT
BRANCH   1   7
ATOM      7  C   UNL     1       0.979   9.473  20.853  0.00  0.00    +0.000 C 
BRANCH   7  11
ATOM      8  C   UNL     1      -2.602  11.212  18.132  0.00  0.00    +0.000 C 
ATOM      9  C   UNL     1      -1.279  11.226  18.809  0.00  0.00    +0.000 A 
ATOM     10  N   UNL     1      -0.882  10.139  19.483  0.00  0.00    +0.000 NA
ATOM     11  N   UNL     1       0.299  10.478  20.037  0.00  0.00    +0.000 N 
ATOM     12  C   UNL     1       0.742  11.704  19.586  0.00  0.00    +0.000 A 
ATOM     13  C   UNL     1       2.046  12.353  19.887  0.00  0.00    +0.000 C 
ATOM     14  C   UNL     1      -0.304  12.259  18.858  0.00  0.00    +0.000 A 
BRANCH  14  15
ATOM     15  C   UNL     1      -0.338  13.672  18.336  0.00  0.00    +0.000 C 
BRANCH  15  16
ATOM     16  C   UNL     1      -0.594  14.800  19.318  0.00  0.00    +0.000 C 
ATOM     17  O   UNL     1       0.209  15.703  19.490  0.00  0.00    +0.000 OA
BRANCH  16  18
ATOM     18  O   UNL     1      -1.764  14.750  19.989  0.00  0.00    +0.000 OA
ATOM     19  H   UNL     1      -1.686  14.558  20.941  0.00  0.00    +0.000 HD
ENDBRANCH  16  18
ENDBRANCH  15  16
ENDBRANCH  14  15
ENDBRANCH   7  11
ENDBRANCH   1   7
BRANCH   4  20
ATOM     20  C   UNL     1       3.857   4.996  18.415  0.00  0.00    +0.000 C 
BRANCH  20  21
ATOM     21  S   UNL     1       5.590   5.555  18.130  0.00  0.00    +0.000 S 
ATOM     22  O   UNL     1       6.551   4.773  19.100  0.00  0.00    +0.000 OA
BRANCH  21  23
ATOM     23  C   UNL     1       5.908   4.887  16.472  0.00  0.00    +0.000 A 
ATOM     24  C   UNL     1       4.969   4.071  15.841  0.00  0.00    +0.000 A 
ATOM     25  C   UNL     1       5.152   3.655  14.519  0.00  0.00    +0.000 A 
ATOM     26  C   UNL     1       6.277   4.067  13.783  0.00  0.00    +0.000 A 
ATOM     27  C   UNL     1       7.220   4.887  14.412  0.00  0.00    +0.000 A 
ATOM     28  C   UNL     1       7.036   5.298  15.741  0.00  0.00    +0.000 A 
BRANCH  26  29
ATOM     29  C   UNL     1       6.437   3.666  12.337  0.00  0.00    +0.000 C 
ATOM     30  F   UNL     1       5.256   3.637  11.656  0.00  0.00    +0.000 F 
ATOM     31  F   UNL     1       7.240   4.521  11.643  0.00  0.00    +0.000 F 
ATOM     32  F   UNL     1       6.984   2.430  12.183  0.00  0.00    +0.000 F 
ENDBRANCH  26  29
ENDBRANCH  21  23
ENDBRANCH  20  21
ENDBRANCH   4  20
TORSDOF 9
ENDMDL
MODEL 9
REMARK VINA RESULT:      -7.6      5.486     10.351
REMARK  Name = 
REMARK  11 active torsions:
REMARK  status: ('A' for Active; 'I' for Inactive)
REMARK    1  A    between atoms: C_1  and  C_2
REMARK    2  A    between atoms: N_4  and  C_5
REMARK    3  A    between atoms: C_5  and  C_6
REMARK    4  A    between atoms: C_9  and  C_10
REMARK    5  A    between atoms: C_10  and  S_11
REMARK    6  A    between atoms: S_11  and  C_13
REMARK    7  A    between atoms: C_16  and  C_17
REMARK    8  A    between atoms: C_25  and  C_26
REMARK    9  A    between atoms: C_27  and  C_28
REMARK   10  A    between atoms: C_28  and  C_29
REMARK   11  A    between atoms: C_29  and  O_31
REMARK                            x       y       z     vdW  Elec       q    Type
REMARK                         _______ _______ _______ _____ _____    ______ ____
ROOT
ATOM      1  C   UNL     1       1.738   8.972  18.959  0.00  0.00    +0.000 A 
ATOM      2  C   UNL     1       1.430   8.591  20.276  0.00  0.00    +0.000 A 
ATOM      3  C   UNL     1       1.470   7.237  20.665  0.00  0.00    +0.000 A 
ATOM      4  C   UNL     1       1.809   6.233  19.743  0.00  0.00    +0.000 A 
ATOM      5  C   UNL     1       2.234   6.641  18.471  0.00  0.00    +0.000 A 
ATOM      6  C   UNL     1       2.202   7.985  18.085  0.00  0.00    +0.000 A 
ENDROOT
BRANCH   1   7
ATOM      7  C   UNL     1       1.441  10.362  18.429  0.00  0.00    +0.000 C 
BRANCH   7  11
ATOM      8  C   UNL     1      -3.273  11.378  18.442  0.00  0.00    +0.000 C 
ATOM      9  C   UNL     1      -1.867  11.444  18.918  0.00  0.00    +0.000 A 
ATOM     10  N   UNL     1      -0.917  10.793  18.235  0.00  0.00    +0.000 NA
ATOM     11  N   UNL     1       0.216  10.976  18.940  0.00  0.00    +0.000 N 
ATOM     12  C   UNL     1       0.037  11.877  19.970  0.00  0.00    +0.000 A 
ATOM     13  C   UNL     1       1.079  12.411  20.887  0.00  0.00    +0.000 C 
ATOM     14  C   UNL     1      -1.328  12.129  20.041  0.00  0.00    +0.000 A 
BRANCH  14  15
ATOM     15  C   UNL     1      -2.006  12.909  21.138  0.00  0.00    +0.000 C 
BRANCH  15  16
ATOM     16  C   UNL     1      -2.426  12.171  22.396  0.00  0.00    +0.000 C 
ATOM     17  O   UNL     1      -1.626  11.557  23.083  0.00  0.00    +0.000 OA
BRANCH  16  18
ATOM     18  O   UNL     1      -3.735  12.237  22.715  0.00  0.00    +0.000 OA
ATOM     19  H   UNL     1      -4.173  11.375  22.838  0.00  0.00    +0.000 HD
ENDBRANCH  16  18
ENDBRANCH  15  16
ENDBRANCH  14  15
ENDBRANCH   7  11
ENDBRANCH   1   7
BRANCH   4  20
ATOM     20  C   UNL     1       1.706   4.758  20.101  0.00  0.00    +0.000 C 
BRANCH  20  21
ATOM     21  S   UNL     1       3.311   4.049  20.666  0.00  0.00    +0.000 S 
ATOM     22  O   UNL     1       3.101   2.535  21.043  0.00  0.00    +0.000 OA
BRANCH  21  23
ATOM     23  C   UNL     1       4.261   4.048  19.120  0.00  0.00    +0.000 A 
ATOM     24  C   UNL     1       3.738   3.472  17.962  0.00  0.00    +0.000 A 
ATOM     25  C   UNL     1       4.409   3.577  16.740  0.00  0.00    +0.000 A 
ATOM     26  C   UNL     1       5.620   4.286  16.643  0.00  0.00    +0.000 A 
ATOM     27  C   UNL     1       6.147   4.866  17.801  0.00  0.00    +0.000 A 
ATOM     28  C   UNL     1       5.473   4.754  19.027  0.00  0.00    +0.000 A 
BRANCH  26  29
ATOM     29  C   UNL     1       6.308   4.449  15.309  0.00  0.00    +0.000 C 
ATOM     30  F   UNL     1       6.135   3.379  14.483  0.00  0.00    +0.000 F 
ATOM     31  F   UNL     1       5.849   5.527  14.613  0.00  0.00    +0.000 F 
ATOM     32  F   UNL     1       7.653   4.618  15.420  0.00  0.00    +0.000 F 
ENDBRANCH  26  29
ENDBRANCH  21  23
ENDBRANCH  20  21
ENDBRANCH   4  20
TORSDOF 9
ENDMDL
