MODEL 1
REMARK VINA RESULT:      -7.2      0.000      0.000
REMARK  Name = 
REMARK  3 active torsions:
REMARK  status: ('A' for Active; 'I' for Inactive)
REMARK    1  A    between atoms: C_1  and  N_2
REMARK    2  A    between atoms: N_2  and  C_3
REMARK    3  A    between atoms: C_6  and  C_7
REMARK                            x       y       z     vdW  Elec       q    Type
REMARK                         _______ _______ _______ _____ _____    ______ ____
ROOT
ATOM      1  C   UNL     1       7.003   5.066  14.908  0.00  0.00    +0.000 A 
ATOM      2  C   UNL     1       6.120   4.021  14.627  0.00  0.00    +0.000 A 
ATOM      3  C   UNL     1       5.197   3.578  15.584  0.00  0.00    +0.000 A 
ATOM      4  C   UNL     1       5.147   4.152  16.863  0.00  0.00    +0.000 A 
ATOM      5  C   UNL     1       6.079   5.148  17.175  0.00  0.00    +0.000 A 
ATOM      6  C   UNL     1       6.990   5.583  16.213  0.00  0.00    +0.000 A 
ATOM      7  F   UNL     1       7.852   6.561  16.540  0.00  0.00    +0.000 F 
ENDROOT
BRANCH   4   8
ATOM      8  C   UNL     1       4.156   3.750  17.873  0.00  0.00    +0.000 A 
ATOM      9  N   UNL     1       4.463   3.266  19.060  0.00  0.00    +0.000 NA
ATOM     10  C   UNL     1       3.318   3.083  19.816  0.00  0.00    +0.000 A 
ATOM     11  C   UNL     1       3.267   2.596  21.138  0.00  0.00    +0.000 A 
ATOM     12  C   UNL     1       2.036   2.501  21.797  0.00  0.00    +0.000 A 
ATOM     13  C   UNL     1       0.860   2.871  21.153  0.00  0.00    +0.000 A 
ATOM     14  C   UNL     1       0.883   3.339  19.836  0.00  0.00    +0.000 A 
ATOM     15  C   UNL     1       2.125   3.438  19.188  0.00  0.00    +0.000 A 
ATOM     16  S   UNL     1       2.472   3.986  17.599  0.00  0.00    +0.000 S 
ENDBRANCH   4   8
BRANCH   1  18
ATOM     17  C   UNL     1       7.781   5.165  12.590  0.00  0.00    +0.000 C 
ATOM     18  N   UNL     1       7.966   5.517  13.988  0.00  0.00    +0.000 N 
ATOM     19  H   UNL     1       8.144   6.512  14.128  0.00  0.00    +0.000 HD
ENDBRANCH   1  18
TORSDOF 2
ENDMDL
MODEL 2
REMARK VINA RESULT:      -7.0      4.551      5.039
REMARK  Name = 
REMARK  3 active torsions:
REMARK  status: ('A' for Active; 'I' for Inactive)
REMARK    1  A    between atoms: C_1  and  N_2
REMARK    2  A    between atoms: N_2  and  C_3
REMARK    3  A    between atoms: C_6  and  C_7
REMARK                            x       y       z     vdW  Elec       q    Type
REMARK                         _______ _______ _______ _____ _____    ______ ____
ROOT
ATOM      1  C   UNL     1       4.998   4.536  16.702  0.00  0.00    +0.000 A 
ATOM      2  C   UNL     1       5.125   5.904  16.451  0.00  0.00    +0.000 A 
ATOM      3  C   UNL     1       4.306   6.838  17.101  0.00  0.00    +0.000 A 
ATOM      4  C   UNL     1       3.316   6.427  18.007  0.00  0.00    +0.000 A 
ATOM      5  C   UNL     1       3.135   5.054  18.206  0.00  0.00    +0.000 A 
ATOM      6  C   UNL     1       3.958   4.136  17.557  0.00  0.00    +0.000 A 
ATOM      7  F   UNL     1       3.772   2.826  17.794  0.00  0.00    +0.000 F 
ENDROOT
BRANCH   4   8
ATOM      8  C   UNL     1       2.477   7.381  18.748  0.00  0.00    +0.000 A 
ATOM      9  N   UNL     1       2.176   7.265  20.026  0.00  0.00    +0.000 NA
ATOM     10  C   UNL     1       1.461   8.369  20.454  0.00  0.00    +0.000 A 
ATOM     11  C   UNL     1       0.986   8.592  21.763  0.00  0.00    +0.000 A 
ATOM     12  C   UNL     1       0.309   9.779  22.064  0.00  0.00    +0.000 A 
ATOM     13  C   UNL     1       0.090  10.736  21.079  0.00  0.00    +0.000 A 
ATOM     14  C   UNL     1       0.533  10.529  19.770  0.00  0.00    +0.000 A 
ATOM     15  C   UNL     1       1.220   9.339  19.482  0.00  0.00    +0.000 A 
ATOM     16  S   UNL     1       1.892   8.814  17.993  0.00  0.00    +0.000 S 
ENDBRANCH   4   8
BRANCH   1  18
ATOM     17  C   UNL     1       6.477   3.968  14.838  0.00  0.00    +0.000 C 
ATOM     18  N   UNL     1       5.776   3.567  16.046  0.00  0.00    +0.000 N 
ATOM     19  H   UNL     1       6.379   3.090  16.718  0.00  0.00    +0.000 HD
ENDBRANCH   1  18
TORSDOF 2
ENDMDL
MODEL 3
REMARK VINA RESULT:      -6.7      4.329      4.798
REMARK  Name = 
REMARK  3 active torsions:
REMARK  status: ('A' for Active; 'I' for Inactive)
REMARK    1  A    between atoms: C_1  and  N_2
REMARK    2  A    between atoms: N_2  and  C_3
REMARK    3  A    between atoms: C_6  and  C_7
REMARK                            x       y       z     vdW  Elec       q    Type
REMARK                         _______ _______ _______ _____ _____    ______ ____
ROOT
ATOM      1  C   UNL     1       5.016   4.448  16.723  0.00  0.00    +0.000 A 
ATOM      2  C   UNL     1       3.760   4.064  17.198  0.00  0.00    +0.000 A 
ATOM      3  C   UNL     1       2.936   4.971  17.877  0.00  0.00    +0.000 A 
ATOM      4  C   UNL     1       3.355   6.287  18.123  0.00  0.00    +0.000 A 
ATOM      5  C   UNL     1       4.641   6.655  17.715  0.00  0.00    +0.000 A 
ATOM      6  C   UNL     1       5.451   5.746  17.037  0.00  0.00    +0.000 A 
ATOM      7  F   UNL     1       6.670   6.144  16.636  0.00  0.00    +0.000 F 
ENDROOT
BRANCH   4   8
ATOM      8  C   UNL     1       2.494   7.282  18.783  0.00  0.00    +0.000 A 
ATOM      9  N   UNL     1       2.206   7.273  20.069  0.00  0.00    +0.000 NA
ATOM     10  C   UNL     1       1.464   8.393  20.403  0.00  0.00    +0.000 A 
ATOM     11  C   UNL     1       0.992   8.721  21.690  0.00  0.00    +0.000 A 
ATOM     12  C   UNL     1       0.285   9.912  21.889  0.00  0.00    +0.000 A 
ATOM     13  C   UNL     1       0.033  10.770  20.823  0.00  0.00    +0.000 A 
ATOM     14  C   UNL     1       0.474  10.457  19.535  0.00  0.00    +0.000 A 
ATOM     15  C   UNL     1       1.190   9.264  19.349  0.00  0.00    +0.000 A 
ATOM     16  S   UNL     1       1.866   8.625  17.907  0.00  0.00    +0.000 S 
ENDBRANCH   4   8
BRANCH   1  18
ATOM     17  C   UNL     1       6.114   3.764  14.646  0.00  0.00    +0.000 C 
ATOM     18  N   UNL     1       5.886   3.560  16.067  0.00  0.00    +0.000 N 
ATOM     19  H   UNL     1       6.752   3.461  16.600  0.00  0.00    +0.000 HD
ENDBRANCH   1  18
TORSDOF 2
ENDMDL
MODEL 4
REMARK VINA RESULT:      -6.7      1.136      1.596
REMARK  Name = 
REMARK  3 active torsions:
REMARK  status: ('A' for Active; 'I' for Inactive)
REMARK    1  A    between atoms: C_1  and  N_2
REMARK    2  A    between atoms: N_2  and  C_3
REMARK    3  A    between atoms: C_6  and  C_7
REMARK                            x       y       z     vdW  Elec       q    Type
REMARK                         _______ _______ _______ _____ _____    ______ ____
ROOT
ATOM      1  C   UNL     1       7.145   5.111  14.878  0.00  0.00    +0.000 A 
ATOM      2  C   UNL     1       6.969   5.894  16.021  0.00  0.00    +0.000 A 
ATOM      3  C   UNL     1       6.011   5.559  16.987  0.00  0.00    +0.000 A 
ATOM      4  C   UNL     1       5.180   4.439  16.826  0.00  0.00    +0.000 A 
ATOM      5  C   UNL     1       5.301   3.694  15.648  0.00  0.00    +0.000 A 
ATOM      6  C   UNL     1       6.261   4.035  14.696  0.00  0.00    +0.000 A 
ATOM      7  F   UNL     1       6.366   3.280  13.589  0.00  0.00    +0.000 F 
ENDROOT
BRANCH   4   8
ATOM      8  C   UNL     1       4.203   4.025  17.844  0.00  0.00    +0.000 A 
ATOM      9  N   UNL     1       4.506   3.333  18.924  0.00  0.00    +0.000 NA
ATOM     10  C   UNL     1       3.393   3.192  19.734  0.00  0.00    +0.000 A 
ATOM     11  C   UNL     1       3.350   2.525  20.974  0.00  0.00    +0.000 A 
ATOM     12  C   UNL     1       2.159   2.496  21.708  0.00  0.00    +0.000 A 
ATOM     13  C   UNL     1       1.012   3.110  21.216  0.00  0.00    +0.000 A 
ATOM     14  C   UNL     1       1.024   3.761  19.979  0.00  0.00    +0.000 A 
ATOM     15  C   UNL     1       2.227   3.792  19.257  0.00  0.00    +0.000 A 
ATOM     16  S   UNL     1       2.556   4.520  17.738  0.00  0.00    +0.000 S 
ENDBRANCH   4   8
BRANCH   1  18
ATOM     17  C   UNL     1       7.616   5.367  12.491  0.00  0.00    +0.000 C 
ATOM     18  N   UNL     1       8.070   5.432  13.870  0.00  0.00    +0.000 N 
ATOM     19  H   UNL     1       8.541   6.310  14.093  0.00  0.00    +0.000 HD
ENDBRANCH   1  18
TORSDOF 2
ENDMDL
MODEL 5
REMARK VINA RESULT:      -6.7      2.640      7.259
REMARK  Name = 
REMARK  3 active torsions:
REMARK  status: ('A' for Active; 'I' for Inactive)
REMARK    1  A    between atoms: C_1  and  N_2
REMARK    2  A    between atoms: N_2  and  C_3
REMARK    3  A    between atoms: C_6  and  C_7
REMARK                            x       y       z     vdW  Elec       q    Type
REMARK                         _______ _______ _______ _____ _____    ______ ____
ROOT
ATOM      1  C   UNL     1       2.674   4.270  19.648  0.00  0.00    +0.000 A 
ATOM      2  C   UNL     1       3.923   4.891  19.708  0.00  0.00    +0.000 A 
ATOM      3  C   UNL     1       4.773   4.915  18.593  0.00  0.00    +0.000 A 
ATOM      4  C   UNL     1       4.406   4.295  17.389  0.00  0.00    +0.000 A 
ATOM      5  C   UNL     1       3.188   3.607  17.347  0.00  0.00    +0.000 A 
ATOM      6  C   UNL     1       2.351   3.593  18.461  0.00  0.00    +0.000 A 
ATOM      7  F   UNL     1       1.176   2.946  18.374  0.00  0.00    +0.000 F 
ENDROOT
BRANCH   4   8
ATOM      8  C   UNL     1       5.247   4.348  16.183  0.00  0.00    +0.000 A 
ATOM      9  N   UNL     1       5.007   3.664  15.082  0.00  0.00    +0.000 NA
ATOM     10  C   UNL     1       5.915   4.006  14.095  0.00  0.00    +0.000 A 
ATOM     11  C   UNL     1       5.950   3.486  12.786  0.00  0.00    +0.000 A 
ATOM     12  C   UNL     1       6.903   3.956  11.876  0.00  0.00    +0.000 A 
ATOM     13  C   UNL     1       7.826   4.924  12.258  0.00  0.00    +0.000 A 
ATOM     14  C   UNL     1       7.824   5.441  13.556  0.00  0.00    +0.000 A 
ATOM     15  C   UNL     1       6.856   4.968  14.458  0.00  0.00    +0.000 A 
ATOM     16  S   UNL     1       6.594   5.419  16.093  0.00  0.00    +0.000 S 
ENDBRANCH   4   8
BRANCH   1  18
ATOM     17  C   UNL     1       1.884   3.009  21.590  0.00  0.00    +0.000 C 
ATOM     18  N   UNL     1       1.808   4.194  20.753  0.00  0.00    +0.000 N 
ATOM     19  H   UNL     1       1.847   5.063  21.288  0.00  0.00    +0.000 HD
ENDBRANCH   1  18
TORSDOF 2
ENDMDL
MODEL 6
REMARK VINA RESULT:      -6.6      1.633      2.197
REMARK  Name = 
REMARK  3 active torsions:
REMARK  status: ('A' for Active; 'I' for Inactive)
REMARK    1  A    between atoms: C_1  and  N_2
REMARK    2  A    between atoms: N_2  and  C_3
REMARK    3  A    between atoms: C_6  and  C_7
REMARK                            x       y       z     vdW  Elec       q    Type
REMARK                         _______ _______ _______ _____ _____    ______ ____
ROOT
ATOM      1  C   UNL     1       7.300   5.088  14.557  0.00  0.00    +0.000 A 
ATOM      2  C   UNL     1       7.244   5.892  15.697  0.00  0.00    +0.000 A 
ATOM      3  C   UNL     1       6.240   5.716  16.658  0.00  0.00    +0.000 A 
ATOM      4  C   UNL     1       5.244   4.741  16.495  0.00  0.00    +0.000 A 
ATOM      5  C   UNL     1       5.251   3.983  15.319  0.00  0.00    +0.000 A 
ATOM      6  C   UNL     1       6.257   4.165  14.372  0.00  0.00    +0.000 A 
ATOM      7  F   UNL     1       6.248   3.399  13.268  0.00  0.00    +0.000 F 
ENDROOT
BRANCH   4   8
ATOM      8  C   UNL     1       4.207   4.490  17.509  0.00  0.00    +0.000 A 
ATOM      9  N   UNL     1       3.137   3.748  17.306  0.00  0.00    +0.000 NA
ATOM     10  C   UNL     1       2.412   3.620  18.477  0.00  0.00    +0.000 A 
ATOM     11  C   UNL     1       1.219   2.885  18.636  0.00  0.00    +0.000 A 
ATOM     12  C   UNL     1       0.612   2.809  19.895  0.00  0.00    +0.000 A 
ATOM     13  C   UNL     1       1.170   3.463  20.988  0.00  0.00    +0.000 A 
ATOM     14  C   UNL     1       2.341   4.214  20.851  0.00  0.00    +0.000 A 
ATOM     15  C   UNL     1       2.946   4.276  19.586  0.00  0.00    +0.000 A 
ATOM     16  S   UNL     1       4.380   5.091  19.114  0.00  0.00    +0.000 S 
ENDBRANCH   4   8
BRANCH   1  18
ATOM     17  C   UNL     1       7.819   5.703  12.246  0.00  0.00    +0.000 C 
ATOM     18  N   UNL     1       8.270   5.255  13.553  0.00  0.00    +0.000 N 
ATOM     19  H   UNL     1       9.054   5.802  13.912  0.00  0.00    +0.000 HD
ENDBRANCH   1  18
TORSDOF 2
ENDMDL
MODEL 7
REMARK VINA RESULT:      -6.6      1.029      1.317
REMARK  Name = 
REMARK  3 active torsions:
REMARK  status: ('A' for Active; 'I' for Inactive)
REMARK    1  A    between atoms: C_1  and  N_2
REMARK    2  A    between atoms: N_2  and  C_3
REMARK    3  A    between atoms: C_6  and  C_7
REMARK                            x       y       z     vdW  Elec       q    Type
REMARK                         _______ _______ _______ _____ _____    ______ ____
ROOT
ATOM      1  C   UNL     1       7.047   5.214  14.819  0.00  0.00    +0.000 A 
ATOM      2  C   UNL     1       6.125   4.184  14.620  0.00  0.00    +0.000 A 
ATOM      3  C   UNL     1       5.185   3.855  15.606  0.00  0.00    +0.000 A 
ATOM      4  C   UNL     1       5.154   4.533  16.833  0.00  0.00    +0.000 A 
ATOM      5  C   UNL     1       6.122   5.516  17.067  0.00  0.00    +0.000 A 
ATOM      6  C   UNL     1       7.050   5.837  16.078  0.00  0.00    +0.000 A 
ATOM      7  F   UNL     1       7.947   6.805  16.328  0.00  0.00    +0.000 F 
ENDROOT
BRANCH   4   8
ATOM      8  C   UNL     1       4.146   4.253  17.868  0.00  0.00    +0.000 A 
ATOM      9  N   UNL     1       3.164   3.385  17.729  0.00  0.00    +0.000 NA
ATOM     10  C   UNL     1       2.452   3.272  18.910  0.00  0.00    +0.000 A 
ATOM     11  C   UNL     1       1.345   2.427  19.133  0.00  0.00    +0.000 A 
ATOM     12  C   UNL     1       0.745   2.385  20.396  0.00  0.00    +0.000 A 
ATOM     13  C   UNL     1       1.223   3.182  21.431  0.00  0.00    +0.000 A 
ATOM     14  C   UNL     1       2.306   4.042  21.230  0.00  0.00    +0.000 A 
ATOM     15  C   UNL     1       2.906   4.068  19.961  0.00  0.00    +0.000 A 
ATOM     16  S   UNL     1       4.246   4.994  19.420  0.00  0.00    +0.000 S 
ENDBRANCH   4   8
BRANCH   1  18
ATOM     17  C   UNL     1       7.788   5.171  12.488  0.00  0.00    +0.000 C 
ATOM     18  N   UNL     1       8.027   5.552  13.870  0.00  0.00    +0.000 N 
ATOM     19  H   UNL     1       8.290   6.533  13.973  0.00  0.00    +0.000 HD
ENDBRANCH   1  18
TORSDOF 2
ENDMDL
MODEL 8
REMARK VINA RESULT:      -6.6      4.734      5.391
REMARK  Name = 
REMARK  3 active torsions:
REMARK  status: ('A' for Active; 'I' for Inactive)
REMARK    1  A    between atoms: C_1  and  N_2
REMARK    2  A    between atoms: N_2  and  C_3
REMARK    3  A    between atoms: C_6  and  C_7
REMARK                            x       y       z     vdW  Elec       q    Type
REMARK                         _______ _______ _______ _____ _____    ______ ____
ROOT
ATOM      1  C   UNL     1       5.081   4.955  17.577  0.00  0.00    +0.000 A 
ATOM      2  C   UNL     1       4.592   4.764  18.871  0.00  0.00    +0.000 A 
ATOM      3  C   UNL     1       3.677   5.661  19.438  0.00  0.00    +0.000 A 
ATOM      4  C   UNL     1       3.240   6.793  18.734  0.00  0.00    +0.000 A 
ATOM      5  C   UNL     1       3.783   7.030  17.466  0.00  0.00    +0.000 A 
ATOM      6  C   UNL     1       4.690   6.129  16.911  0.00  0.00    +0.000 A 
ATOM      7  F   UNL     1       5.168   6.375  15.679  0.00  0.00    +0.000 F 
ENDROOT
BRANCH   4   8
ATOM      8  C   UNL     1       2.239   7.725  19.276  0.00  0.00    +0.000 A 
ATOM      9  N   UNL     1       1.774   7.678  20.508  0.00  0.00    +0.000 NA
ATOM     10  C   UNL     1       0.928   8.748  20.744  0.00  0.00    +0.000 A 
ATOM     11  C   UNL     1       0.263   9.026  21.955  0.00  0.00    +0.000 A 
ATOM     12  C   UNL     1      -0.534  10.171  22.064  0.00  0.00    +0.000 A 
ATOM     13  C   UNL     1      -0.684  11.032  20.982  0.00  0.00    +0.000 A 
ATOM     14  C   UNL     1      -0.050  10.767  19.765  0.00  0.00    +0.000 A 
ATOM     15  C   UNL     1       0.754   9.620  19.670  0.00  0.00    +0.000 A 
ATOM     16  S   UNL     1       1.662   9.046  18.332  0.00  0.00    +0.000 S 
ENDBRANCH   4   8
BRANCH   1  18
ATOM     17  C   UNL     1       7.424   4.485  17.053  0.00  0.00    +0.000 C 
ATOM     18  N   UNL     1       6.024   4.099  16.984  0.00  0.00    +0.000 N 
ATOM     19  H   UNL     1       5.862   3.137  17.285  0.00  0.00    +0.000 HD
ENDBRANCH   1  18
TORSDOF 2
ENDMDL
MODEL 9
REMARK VINA RESULT:      -6.6      2.503      7.140
REMARK  Name = 
REMARK  3 active torsions:
REMARK  status: ('A' for Active; 'I' for Inactive)
REMARK    1  A    between atoms: C_1  and  N_2
REMARK    2  A    between atoms: N_2  and  C_3
REMARK    3  A    between atoms: C_6  and  C_7
REMARK                            x       y       z     vdW  Elec       q    Type
REMARK                         _______ _______ _______ _____ _____    ______ ____
ROOT
ATOM      1  C   UNL     1       2.992   4.291  20.001  0.00  0.00    +0.000 A 
ATOM      2  C   UNL     1       2.854   5.360  19.112  0.00  0.00    +0.000 A 
ATOM      3  C   UNL     1       3.619   5.429  17.940  0.00  0.00    +0.000 A 
ATOM      4  C   UNL     1       4.564   4.439  17.632  0.00  0.00    +0.000 A 
ATOM      5  C   UNL     1       4.759   3.404  18.554  0.00  0.00    +0.000 A 
ATOM      6  C   UNL     1       3.990   3.345  19.715  0.00  0.00    +0.000 A 
ATOM      7  F   UNL     1       4.185   2.321  20.564  0.00  0.00    +0.000 F 
ENDROOT
BRANCH   4   8
ATOM      8  C   UNL     1       5.345   4.449  16.385  0.00  0.00    +0.000 A 
ATOM      9  N   UNL     1       5.026   3.761  15.307  0.00  0.00    +0.000 NA
ATOM     10  C   UNL     1       5.894   4.062  14.271  0.00  0.00    +0.000 A 
ATOM     11  C   UNL     1       5.845   3.526  12.968  0.00  0.00    +0.000 A 
ATOM     12  C   UNL     1       6.766   3.953  12.006  0.00  0.00    +0.000 A 
ATOM     13  C   UNL     1       7.739   4.894  12.328  0.00  0.00    +0.000 A 
ATOM     14  C   UNL     1       7.819   5.425  13.618  0.00  0.00    +0.000 A 
ATOM     15  C   UNL     1       6.884   4.996  14.573  0.00  0.00    +0.000 A 
ATOM     16  S   UNL     1       6.719   5.473  16.213  0.00  0.00    +0.000 S 
ENDBRANCH   4   8
BRANCH   1  18
ATOM     17  C   UNL     1       1.295   3.130  21.327  0.00  0.00    +0.000 C 
ATOM     18  N   UNL     1       2.269   4.202  21.203  0.00  0.00    +0.000 N 
ATOM     19  H   UNL     1       2.906   4.255  21.999  0.00  0.00    +0.000 HD
ENDBRANCH   1  18
TORSDOF 2
ENDMDL
