MODEL 1
REMARK VINA RESULT:      -8.4      0.000      0.000
REMARK  Name = 
REMARK  2 active torsions:
REMARK  status: ('A' for Active; 'I' for Inactive)
REMARK    1  A    between atoms: C_1  and  C_2
REMARK    2  A    between atoms: N_4  and  C_5
REMARK                            x       y       z     vdW  Elec       q    Type
REMARK                         _______ _______ _______ _____ _____    ______ ____
ROOT
ATOM      1  C   UNL     1       3.465   7.802  17.812  0.00  0.00    +0.000 C 
ATOM      2  C   UNL     1       3.945   6.499  17.285  0.00  0.00    +0.000 A 
ATOM      3  N   UNL     1       4.784   6.483  16.234  0.00  0.00    +0.000 NA
ATOM      4  N   UNL     1       4.950   5.165  15.932  0.00  0.00    +0.000 N 
ATOM      5  C   UNL     1       4.335   4.363  16.872  0.00  0.00    +0.000 A 
ATOM      6  N   UNL     1       4.410   2.995  17.008  0.00  0.00    +0.000 N 
ATOM      7  C   UNL     1       3.789   2.384  18.068  0.00  0.00    +0.000 A 
ATOM      8  O   UNL     1       3.848   1.166  18.218  0.00  0.00    +0.000 OA
ATOM      9  C   UNL     1       3.045   3.260  19.038  0.00  0.00    +0.000 A 
ATOM     10  C   UNL     1       2.996   4.599  18.849  0.00  0.00    +0.000 A 
ATOM     11  C   UNL     1       3.679   5.192  17.747  0.00  0.00    +0.000 A 
ATOM     12  C   UNL     1       2.268   5.514  19.794  0.00  0.00    +0.000 C 
ATOM     13  C   UNL     1       1.345   4.762  20.757  0.00  0.00    +0.000 C 
ATOM     14  C   UNL     1       2.037   3.534  21.332  0.00  0.00    +0.000 C 
ATOM     15  C   UNL     1       2.430   2.562  20.217  0.00  0.00    +0.000 C 
ATOM     16  H   UNL     1       4.967   2.409  16.400  0.00  0.00    +0.000 HD
ENDROOT
BRANCH   4  17
ATOM     17  C   UNL     1       5.714   4.758  14.809  0.00  0.00    +0.000 A 
ATOM     18  C   UNL     1       5.148   3.884  13.871  0.00  0.00    +0.000 A 
ATOM     19  C   UNL     1       5.858   3.561  12.713  0.00  0.00    +0.000 A 
ATOM     20  C   UNL     1       7.141   4.070  12.510  0.00  0.00    +0.000 A 
ATOM     21  C   UNL     1       7.726   4.897  13.467  0.00  0.00    +0.000 A 
ATOM     22  C   UNL     1       7.012   5.242  14.617  0.00  0.00    +0.000 A 
ENDBRANCH   4  17
TORSDOF 1
ENDMDL
MODEL 2
REMARK VINA RESULT:      -8.0      0.138      1.065
REMARK  Name = 
REMARK  2 active torsions:
REMARK  status: ('A' for Active; 'I' for Inactive)
REMARK    1  A    between atoms: C_1  and  C_2
REMARK    2  A    between atoms: N_4  and  C_5
REMARK                            x       y       z     vdW  Elec       q    Type
REMARK                         _______ _______ _______ _____ _____    ______ ____
ROOT
ATOM      1  C   UNL     1       3.340   7.764  17.961  0.00  0.00    +0.000 C 
ATOM      2  C   UNL     1       3.844   6.486  17.396  0.00  0.00    +0.000 A 
ATOM      3  N   UNL     1       4.673   6.516  16.338  0.00  0.00    +0.000 NA
ATOM      4  N   UNL     1       4.864   5.210  15.999  0.00  0.00    +0.000 N 
ATOM      5  C   UNL     1       4.275   4.371  16.923  0.00  0.00    +0.000 A 
ATOM      6  N   UNL     1       4.380   3.001  17.022  0.00  0.00    +0.000 N 
ATOM      7  C   UNL     1       3.782   2.349  18.071  0.00  0.00    +0.000 A 
ATOM      8  O   UNL     1       3.868   1.130  18.188  0.00  0.00    +0.000 OA
ATOM      9  C   UNL     1       3.028   3.184  19.070  0.00  0.00    +0.000 A 
ATOM     10  C   UNL     1       2.949   4.526  18.917  0.00  0.00    +0.000 A 
ATOM     11  C   UNL     1       3.610   5.162  17.825  0.00  0.00    +0.000 A 
ATOM     12  C   UNL     1       2.210   5.399  19.892  0.00  0.00    +0.000 C 
ATOM     13  C   UNL     1       1.312   4.603  20.843  0.00  0.00    +0.000 C 
ATOM     14  C   UNL     1       2.036   3.375  21.379  0.00  0.00    +0.000 C 
ATOM     15  C   UNL     1       2.439   2.442  20.235  0.00  0.00    +0.000 C 
ATOM     16  H   UNL     1       4.944   2.444  16.395  0.00  0.00    +0.000 HD
ENDROOT
BRANCH   4  17
ATOM     17  C   UNL     1       5.627   4.849  14.860  0.00  0.00    +0.000 A 
ATOM     18  C   UNL     1       6.936   5.330  14.728  0.00  0.00    +0.000 A 
ATOM     19  C   UNL     1       7.726   4.896  13.661  0.00  0.00    +0.000 A 
ATOM     20  C   UNL     1       7.202   4.022  12.708  0.00  0.00    +0.000 A 
ATOM     21  C   UNL     1       5.883   3.585  12.810  0.00  0.00    +0.000 A 
ATOM     22  C   UNL     1       5.095   3.997  13.887  0.00  0.00    +0.000 A 
ENDBRANCH   4  17
TORSDOF 1
ENDMDL
MODEL 3
REMARK VINA RESULT:      -7.9      3.047      4.679
REMARK  Name = 
REMARK  2 active torsions:
REMARK  status: ('A' for Active; 'I' for Inactive)
REMARK    1  A    between atoms: C_1  and  C_2
REMARK    2  A    between atoms: N_4  and  C_5
REMARK                            x       y       z     vdW  Elec       q    Type
REMARK                         _______ _______ _______ _____ _____    ______ ____
ROOT
ATOM      1  C   UNL     1       2.282   4.554  21.229  0.00  0.00    +0.000 C 
ATOM      2  C   UNL     1       2.781   5.271  20.027  0.00  0.00    +0.000 A 
ATOM      3  N   UNL     1       3.582   4.627  19.162  0.00  0.00    +0.000 NA
ATOM      4  N   UNL     1       3.945   5.568  18.245  0.00  0.00    +0.000 N 
ATOM      5  C   UNL     1       3.264   6.750  18.458  0.00  0.00    +0.000 A 
ATOM      6  N   UNL     1       3.232   7.872  17.660  0.00  0.00    +0.000 N 
ATOM      7  C   UNL     1       2.420   8.924  18.003  0.00  0.00    +0.000 A 
ATOM      8  O   UNL     1       2.366   9.932  17.304  0.00  0.00    +0.000 OA
ATOM      9  C   UNL     1       1.598   8.790  19.255  0.00  0.00    +0.000 A 
ATOM     10  C   UNL     1       1.678   7.667  20.006  0.00  0.00    +0.000 A 
ATOM     11  C   UNL     1       2.516   6.589  19.596  0.00  0.00    +0.000 A 
ATOM     12  C   UNL     1       0.872   7.488  21.262  0.00  0.00    +0.000 C 
ATOM     13  C   UNL     1       0.243   8.793  21.758  0.00  0.00    +0.000 C 
ATOM     14  C   UNL     1      -0.381   9.570  20.606  0.00  0.00    +0.000 C 
ATOM     15  C   UNL     1       0.678   9.936  19.564  0.00  0.00    +0.000 C 
ATOM     16  H   UNL     1       3.727   7.939  16.781  0.00  0.00    +0.000 HD
ENDROOT
BRANCH   4  17
ATOM     17  C   UNL     1       4.869   5.271  17.211  0.00  0.00    +0.000 A 
ATOM     18  C   UNL     1       6.078   5.975  17.145  0.00  0.00    +0.000 A 
ATOM     19  C   UNL     1       7.034   5.617  16.192  0.00  0.00    +0.000 A 
ATOM     20  C   UNL     1       6.770   4.594  15.282  0.00  0.00    +0.000 A 
ATOM     21  C   UNL     1       5.546   3.928  15.313  0.00  0.00    +0.000 A 
ATOM     22  C   UNL     1       4.595   4.266  16.278  0.00  0.00    +0.000 A 
ENDBRANCH   4  17
TORSDOF 1
ENDMDL
MODEL 4
REMARK VINA RESULT:      -7.8      3.021      4.532
REMARK  Name = 
REMARK  2 active torsions:
REMARK  status: ('A' for Active; 'I' for Inactive)
REMARK    1  A    between atoms: C_1  and  C_2
REMARK    2  A    between atoms: N_4  and  C_5
REMARK                            x       y       z     vdW  Elec       q    Type
REMARK                         _______ _______ _______ _____ _____    ______ ____
ROOT
ATOM      1  C   UNL     1       2.282   4.522  21.251  0.00  0.00    +0.000 C 
ATOM      2  C   UNL     1       2.790   5.230  20.048  0.00  0.00    +0.000 A 
ATOM      3  N   UNL     1       3.595   4.578  19.191  0.00  0.00    +0.000 NA
ATOM      4  N   UNL     1       3.967   5.512  18.271  0.00  0.00    +0.000 N 
ATOM      5  C   UNL     1       3.288   6.696  18.472  0.00  0.00    +0.000 A 
ATOM      6  N   UNL     1       3.265   7.814  17.666  0.00  0.00    +0.000 N 
ATOM      7  C   UNL     1       2.454   8.871  17.997  0.00  0.00    +0.000 A 
ATOM      8  O   UNL     1       2.407   9.874  17.291  0.00  0.00    +0.000 OA
ATOM      9  C   UNL     1       1.623   8.747  19.245  0.00  0.00    +0.000 A 
ATOM     10  C   UNL     1       1.695   7.629  20.003  0.00  0.00    +0.000 A 
ATOM     11  C   UNL     1       2.532   6.546  19.606  0.00  0.00    +0.000 A 
ATOM     12  C   UNL     1       0.881   7.461  21.256  0.00  0.00    +0.000 C 
ATOM     13  C   UNL     1       0.252   8.771  21.739  0.00  0.00    +0.000 C 
ATOM     14  C   UNL     1      -0.362   9.543  20.578  0.00  0.00    +0.000 C 
ATOM     15  C   UNL     1       0.705   9.898  19.540  0.00  0.00    +0.000 C 
ATOM     16  H   UNL     1       3.766   7.874  16.790  0.00  0.00    +0.000 HD
ENDROOT
BRANCH   4  17
ATOM     17  C   UNL     1       4.896   5.205  17.245  0.00  0.00    +0.000 A 
ATOM     18  C   UNL     1       4.550   4.271  16.260  0.00  0.00    +0.000 A 
ATOM     19  C   UNL     1       5.419   4.041  15.191  0.00  0.00    +0.000 A 
ATOM     20  C   UNL     1       6.644   4.706  15.126  0.00  0.00    +0.000 A 
ATOM     21  C   UNL     1       7.012   5.596  16.133  0.00  0.00    +0.000 A 
ATOM     22  C   UNL     1       6.138   5.847  17.192  0.00  0.00    +0.000 A 
ENDBRANCH   4  17
TORSDOF 1
ENDMDL
MODEL 5
REMARK VINA RESULT:      -7.3      3.307      6.673
REMARK  Name = 
REMARK  2 active torsions:
REMARK  status: ('A' for Active; 'I' for Inactive)
REMARK    1  A    between atoms: C_1  and  C_2
REMARK    2  A    between atoms: N_4  and  C_5
REMARK                            x       y       z     vdW  Elec       q    Type
REMARK                         _______ _______ _______ _____ _____    ______ ____
ROOT
ATOM      1  C   UNL     1       4.069   7.336  16.821  0.00  0.00    +0.000 C 
ATOM      2  C   UNL     1       3.195   7.174  18.011  0.00  0.00    +0.000 A 
ATOM      3  N   UNL     1       2.563   8.248  18.515  0.00  0.00    +0.000 NA
ATOM      4  N   UNL     1       1.940   7.799  19.641  0.00  0.00    +0.000 N 
ATOM      5  C   UNL     1       2.067   6.430  19.759  0.00  0.00    +0.000 A 
ATOM      6  N   UNL     1       1.450   5.590  20.660  0.00  0.00    +0.000 N 
ATOM      7  C   UNL     1       1.640   4.235  20.564  0.00  0.00    +0.000 A 
ATOM      8  O   UNL     1       1.094   3.464  21.348  0.00  0.00    +0.000 OA
ATOM      9  C   UNL     1       2.530   3.733  19.459  0.00  0.00    +0.000 A 
ATOM     10  C   UNL     1       3.118   4.606  18.609  0.00  0.00    +0.000 A 
ATOM     11  C   UNL     1       2.870   6.004  18.732  0.00  0.00    +0.000 A 
ATOM     12  C   UNL     1       4.011   4.150  17.489  0.00  0.00    +0.000 C 
ATOM     13  C   UNL     1       4.435   2.685  17.624  0.00  0.00    +0.000 C 
ATOM     14  C   UNL     1       3.251   1.806  18.005  0.00  0.00    +0.000 C 
ATOM     15  C   UNL     1       2.664   2.242  19.349  0.00  0.00    +0.000 C 
ATOM     16  H   UNL     1       0.795   5.915  21.359  0.00  0.00    +0.000 HD
ENDROOT
BRANCH   4  17
ATOM     17  C   UNL     1       1.233   8.684  20.494  0.00  0.00    +0.000 A 
ATOM     18  C   UNL     1       0.385   9.648  19.935  0.00  0.00    +0.000 A 
ATOM     19  C   UNL     1      -0.391  10.453  20.771  0.00  0.00    +0.000 A 
ATOM     20  C   UNL     1      -0.290  10.329  22.157  0.00  0.00    +0.000 A 
ATOM     21  C   UNL     1       0.593   9.406  22.715  0.00  0.00    +0.000 A 
ATOM     22  C   UNL     1       1.354   8.582  21.883  0.00  0.00    +0.000 A 
ENDBRANCH   4  17
TORSDOF 1
ENDMDL
MODEL 6
REMARK VINA RESULT:      -7.2      3.302      6.694
REMARK  Name = 
REMARK  2 active torsions:
REMARK  status: ('A' for Active; 'I' for Inactive)
REMARK    1  A    between atoms: C_1  and  C_2
REMARK    2  A    between atoms: N_4  and  C_5
REMARK                            x       y       z     vdW  Elec       q    Type
REMARK                         _______ _______ _______ _____ _____    ______ ____
ROOT
ATOM      1  C   UNL     1       4.065   7.387  16.821  0.00  0.00    +0.000 C 
ATOM      2  C   UNL     1       3.175   7.194  17.995  0.00  0.00    +0.000 A 
ATOM      3  N   UNL     1       2.518   8.251  18.503  0.00  0.00    +0.000 NA
ATOM      4  N   UNL     1       1.885   7.776  19.612  0.00  0.00    +0.000 N 
ATOM      5  C   UNL     1       2.032   6.407  19.714  0.00  0.00    +0.000 A 
ATOM      6  N   UNL     1       1.415   5.545  20.594  0.00  0.00    +0.000 N 
ATOM      7  C   UNL     1       1.629   4.195  20.481  0.00  0.00    +0.000 A 
ATOM      8  O   UNL     1       1.083   3.404  21.246  0.00  0.00    +0.000 OA
ATOM      9  C   UNL     1       2.544   3.723  19.385  0.00  0.00    +0.000 A 
ATOM     10  C   UNL     1       3.131   4.617  18.555  0.00  0.00    +0.000 A 
ATOM     11  C   UNL     1       2.858   6.010  18.694  0.00  0.00    +0.000 A 
ATOM     12  C   UNL     1       4.049   4.192  17.444  0.00  0.00    +0.000 C 
ATOM     13  C   UNL     1       4.495   2.732  17.565  0.00  0.00    +0.000 C 
ATOM     14  C   UNL     1       3.320   1.829  17.915  0.00  0.00    +0.000 C 
ATOM     15  C   UNL     1       2.705   2.236  19.256  0.00  0.00    +0.000 C 
ATOM     16  H   UNL     1       0.745   5.850  21.286  0.00  0.00    +0.000 HD
ENDROOT
BRANCH   4  17
ATOM     17  C   UNL     1       1.151   8.637  20.466  0.00  0.00    +0.000 A 
ATOM     18  C   UNL     1       1.283   8.506  21.855  0.00  0.00    +0.000 A 
ATOM     19  C   UNL     1       0.642   9.416  22.698  0.00  0.00    +0.000 A 
ATOM     20  C   UNL     1      -0.160  10.425  22.164  0.00  0.00    +0.000 A 
ATOM     21  C   UNL     1      -0.334  10.524  20.784  0.00  0.00    +0.000 A 
ATOM     22  C   UNL     1       0.322   9.631  19.935  0.00  0.00    +0.000 A 
ENDBRANCH   4  17
TORSDOF 1
ENDMDL
MODEL 7
REMARK VINA RESULT:      -6.9      9.492     12.389
REMARK  Name = 
REMARK  2 active torsions:
REMARK  status: ('A' for Active; 'I' for Inactive)
REMARK    1  A    between atoms: C_1  and  C_2
REMARK    2  A    between atoms: N_4  and  C_5
REMARK                            x       y       z     vdW  Elec       q    Type
REMARK                         _______ _______ _______ _____ _____    ______ ____
ROOT
ATOM      1  C   UNL     1      10.573  16.029  21.870  0.00  0.00    +0.000 C 
ATOM      2  C   UNL     1       9.933  14.696  22.009  0.00  0.00    +0.000 A 
ATOM      3  N   UNL     1       9.090  14.474  23.033  0.00  0.00    +0.000 NA
ATOM      4  N   UNL     1       8.763  13.154  22.945  0.00  0.00    +0.000 N 
ATOM      5  C   UNL     1       9.284  12.595  21.796  0.00  0.00    +0.000 A 
ATOM      6  N   UNL     1       9.045  11.343  21.272  0.00  0.00    +0.000 N 
ATOM      7  C   UNL     1       9.596  10.998  20.064  0.00  0.00    +0.000 A 
ATOM      8  O   UNL     1       9.391   9.893  19.569  0.00  0.00    +0.000 OA
ATOM      9  C   UNL     1      10.449  12.024  19.369  0.00  0.00    +0.000 A 
ATOM     10  C   UNL     1      10.658  13.235  19.937  0.00  0.00    +0.000 A 
ATOM     11  C   UNL     1      10.043  13.558  21.182  0.00  0.00    +0.000 A 
ATOM     12  C   UNL     1      11.499  14.292  19.277  0.00  0.00    +0.000 C 
ATOM     13  C   UNL     1      12.333  13.749  18.113  0.00  0.00    +0.000 C 
ATOM     14  C   UNL     1      11.501  12.832  17.226  0.00  0.00    +0.000 C 
ATOM     15  C   UNL     1      10.984  11.632  18.022  0.00  0.00    +0.000 C 
ATOM     16  H   UNL     1       8.416  10.677  21.699  0.00  0.00    +0.000 HD
ENDROOT
BRANCH   4  17
ATOM     17  C   UNL     1       7.946  12.532  23.922  0.00  0.00    +0.000 A 
ATOM     18  C   UNL     1       8.332  12.569  25.268  0.00  0.00    +0.000 A 
ATOM     19  C   UNL     1       7.482  12.048  26.245  0.00  0.00    +0.000 A 
ATOM     20  C   UNL     1       6.273  11.454  25.880  0.00  0.00    +0.000 A 
ATOM     21  C   UNL     1       5.912  11.369  24.537  0.00  0.00    +0.000 A 
ATOM     22  C   UNL     1       6.748  11.909  23.557  0.00  0.00    +0.000 A 
ENDBRANCH   4  17
TORSDOF 1
ENDMDL
MODEL 8
REMARK VINA RESULT:      -6.8      1.775      3.209
REMARK  Name = 
REMARK  2 active torsions:
REMARK  status: ('A' for Active; 'I' for Inactive)
REMARK    1  A    between atoms: C_1  and  C_2
REMARK    2  A    between atoms: N_4  and  C_5
REMARK                            x       y       z     vdW  Elec       q    Type
REMARK                         _______ _______ _______ _____ _____    ______ ____
ROOT
ATOM      1  C   UNL     1       3.673   1.574  18.314  0.00  0.00    +0.000 C 
ATOM      2  C   UNL     1       4.064   2.797  17.567  0.00  0.00    +0.000 A 
ATOM      3  N   UNL     1       4.696   2.674  16.386  0.00  0.00    +0.000 NA
ATOM      4  N   UNL     1       5.006   3.947  16.014  0.00  0.00    +0.000 N 
ATOM      5  C   UNL     1       4.449   4.863  16.883  0.00  0.00    +0.000 A 
ATOM      6  N   UNL     1       4.398   6.234  16.762  0.00  0.00    +0.000 N 
ATOM      7  C   UNL     1       3.719   6.973  17.698  0.00  0.00    +0.000 A 
ATOM      8  O   UNL     1       3.651   8.195  17.608  0.00  0.00    +0.000 OA
ATOM      9  C   UNL     1       3.059   6.229  18.827  0.00  0.00    +0.000 A 
ATOM     10  C   UNL     1       3.151   4.881  18.900  0.00  0.00    +0.000 A 
ATOM     11  C   UNL     1       3.845   4.154  17.890  0.00  0.00    +0.000 A 
ATOM     12  C   UNL     1       2.504   4.096  20.008  0.00  0.00    +0.000 C 
ATOM     13  C   UNL     1       2.044   4.978  21.173  0.00  0.00    +0.000 C 
ATOM     14  C   UNL     1       1.337   6.227  20.666  0.00  0.00    +0.000 C 
ATOM     15  C   UNL     1       2.276   7.066  19.797  0.00  0.00    +0.000 C 
ATOM     16  H   UNL     1       4.779   6.733  15.969  0.00  0.00    +0.000 HD
ENDROOT
BRANCH   4  17
ATOM     17  C   UNL     1       5.763   4.208  14.844  0.00  0.00    +0.000 A 
ATOM     18  C   UNL     1       6.898   5.025  14.926  0.00  0.00    +0.000 A 
ATOM     19  C   UNL     1       7.703   5.203  13.799  0.00  0.00    +0.000 A 
ATOM     20  C   UNL     1       7.357   4.606  12.586  0.00  0.00    +0.000 A 
ATOM     21  C   UNL     1       6.199   3.836  12.491  0.00  0.00    +0.000 A 
ATOM     22  C   UNL     1       5.402   3.636  13.620  0.00  0.00    +0.000 A 
ENDBRANCH   4  17
TORSDOF 1
ENDMDL
MODEL 9
REMARK VINA RESULT:      -6.7      1.786      3.052
REMARK  Name = 
REMARK  2 active torsions:
REMARK  status: ('A' for Active; 'I' for Inactive)
REMARK    1  A    between atoms: C_1  and  C_2
REMARK    2  A    between atoms: N_4  and  C_5
REMARK                            x       y       z     vdW  Elec       q    Type
REMARK                         _______ _______ _______ _____ _____    ______ ____
ROOT
ATOM      1  C   UNL     1       3.661   1.583  18.379  0.00  0.00    +0.000 C 
ATOM      2  C   UNL     1       4.084   2.786  17.617  0.00  0.00    +0.000 A 
ATOM      3  N   UNL     1       4.741   2.631  16.454  0.00  0.00    +0.000 NA
ATOM      4  N   UNL     1       5.076   3.893  16.064  0.00  0.00    +0.000 N 
ATOM      5  C   UNL     1       4.510   4.832  16.901  0.00  0.00    +0.000 A 
ATOM      6  N   UNL     1       4.479   6.201  16.751  0.00  0.00    +0.000 N 
ATOM      7  C   UNL     1       3.788   6.967  17.656  0.00  0.00    +0.000 A 
ATOM      8  O   UNL     1       3.736   8.188  17.540  0.00  0.00    +0.000 OA
ATOM      9  C   UNL     1       3.093   6.254  18.784  0.00  0.00    +0.000 A 
ATOM     10  C   UNL     1       3.166   4.907  18.887  0.00  0.00    +0.000 A 
ATOM     11  C   UNL     1       3.874   4.151  17.907  0.00  0.00    +0.000 A 
ATOM     12  C   UNL     1       2.485   4.153  19.994  0.00  0.00    +0.000 C 
ATOM     13  C   UNL     1       2.009   5.063  21.130  0.00  0.00    +0.000 C 
ATOM     14  C   UNL     1       1.328   6.310  20.582  0.00  0.00    +0.000 C 
ATOM     15  C   UNL     1       2.297   7.120  19.718  0.00  0.00    +0.000 C 
ATOM     16  H   UNL     1       4.883   6.679  15.957  0.00  0.00    +0.000 HD
ENDROOT
BRANCH   4  17
ATOM     17  C   UNL     1       5.862   4.121  14.906  0.00  0.00    +0.000 A 
ATOM     18  C   UNL     1       5.495   3.520  13.695  0.00  0.00    +0.000 A 
ATOM     19  C   UNL     1       6.204   3.822  12.531  0.00  0.00    +0.000 A 
ATOM     20  C   UNL     1       7.300   4.685  12.580  0.00  0.00    +0.000 A 
ATOM     21  C   UNL     1       7.698   5.242  13.794  0.00  0.00    +0.000 A 
ATOM     22  C   UNL     1       6.979   4.961  14.957  0.00  0.00    +0.000 A 
ENDBRANCH   4  17
TORSDOF 1
ENDMDL
