MODEL 1
REMARK VINA RESULT:      -8.7      0.000      0.000
REMARK  Name = 
REMARK  12 active torsions:
REMARK  status: ('A' for Active; 'I' for Inactive)
REMARK    1  A    between atoms: C_1  and  C_2
REMARK    2  A    between atoms: C_2  and  C_3
REMARK    3  A    between atoms: C_3  and  C_4
REMARK    4  A    between atoms: C_4  and  N_5
REMARK    5  A    between atoms: C_7  and  C_8
REMARK    6  A    between atoms: C_8  and  C_9
REMARK    7  A    between atoms: C_12  and  C_13
REMARK    8  A    between atoms: C_18  and  C_19
REMARK    9  A    between atoms: C_26  and  C_27
REMARK   10  A    between atoms: C_27  and  O_29
REMARK   11  A    between atoms: C_30  and  C_31
REMARK   12  A    between atoms: C_31  and  C_32
REMARK                            x       y       z     vdW  Elec       q    Type
REMARK                         _______ _______ _______ _____ _____    ______ ____
ROOT
ATOM      1  C   UNL     1       2.521   7.943  18.398  0.00  0.00    +0.000 A 
ATOM      2  C   UNL     1       2.127   7.641  19.704  0.00  0.00    +0.000 A 
ATOM      3  C   UNL     1       1.217   8.460  20.389  0.00  0.00    +0.000 A 
ATOM      4  C   UNL     1       0.710   9.652  19.814  0.00  0.00    +0.000 A 
ATOM      5  C   UNL     1       1.153   9.941  18.525  0.00  0.00    +0.000 A 
ATOM      6  C   UNL     1       1.983   9.083  17.796  0.00  0.00    +0.000 A 
ENDROOT
BRANCH   4   7
ATOM      7  C   UNL     1      -0.239  10.536  20.575  0.00  0.00    +0.000 A 
ATOM      8  C   UNL     1      -0.055  10.681  21.976  0.00  0.00    +0.000 A 
ATOM      9  C   UNL     1      -0.880  11.491  22.758  0.00  0.00    +0.000 A 
ATOM     10  C   UNL     1      -1.913  12.211  22.170  0.00  0.00    +0.000 A 
ATOM     11  C   UNL     1      -2.115  12.113  20.796  0.00  0.00    +0.000 A 
ATOM     12  C   UNL     1      -1.311  11.271  19.993  0.00  0.00    +0.000 A 
BRANCH  12  13
ATOM     13  C   UNL     1      -1.676  11.202  18.580  0.00  0.00    +0.000 A 
ATOM     14  N   UNL     1      -2.302  10.107  18.021  0.00  0.00    +0.000 NA
ATOM     15  N   UNL     1      -2.553  10.413  16.755  0.00  0.00    +0.000 NA
ATOM     16  N   UNL     1      -2.071  11.652  16.609  0.00  0.00    +0.000 N 
ATOM     17  N   UNL     1      -1.451  12.169  17.674  0.00  0.00    +0.000 NA
ATOM     18  H   UNL     1      -2.173  12.174  15.742  0.00  0.00    +0.000 HD
ENDBRANCH  12  13
ENDBRANCH   4   7
BRANCH   1  19
ATOM     19  C   UNL     1       3.586   7.143  17.690  0.00  0.00    +0.000 C 
BRANCH  19  22
ATOM     20  N   UNL     1       2.124   3.925  18.072  0.00  0.00    +0.000 N 
ATOM     21  N   UNL     1       2.034   5.266  17.962  0.00  0.00    +0.000 NA
ATOM     22  C   UNL     1       3.307   5.687  17.895  0.00  0.00    +0.000 A 
ATOM     23  C   UNL     1       4.210   4.588  17.942  0.00  0.00    +0.000 A 
ATOM     24  C   UNL     1       3.405   3.455  17.977  0.00  0.00    +0.000 A 
BRANCH  23  25
ATOM     25  C   UNL     1       5.649   4.525  17.841  0.00  0.00    +0.000 C 
ATOM     26  O   UNL     1       6.425   4.324  18.762  0.00  0.00    +0.000 OA
BRANCH  25  27
ATOM     27  O   UNL     1       6.119   4.542  16.580  0.00  0.00    +0.000 OA
ATOM     28  H   UNL     1       5.695   3.734  16.213  0.00  0.00    +0.000 HD
ENDBRANCH  25  27
ENDBRANCH  23  25
BRANCH  24  29
ATOM     29  C   UNL     1       3.834   2.027  17.790  0.00  0.00    +0.000 C 
ATOM     30  C   UNL     1       4.038   1.244  19.075  0.00  0.00    +0.000 C 
ENDBRANCH  24  29
BRANCH  20  31
ATOM     31  C   UNL     1       0.885   3.182  18.261  0.00  0.00    +0.000 C 
BRANCH  31  32
ATOM     32  C   UNL     1       0.724   2.731  19.712  0.00  0.00    +0.000 C 
BRANCH  32  34
ATOM     33  C   UNL     1       2.206   3.416  21.632  0.00  0.00    +0.000 C 
ATOM     34  C   UNL     1       1.094   3.846  20.688  0.00  0.00    +0.000 C 
ENDBRANCH  32  34
ENDBRANCH  31  32
ENDBRANCH  20  31
ENDBRANCH  19  22
ENDBRANCH   1  19
TORSDOF 10
ENDMDL
MODEL 2
REMARK VINA RESULT:      -8.6      0.538      1.008
REMARK  Name = 
REMARK  12 active torsions:
REMARK  status: ('A' for Active; 'I' for Inactive)
REMARK    1  A    between atoms: C_1  and  C_2
REMARK    2  A    between atoms: C_2  and  C_3
REMARK    3  A    between atoms: C_3  and  C_4
REMARK    4  A    between atoms: C_4  and  N_5
REMARK    5  A    between atoms: C_7  and  C_8
REMARK    6  A    between atoms: C_8  and  C_9
REMARK    7  A    between atoms: C_12  and  C_13
REMARK    8  A    between atoms: C_18  and  C_19
REMARK    9  A    between atoms: C_26  and  C_27
REMARK   10  A    between atoms: C_27  and  O_29
REMARK   11  A    between atoms: C_30  and  C_31
REMARK   12  A    between atoms: C_31  and  C_32
REMARK                            x       y       z     vdW  Elec       q    Type
REMARK                         _______ _______ _______ _____ _____    ______ ____
ROOT
ATOM      1  C   UNL     1       2.688   7.902  18.325  0.00  0.00    +0.000 A 
ATOM      2  C   UNL     1       2.172   9.103  17.833  0.00  0.00    +0.000 A 
ATOM      3  C   UNL     1       1.301   9.885  18.607  0.00  0.00    +0.000 A 
ATOM      4  C   UNL     1       0.865   9.464  19.888  0.00  0.00    +0.000 A 
ATOM      5  C   UNL     1       1.372   8.245  20.332  0.00  0.00    +0.000 A 
ATOM      6  C   UNL     1       2.314   7.504  19.611  0.00  0.00    +0.000 A 
ENDROOT
BRANCH   4   7
ATOM      7  C   UNL     1      -0.094  10.298  20.692  0.00  0.00    +0.000 A 
ATOM      8  C   UNL     1       0.056  10.334  22.103  0.00  0.00    +0.000 A 
ATOM      9  C   UNL     1      -0.780  11.091  22.925  0.00  0.00    +0.000 A 
ATOM     10  C   UNL     1      -1.791  11.866  22.370  0.00  0.00    +0.000 A 
ATOM     11  C   UNL     1      -1.959  11.875  20.988  0.00  0.00    +0.000 A 
ATOM     12  C   UNL     1      -1.143  11.088  20.141  0.00  0.00    +0.000 A 
BRANCH  12  13
ATOM     13  C   UNL     1      -1.474  11.132  18.719  0.00  0.00    +0.000 A 
ATOM     14  N   UNL     1      -2.072  10.080  18.057  0.00  0.00    +0.000 NA
ATOM     15  N   UNL     1      -2.297  10.486  16.814  0.00  0.00    +0.000 NA
ATOM     16  N   UNL     1      -1.827  11.738  16.782  0.00  0.00    +0.000 N 
ATOM     17  N   UNL     1      -1.240  12.173  17.901  0.00  0.00    +0.000 NA
ATOM     18  H   UNL     1      -1.915  12.328  15.959  0.00  0.00    +0.000 HD
ENDBRANCH  12  13
ENDBRANCH   4   7
BRANCH   1  19
ATOM     19  C   UNL     1       3.528   6.993  17.464  0.00  0.00    +0.000 C 
BRANCH  19  22
ATOM     20  N   UNL     1       2.338   3.739  18.261  0.00  0.00    +0.000 N 
ATOM     21  N   UNL     1       2.147   5.000  17.823  0.00  0.00    +0.000 NA
ATOM     22  C   UNL     1       3.351   5.585  17.938  0.00  0.00    +0.000 A 
ATOM     23  C   UNL     1       4.318   4.666  18.436  0.00  0.00    +0.000 A 
ATOM     24  C   UNL     1       3.642   3.457  18.559  0.00  0.00    +0.000 A 
BRANCH  23  25
ATOM     25  C   UNL     1       5.736   4.800  18.668  0.00  0.00    +0.000 C 
ATOM     26  O   UNL     1       6.264   5.143  19.714  0.00  0.00    +0.000 OA
BRANCH  25  27
ATOM     27  O   UNL     1       6.509   4.349  17.662  0.00  0.00    +0.000 OA
ATOM     28  H   UNL     1       6.259   4.971  16.943  0.00  0.00    +0.000 HD
ENDBRANCH  25  27
ENDBRANCH  23  25
BRANCH  24  29
ATOM     29  C   UNL     1       4.241   2.101  18.810  0.00  0.00    +0.000 C 
ATOM     30  C   UNL     1       4.610   1.819  20.255  0.00  0.00    +0.000 C 
ENDBRANCH  24  29
BRANCH  20  31
ATOM     31  C   UNL     1       1.169   2.874  18.344  0.00  0.00    +0.000 C 
BRANCH  31  32
ATOM     32  C   UNL     1       0.680   2.739  19.786  0.00  0.00    +0.000 C 
BRANCH  32  34
ATOM     33  C   UNL     1       1.981   3.506  21.804  0.00  0.00    +0.000 C 
ATOM     34  C   UNL     1       1.108   3.935  20.635  0.00  0.00    +0.000 C 
ENDBRANCH  32  34
ENDBRANCH  31  32
ENDBRANCH  20  31
ENDBRANCH  19  22
ENDBRANCH   1  19
TORSDOF 10
ENDMDL
MODEL 3
REMARK VINA RESULT:      -8.5      2.987      8.723
REMARK  Name = 
REMARK  12 active torsions:
REMARK  status: ('A' for Active; 'I' for Inactive)
REMARK    1  A    between atoms: C_1  and  C_2
REMARK    2  A    between atoms: C_2  and  C_3
REMARK    3  A    between atoms: C_3  and  C_4
REMARK    4  A    between atoms: C_4  and  N_5
REMARK    5  A    between atoms: C_7  and  C_8
REMARK    6  A    between atoms: C_8  and  C_9
REMARK    7  A    between atoms: C_12  and  C_13
REMARK    8  A    between atoms: C_18  and  C_19
REMARK    9  A    between atoms: C_26  and  C_27
REMARK   10  A    between atoms: C_27  and  O_29
REMARK   11  A    between atoms: C_30  and  C_31
REMARK   12  A    between atoms: C_31  and  C_32
REMARK                            x       y       z     vdW  Elec       q    Type
REMARK                         _______ _______ _______ _____ _____    ______ ____
ROOT
ATOM      1  C   UNL     1       1.395   8.543  19.920  0.00  0.00    +0.000 A 
ATOM      2  C   UNL     1       1.718   8.914  18.612  0.00  0.00    +0.000 A 
ATOM      3  C   UNL     1       2.492   8.074  17.796  0.00  0.00    +0.000 A 
ATOM      4  C   UNL     1       3.023   6.852  18.279  0.00  0.00    +0.000 A 
ATOM      5  C   UNL     1       2.710   6.532  19.598  0.00  0.00    +0.000 A 
ATOM      6  C   UNL     1       1.862   7.314  20.389  0.00  0.00    +0.000 A 
ENDROOT
BRANCH   4   7
ATOM      7  C   UNL     1       3.877   5.980  17.401  0.00  0.00    +0.000 A 
ATOM      8  C   UNL     1       4.896   6.590  16.623  0.00  0.00    +0.000 A 
ATOM      9  C   UNL     1       5.743   5.856  15.791  0.00  0.00    +0.000 A 
ATOM     10  C   UNL     1       5.624   4.474  15.718  0.00  0.00    +0.000 A 
ATOM     11  C   UNL     1       4.652   3.833  16.481  0.00  0.00    +0.000 A 
ATOM     12  C   UNL     1       3.762   4.564  17.303  0.00  0.00    +0.000 A 
BRANCH  12  13
ATOM     13  C   UNL     1       2.742   3.776  17.992  0.00  0.00    +0.000 A 
ATOM     14  N   UNL     1       1.432   3.712  17.564  0.00  0.00    +0.000 NA
ATOM     15  N   UNL     1       0.808   2.857  18.365  0.00  0.00    +0.000 NA
ATOM     16  N   UNL     1       1.751   2.458  19.226  0.00  0.00    +0.000 N 
ATOM     17  N   UNL     1       2.946   3.041  19.098  0.00  0.00    +0.000 NA
ATOM     18  H   UNL     1       1.573   1.749  19.932  0.00  0.00    +0.000 HD
ENDBRANCH  12  13
ENDBRANCH   4   7
BRANCH   1  19
ATOM     19  C   UNL     1       0.668   9.483  20.848  0.00  0.00    +0.000 C 
BRANCH  19  22
ATOM     20  N   UNL     1      -1.563  11.514  18.969  0.00  0.00    +0.000 N 
ATOM     21  N   UNL     1      -1.244  10.362  19.592  0.00  0.00    +0.000 NA
ATOM     22  C   UNL     1       0.011  10.551  20.033  0.00  0.00    +0.000 A 
ATOM     23  C   UNL     1       0.477  11.854  19.697  0.00  0.00    +0.000 A 
ATOM     24  C   UNL     1      -0.599  12.478  19.077  0.00  0.00    +0.000 A 
BRANCH  23  25
ATOM     25  C   UNL     1       1.712  12.536  20.001  0.00  0.00    +0.000 C 
ATOM     26  O   UNL     1       2.116  12.826  21.117  0.00  0.00    +0.000 OA
BRANCH  25  27
ATOM     27  O   UNL     1       2.527  12.710  18.944  0.00  0.00    +0.000 OA
ATOM     28  H   UNL     1       2.066  13.441  18.474  0.00  0.00    +0.000 HD
ENDBRANCH  25  27
ENDBRANCH  23  25
BRANCH  24  29
ATOM     29  C   UNL     1      -0.735  13.937  18.742  0.00  0.00    +0.000 C 
ATOM     30  C   UNL     1      -1.010  14.846  19.927  0.00  0.00    +0.000 C 
ENDBRANCH  24  29
BRANCH  20  31
ATOM     31  C   UNL     1      -2.853  11.578  18.295  0.00  0.00    +0.000 C 
BRANCH  31  32
ATOM     32  C   UNL     1      -2.980  10.485  17.234  0.00  0.00    +0.000 C 
BRANCH  32  34
ATOM     33  C   UNL     1      -3.091  10.050  14.754  0.00  0.00    +0.000 C 
ATOM     34  C   UNL     1      -2.645  11.015  15.842  0.00  0.00    +0.000 C 
ENDBRANCH  32  34
ENDBRANCH  31  32
ENDBRANCH  20  31
ENDBRANCH  19  22
ENDBRANCH   1  19
TORSDOF 10
ENDMDL
MODEL 4
REMARK VINA RESULT:      -8.4      3.044      8.695
REMARK  Name = 
REMARK  12 active torsions:
REMARK  status: ('A' for Active; 'I' for Inactive)
REMARK    1  A    between atoms: C_1  and  C_2
REMARK    2  A    between atoms: C_2  and  C_3
REMARK    3  A    between atoms: C_3  and  C_4
REMARK    4  A    between atoms: C_4  and  N_5
REMARK    5  A    between atoms: C_7  and  C_8
REMARK    6  A    between atoms: C_8  and  C_9
REMARK    7  A    between atoms: C_12  and  C_13
REMARK    8  A    between atoms: C_18  and  C_19
REMARK    9  A    between atoms: C_26  and  C_27
REMARK   10  A    between atoms: C_27  and  O_29
REMARK   11  A    between atoms: C_30  and  C_31
REMARK   12  A    between atoms: C_31  and  C_32
REMARK                            x       y       z     vdW  Elec       q    Type
REMARK                         _______ _______ _______ _____ _____    ______ ____
ROOT
ATOM      1  C   UNL     1       1.466   8.529  19.921  0.00  0.00    +0.000 A 
ATOM      2  C   UNL     1       1.922   7.299  20.401  0.00  0.00    +0.000 A 
ATOM      3  C   UNL     1       2.716   6.463  19.602  0.00  0.00    +0.000 A 
ATOM      4  C   UNL     1       3.038   6.800  18.264  0.00  0.00    +0.000 A 
ATOM      5  C   UNL     1       2.537   8.017  17.807  0.00  0.00    +0.000 A 
ATOM      6  C   UNL     1       1.826   8.902  18.624  0.00  0.00    +0.000 A 
ENDROOT
BRANCH   4   7
ATOM      7  C   UNL     1       3.863   5.878  17.410  0.00  0.00    +0.000 A 
ATOM      8  C   UNL     1       4.902   6.434  16.617  0.00  0.00    +0.000 A 
ATOM      9  C   UNL     1       5.724   5.651  15.806  0.00  0.00    +0.000 A 
ATOM     10  C   UNL     1       5.561   4.272  15.769  0.00  0.00    +0.000 A 
ATOM     11  C   UNL     1       4.568   3.683  16.548  0.00  0.00    +0.000 A 
ATOM     12  C   UNL     1       3.702   4.464  17.349  0.00  0.00    +0.000 A 
BRANCH  12  13
ATOM     13  C   UNL     1       2.657   3.729  18.058  0.00  0.00    +0.000 A 
ATOM     14  N   UNL     1       2.903   2.989  19.196  0.00  0.00    +0.000 NA
ATOM     15  N   UNL     1       1.732   2.526  19.613  0.00  0.00    +0.000 NA
ATOM     16  N   UNL     1       0.851   2.994  18.722  0.00  0.00    +0.000 N 
ATOM     17  N   UNL     1       1.363   3.680  17.697  0.00  0.00    +0.000 NA
ATOM     18  H   UNL     1      -0.149   2.842  18.819  0.00  0.00    +0.000 HD
ENDBRANCH  12  13
ENDBRANCH   4   7
BRANCH   1  19
ATOM     19  C   UNL     1       0.516   9.385  20.719  0.00  0.00    +0.000 C 
BRANCH  19  22
ATOM     20  N   UNL     1      -1.402  11.451  18.554  0.00  0.00    +0.000 N 
ATOM     21  N   UNL     1      -1.176  10.284  19.191  0.00  0.00    +0.000 NA
ATOM     22  C   UNL     1      -0.012  10.470  19.835  0.00  0.00    +0.000 A 
ATOM     23  C   UNL     1       0.488  11.785  19.615  0.00  0.00    +0.000 A 
ATOM     24  C   UNL     1      -0.480  12.418  18.844  0.00  0.00    +0.000 A 
BRANCH  23  25
ATOM     25  C   UNL     1       1.648  12.468  20.135  0.00  0.00    +0.000 C 
ATOM     26  O   UNL     1       1.934  12.602  21.315  0.00  0.00    +0.000 OA
BRANCH  25  27
ATOM     27  O   UNL     1       2.541  12.839  19.199  0.00  0.00    +0.000 OA
ATOM     28  H   UNL     1       1.972  13.370  18.599  0.00  0.00    +0.000 HD
ENDBRANCH  25  27
ENDBRANCH  23  25
BRANCH  24  29
ATOM     29  C   UNL     1      -0.577  13.885  18.529  0.00  0.00    +0.000 C 
ATOM     30  C   UNL     1      -0.916  14.775  19.712  0.00  0.00    +0.000 C 
ENDBRANCH  24  29
BRANCH  20  31
ATOM     31  C   UNL     1      -2.565  11.523  17.680  0.00  0.00    +0.000 C 
BRANCH  31  32
ATOM     32  C   UNL     1      -2.481  10.491  16.556  0.00  0.00    +0.000 C 
BRANCH  32  34
ATOM     33  C   UNL     1      -3.081  10.055  14.147  0.00  0.00    +0.000 C 
ATOM     34  C   UNL     1      -3.421  10.840  15.405  0.00  0.00    +0.000 C 
ENDBRANCH  32  34
ENDBRANCH  31  32
ENDBRANCH  20  31
ENDBRANCH  19  22
ENDBRANCH   1  19
TORSDOF 10
ENDMDL
MODEL 5
REMARK VINA RESULT:      -8.4      3.272      8.465
REMARK  Name = 
REMARK  12 active torsions:
REMARK  status: ('A' for Active; 'I' for Inactive)
REMARK    1  A    between atoms: C_1  and  C_2
REMARK    2  A    between atoms: C_2  and  C_3
REMARK    3  A    between atoms: C_3  and  C_4
REMARK    4  A    between atoms: C_4  and  N_5
REMARK    5  A    between atoms: C_7  and  C_8
REMARK    6  A    between atoms: C_8  and  C_9
REMARK    7  A    between atoms: C_12  and  C_13
REMARK    8  A    between atoms: C_18  and  C_19
REMARK    9  A    between atoms: C_26  and  C_27
REMARK   10  A    between atoms: C_27  and  O_29
REMARK   11  A    between atoms: C_30  and  C_31
REMARK   12  A    between atoms: C_31  and  C_32
REMARK                            x       y       z     vdW  Elec       q    Type
REMARK                         _______ _______ _______ _____ _____    ______ ____
ROOT
ATOM      1  C   UNL     1       2.148   8.830  18.471  0.00  0.00    +0.000 A 
ATOM      2  C   UNL     1       1.821   8.541  19.798  0.00  0.00    +0.000 A 
ATOM      3  C   UNL     1       1.925   7.233  20.297  0.00  0.00    +0.000 A 
ATOM      4  C   UNL     1       2.306   6.149  19.468  0.00  0.00    +0.000 A 
ATOM      5  C   UNL     1       2.590   6.469  18.142  0.00  0.00    +0.000 A 
ATOM      6  C   UNL     1       2.582   7.781  17.657  0.00  0.00    +0.000 A 
ENDROOT
BRANCH   4   7
ATOM      7  C   UNL     1       2.381   4.749  20.010  0.00  0.00    +0.000 A 
ATOM      8  C   UNL     1       1.275   4.246  20.747  0.00  0.00    +0.000 A 
ATOM      9  C   UNL     1       1.254   2.955  21.275  0.00  0.00    +0.000 A 
ATOM     10  C   UNL     1       2.329   2.099  21.071  0.00  0.00    +0.000 A 
ATOM     11  C   UNL     1       3.424   2.545  20.337  0.00  0.00    +0.000 A 
ATOM     12  C   UNL     1       3.479   3.861  19.823  0.00  0.00    +0.000 A 
BRANCH  12  13
ATOM     13  C   UNL     1       4.716   4.225  19.136  0.00  0.00    +0.000 A 
ATOM     14  N   UNL     1       5.738   4.917  19.752  0.00  0.00    +0.000 NA
ATOM     15  N   UNL     1       6.727   5.007  18.872  0.00  0.00    +0.000 NA
ATOM     16  N   UNL     1       6.263   4.381  17.785  0.00  0.00    +0.000 N 
ATOM     17  N   UNL     1       5.003   3.941  17.854  0.00  0.00    +0.000 NA
ATOM     18  H   UNL     1       6.834   4.243  16.955  0.00  0.00    +0.000 HD
ENDBRANCH  12  13
ENDBRANCH   4   7
BRANCH   1  19
ATOM     19  C   UNL     1       1.930  10.203  17.886  0.00  0.00    +0.000 C 
BRANCH  19  22
ATOM     20  N   UNL     1      -1.479  10.845  18.661  0.00  0.00    +0.000 N 
ATOM     21  N   UNL     1      -0.520  10.200  17.968  0.00  0.00    +0.000 NA
ATOM     22  C   UNL     1       0.632  10.741  18.399  0.00  0.00    +0.000 A 
ATOM     23  C   UNL     1       0.389  11.728  19.396  0.00  0.00    +0.000 A 
ATOM     24  C   UNL     1      -0.987  11.712  19.597  0.00  0.00    +0.000 A 
BRANCH  23  25
ATOM     25  C   UNL     1       1.290  12.527  20.192  0.00  0.00    +0.000 C 
ATOM     26  O   UNL     1       1.808  12.190  21.245  0.00  0.00    +0.000 OA
BRANCH  25  27
ATOM     27  O   UNL     1       1.683  13.673  19.606  0.00  0.00    +0.000 OA
ATOM     28  H   UNL     1       0.938  13.828  18.984  0.00  0.00    +0.000 HD
ENDBRANCH  25  27
ENDBRANCH  23  25
BRANCH  24  29
ATOM     29  C   UNL     1      -1.753  12.379  20.706  0.00  0.00    +0.000 C 
ATOM     30  C   UNL     1      -1.602  11.731  22.071  0.00  0.00    +0.000 C 
ENDBRANCH  24  29
BRANCH  20  31
ATOM     31  C   UNL     1      -2.865  10.535  18.337  0.00  0.00    +0.000 C 
BRANCH  31  32
ATOM     32  C   UNL     1      -2.967   9.743  17.034  0.00  0.00    +0.000 C 
BRANCH  32  34
ATOM     33  C   UNL     1      -3.027  10.144  14.546  0.00  0.00    +0.000 C 
ATOM     34  C   UNL     1      -3.539  10.596  15.904  0.00  0.00    +0.000 C 
ENDBRANCH  32  34
ENDBRANCH  31  32
ENDBRANCH  20  31
ENDBRANCH  19  22
ENDBRANCH   1  19
TORSDOF 10
ENDMDL
MODEL 6
REMARK VINA RESULT:      -8.3      3.213      8.747
REMARK  Name = 
REMARK  12 active torsions:
REMARK  status: ('A' for Active; 'I' for Inactive)
REMARK    1  A    between atoms: C_1  and  C_2
REMARK    2  A    between atoms: C_2  and  C_3
REMARK    3  A    between atoms: C_3  and  C_4
REMARK    4  A    between atoms: C_4  and  N_5
REMARK    5  A    between atoms: C_7  and  C_8
REMARK    6  A    between atoms: C_8  and  C_9
REMARK    7  A    between atoms: C_12  and  C_13
REMARK    8  A    between atoms: C_18  and  C_19
REMARK    9  A    between atoms: C_26  and  C_27
REMARK   10  A    between atoms: C_27  and  O_29
REMARK   11  A    between atoms: C_30  and  C_31
REMARK   12  A    between atoms: C_31  and  C_32
REMARK                            x       y       z     vdW  Elec       q    Type
REMARK                         _______ _______ _______ _____ _____    ______ ____
ROOT
ATOM      1  C   UNL     1       1.292   8.465  20.051  0.00  0.00    +0.000 A 
ATOM      2  C   UNL     1       1.824   7.256  20.505  0.00  0.00    +0.000 A 
ATOM      3  C   UNL     1       2.665   6.487  19.687  0.00  0.00    +0.000 A 
ATOM      4  C   UNL     1       2.961   6.871  18.355  0.00  0.00    +0.000 A 
ATOM      5  C   UNL     1       2.384   8.064  17.925  0.00  0.00    +0.000 A 
ATOM      6  C   UNL     1       1.623   8.886  18.761  0.00  0.00    +0.000 A 
ENDROOT
BRANCH   4   7
ATOM      7  C   UNL     1       3.838   6.019  17.481  0.00  0.00    +0.000 A 
ATOM      8  C   UNL     1       4.862   6.650  16.726  0.00  0.00    +0.000 A 
ATOM      9  C   UNL     1       5.730   5.935  15.899  0.00  0.00    +0.000 A 
ATOM     10  C   UNL     1       5.628   4.553  15.807  0.00  0.00    +0.000 A 
ATOM     11  C   UNL     1       4.651   3.892  16.547  0.00  0.00    +0.000 A 
ATOM     12  C   UNL     1       3.740   4.603  17.364  0.00  0.00    +0.000 A 
BRANCH  12  13
ATOM     13  C   UNL     1       2.719   3.796  18.027  0.00  0.00    +0.000 A 
ATOM     14  N   UNL     1       1.402   3.771  17.616  0.00  0.00    +0.000 NA
ATOM     15  N   UNL     1       0.777   2.886  18.382  0.00  0.00    +0.000 NA
ATOM     16  N   UNL     1       1.726   2.430  19.207  0.00  0.00    +0.000 N 
ATOM     17  N   UNL     1       2.928   3.002  19.091  0.00  0.00    +0.000 NA
ATOM     18  H   UNL     1       1.548   1.689  19.879  0.00  0.00    +0.000 HD
ENDBRANCH  12  13
ENDBRANCH   4   7
BRANCH   1  19
ATOM     19  C   UNL     1       0.293   9.244  20.870  0.00  0.00    +0.000 C 
BRANCH  19  22
ATOM     20  N   UNL     1      -1.294  11.456  18.584  0.00  0.00    +0.000 N 
ATOM     21  N   UNL     1      -1.012  10.218  19.039  0.00  0.00    +0.000 NA
ATOM     22  C   UNL     1      -0.173  10.418  20.069  0.00  0.00    +0.000 A 
ATOM     23  C   UNL     1       0.057  11.807  20.276  0.00  0.00    +0.000 A 
ATOM     24  C   UNL     1      -0.749  12.453  19.344  0.00  0.00    +0.000 A 
BRANCH  23  25
ATOM     25  C   UNL     1       0.818  12.513  21.279  0.00  0.00    +0.000 C 
ATOM     26  O   UNL     1       1.963  12.918  21.158  0.00  0.00    +0.000 OA
BRANCH  25  27
ATOM     27  O   UNL     1       0.110  12.867  22.368  0.00  0.00    +0.000 OA
ATOM     28  H   UNL     1      -0.584  12.171  22.372  0.00  0.00    +0.000 HD
ENDBRANCH  25  27
ENDBRANCH  23  25
BRANCH  24  29
ATOM     29  C   UNL     1      -1.076  13.919  19.285  0.00  0.00    +0.000 C 
ATOM     30  C   UNL     1      -0.031  14.784  18.601  0.00  0.00    +0.000 C 
ENDBRANCH  24  29
BRANCH  20  31
ATOM     31  C   UNL     1      -2.121  11.560  17.390  0.00  0.00    +0.000 C 
BRANCH  31  32
ATOM     32  C   UNL     1      -2.927  10.282  17.160  0.00  0.00    +0.000 C 
BRANCH  32  34
ATOM     33  C   UNL     1      -3.571  10.198  14.724  0.00  0.00    +0.000 C 
ATOM     34  C   UNL     1      -2.626   9.670  15.793  0.00  0.00    +0.000 C 
ENDBRANCH  32  34
ENDBRANCH  31  32
ENDBRANCH  20  31
ENDBRANCH  19  22
ENDBRANCH   1  19
TORSDOF 10
ENDMDL
MODEL 7
REMARK VINA RESULT:      -8.2      3.284      8.895
REMARK  Name = 
REMARK  12 active torsions:
REMARK  status: ('A' for Active; 'I' for Inactive)
REMARK    1  A    between atoms: C_1  and  C_2
REMARK    2  A    between atoms: C_2  and  C_3
REMARK    3  A    between atoms: C_3  and  C_4
REMARK    4  A    between atoms: C_4  and  N_5
REMARK    5  A    between atoms: C_7  and  C_8
REMARK    6  A    between atoms: C_8  and  C_9
REMARK    7  A    between atoms: C_12  and  C_13
REMARK    8  A    between atoms: C_18  and  C_19
REMARK    9  A    between atoms: C_26  and  C_27
REMARK   10  A    between atoms: C_27  and  O_29
REMARK   11  A    between atoms: C_30  and  C_31
REMARK   12  A    between atoms: C_31  and  C_32
REMARK                            x       y       z     vdW  Elec       q    Type
REMARK                         _______ _______ _______ _____ _____    ______ ____
ROOT
ATOM      1  C   UNL     1       1.434   8.285  20.162  0.00  0.00    +0.000 A 
ATOM      2  C   UNL     1       1.817   8.784  18.914  0.00  0.00    +0.000 A 
ATOM      3  C   UNL     1       2.580   8.005  18.031  0.00  0.00    +0.000 A 
ATOM      4  C   UNL     1       3.042   6.713  18.387  0.00  0.00    +0.000 A 
ATOM      5  C   UNL     1       2.671   6.263  19.652  0.00  0.00    +0.000 A 
ATOM      6  C   UNL     1       1.832   6.990  20.502  0.00  0.00    +0.000 A 
ENDROOT
BRANCH   4   7
ATOM      7  C   UNL     1       3.886   5.905  17.441  0.00  0.00    +0.000 A 
ATOM      8  C   UNL     1       4.873   6.575  16.670  0.00  0.00    +0.000 A 
ATOM      9  C   UNL     1       5.708   5.902  15.778  0.00  0.00    +0.000 A 
ATOM     10  C   UNL     1       5.611   4.524  15.633  0.00  0.00    +0.000 A 
ATOM     11  C   UNL     1       4.670   3.826  16.385  0.00  0.00    +0.000 A 
ATOM     12  C   UNL     1       3.791   4.495  17.269  0.00  0.00    +0.000 A 
BRANCH  12  13
ATOM     13  C   UNL     1       2.803   3.653  17.940  0.00  0.00    +0.000 A 
ATOM     14  N   UNL     1       1.475   3.616  17.567  0.00  0.00    +0.000 NA
ATOM     15  N   UNL     1       0.889   2.700  18.328  0.00  0.00    +0.000 NA
ATOM     16  N   UNL     1       1.869   2.240  19.113  0.00  0.00    +0.000 N 
ATOM     17  N   UNL     1       3.057   2.837  18.977  0.00  0.00    +0.000 NA
ATOM     18  H   UNL     1       1.724   1.479  19.770  0.00  0.00    +0.000 HD
ENDBRANCH  12  13
ENDBRANCH   4   7
BRANCH   1  19
ATOM     19  C   UNL     1       0.718   9.149  21.170  0.00  0.00    +0.000 C 
BRANCH  19  22
ATOM     20  N   UNL     1      -1.445  10.839  18.912  0.00  0.00    +0.000 N 
ATOM     21  N   UNL     1      -0.694   9.778  19.268  0.00  0.00    +0.000 NA
ATOM     22  C   UNL     1      -0.136  10.134  20.437  0.00  0.00    +0.000 A 
ATOM     23  C   UNL     1      -0.564  11.434  20.830  0.00  0.00    +0.000 A 
ATOM     24  C   UNL     1      -1.475  11.828  19.856  0.00  0.00    +0.000 A 
BRANCH  23  25
ATOM     25  C   UNL     1      -0.297  12.212  22.016  0.00  0.00    +0.000 C 
ATOM     26  O   UNL     1      -0.691  11.960  23.144  0.00  0.00    +0.000 OA
BRANCH  25  27
ATOM     27  O   UNL     1       0.595  13.205  21.840  0.00  0.00    +0.000 OA
ATOM     28  H   UNL     1       1.153  12.829  21.123  0.00  0.00    +0.000 HD
ENDBRANCH  25  27
ENDBRANCH  23  25
BRANCH  24  29
ATOM     29  C   UNL     1      -2.408  13.006  19.905  0.00  0.00    +0.000 C 
ATOM     30  C   UNL     1      -3.678  12.786  20.708  0.00  0.00    +0.000 C 
ENDBRANCH  24  29
BRANCH  20  31
ATOM     31  C   UNL     1      -2.111  10.786  17.617  0.00  0.00    +0.000 C 
BRANCH  31  32
ATOM     32  C   UNL     1      -3.489  10.135  17.728  0.00  0.00    +0.000 C 
BRANCH  32  34
ATOM     33  C   UNL     1      -5.822  10.900  18.301  0.00  0.00    +0.000 C 
ATOM     34  C   UNL     1      -4.604  11.132  17.419  0.00  0.00    +0.000 C 
ENDBRANCH  32  34
ENDBRANCH  31  32
ENDBRANCH  20  31
ENDBRANCH  19  22
ENDBRANCH   1  19
TORSDOF 10
ENDMDL
MODEL 8
REMARK VINA RESULT:      -8.2      3.292      8.648
REMARK  Name = 
REMARK  12 active torsions:
REMARK  status: ('A' for Active; 'I' for Inactive)
REMARK    1  A    between atoms: C_1  and  C_2
REMARK    2  A    between atoms: C_2  and  C_3
REMARK    3  A    between atoms: C_3  and  C_4
REMARK    4  A    between atoms: C_4  and  N_5
REMARK    5  A    between atoms: C_7  and  C_8
REMARK    6  A    between atoms: C_8  and  C_9
REMARK    7  A    between atoms: C_12  and  C_13
REMARK    8  A    between atoms: C_18  and  C_19
REMARK    9  A    between atoms: C_26  and  C_27
REMARK   10  A    between atoms: C_27  and  O_29
REMARK   11  A    between atoms: C_30  and  C_31
REMARK   12  A    between atoms: C_31  and  C_32
REMARK                            x       y       z     vdW  Elec       q    Type
REMARK                         _______ _______ _______ _____ _____    ______ ____
ROOT
ATOM      1  C   UNL     1       1.994   8.560  18.552  0.00  0.00    +0.000 A 
ATOM      2  C   UNL     1       2.378   7.495  17.733  0.00  0.00    +0.000 A 
ATOM      3  C   UNL     1       2.517   6.200  18.255  0.00  0.00    +0.000 A 
ATOM      4  C   UNL     1       2.333   5.930  19.634  0.00  0.00    +0.000 A 
ATOM      5  C   UNL     1       1.986   7.022  20.426  0.00  0.00    +0.000 A 
ATOM      6  C   UNL     1       1.751   8.297  19.902  0.00  0.00    +0.000 A 
ENDROOT
BRANCH   4   7
ATOM      7  C   UNL     1       2.518   4.542  20.182  0.00  0.00    +0.000 A 
ATOM      8  C   UNL     1       1.499   3.997  21.008  0.00  0.00    +0.000 A 
ATOM      9  C   UNL     1       1.582   2.714  21.549  0.00  0.00    +0.000 A 
ATOM     10  C   UNL     1       2.676   1.906  21.268  0.00  0.00    +0.000 A 
ATOM     11  C   UNL     1       3.688   2.393  20.444  0.00  0.00    +0.000 A 
ATOM     12  C   UNL     1       3.638   3.704  19.916  0.00  0.00    +0.000 A 
BRANCH  12  13
ATOM     13  C   UNL     1       4.799   4.116  19.129  0.00  0.00    +0.000 A 
ATOM     14  N   UNL     1       5.845   4.840  19.663  0.00  0.00    +0.000 NA
ATOM     15  N   UNL     1       6.751   4.970  18.702  0.00  0.00    +0.000 NA
ATOM     16  N   UNL     1       6.217   4.338  17.651  0.00  0.00    +0.000 N 
ATOM     17  N   UNL     1       4.984   3.852  17.824  0.00  0.00    +0.000 NA
ATOM     18  H   UNL     1       6.718   4.226  16.775  0.00  0.00    +0.000 HD
ENDBRANCH  12  13
ENDBRANCH   4   7
BRANCH   1  19
ATOM     19  C   UNL     1       1.956   9.977  18.036  0.00  0.00    +0.000 C 
BRANCH  19  22
ATOM     20  N   UNL     1      -1.479  10.808  18.415  0.00  0.00    +0.000 N 
ATOM     21  N   UNL     1      -0.482  10.115  17.830  0.00  0.00    +0.000 NA
ATOM     22  C   UNL     1       0.639  10.585  18.402  0.00  0.00    +0.000 A 
ATOM     23  C   UNL     1       0.336  11.575  19.379  0.00  0.00    +0.000 A 
ATOM     24  C   UNL     1      -1.053  11.636  19.417  0.00  0.00    +0.000 A 
BRANCH  23  25
ATOM     25  C   UNL     1       1.180  12.313  20.288  0.00  0.00    +0.000 C 
ATOM     26  O   UNL     1       1.524  11.950  21.402  0.00  0.00    +0.000 OA
BRANCH  25  27
ATOM     27  O   UNL     1       1.735  13.418  19.759  0.00  0.00    +0.000 OA
ATOM     28  H   UNL     1       2.561  13.046  19.377  0.00  0.00    +0.000 HD
ENDBRANCH  25  27
ENDBRANCH  23  25
BRANCH  24  29
ATOM     29  C   UNL     1      -1.906  12.336  20.439  0.00  0.00    +0.000 C 
ATOM     30  C   UNL     1      -1.897  13.852  20.353  0.00  0.00    +0.000 C 
ENDBRANCH  24  29
BRANCH  20  31
ATOM     31  C   UNL     1      -2.832  10.582  17.926  0.00  0.00    +0.000 C 
BRANCH  31  32
ATOM     32  C   UNL     1      -2.962  10.967  16.453  0.00  0.00    +0.000 C 
BRANCH  32  34
ATOM     33  C   UNL     1      -3.308  10.121  14.104  0.00  0.00    +0.000 C 
ATOM     34  C   UNL     1      -3.165   9.739  15.569  0.00  0.00    +0.000 C 
ENDBRANCH  32  34
ENDBRANCH  31  32
ENDBRANCH  20  31
ENDBRANCH  19  22
ENDBRANCH   1  19
TORSDOF 10
ENDMDL
MODEL 9
REMARK VINA RESULT:      -8.2      3.202      8.779
REMARK  Name = 
REMARK  12 active torsions:
REMARK  status: ('A' for Active; 'I' for Inactive)
REMARK    1  A    between atoms: C_1  and  C_2
REMARK    2  A    between atoms: C_2  and  C_3
REMARK    3  A    between atoms: C_3  and  C_4
REMARK    4  A    between atoms: C_4  and  N_5
REMARK    5  A    between atoms: C_7  and  C_8
REMARK    6  A    between atoms: C_8  and  C_9
REMARK    7  A    between atoms: C_12  and  C_13
REMARK    8  A    between atoms: C_18  and  C_19
REMARK    9  A    between atoms: C_26  and  C_27
REMARK   10  A    between atoms: C_27  and  O_29
REMARK   11  A    between atoms: C_30  and  C_31
REMARK   12  A    between atoms: C_31  and  C_32
REMARK                            x       y       z     vdW  Elec       q    Type
REMARK                         _______ _______ _______ _____ _____    ______ ____
ROOT
ATOM      1  C   UNL     1       1.473   8.153  20.279  0.00  0.00    +0.000 A 
ATOM      2  C   UNL     1       1.955   6.882  20.601  0.00  0.00    +0.000 A 
ATOM      3  C   UNL     1       2.763   6.168  19.702  0.00  0.00    +0.000 A 
ATOM      4  C   UNL     1       3.072   6.677  18.416  0.00  0.00    +0.000 A 
ATOM      5  C   UNL     1       2.545   7.931  18.115  0.00  0.00    +0.000 A 
ATOM      6  C   UNL     1       1.819   8.692  19.038  0.00  0.00    +0.000 A 
ENDROOT
BRANCH   4   7
ATOM      7  C   UNL     1       3.912   5.885  17.453  0.00  0.00    +0.000 A 
ATOM      8  C   UNL     1       4.923   6.561  16.719  0.00  0.00    +0.000 A 
ATOM      9  C   UNL     1       5.756   5.903  15.814  0.00  0.00    +0.000 A 
ATOM     10  C   UNL     1       5.632   4.533  15.618  0.00  0.00    +0.000 A 
ATOM     11  C   UNL     1       4.667   3.828  16.333  0.00  0.00    +0.000 A 
ATOM     12  C   UNL     1       3.791   4.484  17.229  0.00  0.00    +0.000 A 
BRANCH  12  13
ATOM     13  C   UNL     1       2.777   3.640  17.857  0.00  0.00    +0.000 A 
ATOM     14  N   UNL     1       3.068   2.749  18.869  0.00  0.00    +0.000 NA
ATOM     15  N   UNL     1       1.915   2.214  19.253  0.00  0.00    +0.000 NA
ATOM     16  N   UNL     1       1.001   2.791  18.466  0.00  0.00    +0.000 N 
ATOM     17  N   UNL     1       1.472   3.625  17.534  0.00  0.00    +0.000 NA
ATOM     18  H   UNL     1       0.006   2.613  18.572  0.00  0.00    +0.000 HD
ENDBRANCH  12  13
ENDBRANCH   4   7
BRANCH   1  19
ATOM     19  C   UNL     1       0.509   8.882  21.180  0.00  0.00    +0.000 C 
BRANCH  19  22
ATOM     20  N   UNL     1      -1.379  10.715  18.790  0.00  0.00    +0.000 N 
ATOM     21  N   UNL     1      -0.776   9.587  19.216  0.00  0.00    +0.000 NA
ATOM     22  C   UNL     1      -0.198   9.929  20.379  0.00  0.00    +0.000 A 
ATOM     23  C   UNL     1      -0.462  11.292  20.698  0.00  0.00    +0.000 A 
ATOM     24  C   UNL     1      -1.297  11.748  19.684  0.00  0.00    +0.000 A 
BRANCH  23  25
ATOM     25  C   UNL     1      -0.118  12.090  21.850  0.00  0.00    +0.000 C 
ATOM     26  O   UNL     1      -0.562  11.950  22.979  0.00  0.00    +0.000 OA
BRANCH  25  27
ATOM     27  O   UNL     1       0.897  12.950  21.648  0.00  0.00    +0.000 OA
ATOM     28  H   UNL     1       0.515  13.528  20.950  0.00  0.00    +0.000 HD
ENDBRANCH  25  27
ENDBRANCH  23  25
BRANCH  24  29
ATOM     29  C   UNL     1      -2.072  13.036  19.652  0.00  0.00    +0.000 C 
ATOM     30  C   UNL     1      -3.365  13.028  20.448  0.00  0.00    +0.000 C 
ENDBRANCH  24  29
BRANCH  20  31
ATOM     31  C   UNL     1      -2.022  10.681  17.484  0.00  0.00    +0.000 C 
BRANCH  31  32
ATOM     32  C   UNL     1      -3.251   9.772  17.495  0.00  0.00    +0.000 C 
BRANCH  32  34
ATOM     33  C   UNL     1      -4.715  11.758  16.977  0.00  0.00    +0.000 C 
ATOM     34  C   UNL     1      -4.514  10.544  17.871  0.00  0.00    +0.000 C 
ENDBRANCH  32  34
ENDBRANCH  31  32
ENDBRANCH  20  31
ENDBRANCH  19  22
ENDBRANCH   1  19
TORSDOF 10
ENDMDL
