MODEL 1
REMARK VINA RESULT:      -8.1      0.000      0.000
REMARK  Name = 
REMARK  5 active torsions:
REMARK  status: ('A' for Active; 'I' for Inactive)
REMARK    1  A    between atoms: C_1  and  O_2
REMARK    2  A    between atoms: O_2  and  C_3
REMARK    3  A    between atoms: C_12  and  C_13
REMARK    4  A    between atoms: N_19  and  C_20
REMARK    5  A    between atoms: C_23  and  N_24
REMARK                            x       y       z     vdW  Elec       q    Type
REMARK                         _______ _______ _______ _____ _____    ______ ____
ROOT
ATOM      1  C   UNL     1      -2.911  13.423  23.326  0.00  0.00    +0.000 A 
ATOM      2  C   UNL     1      -1.843  12.581  23.004  0.00  0.00    +0.000 A 
ATOM      3  C   UNL     1      -1.710  12.012  21.721  0.00  0.00    +0.000 A 
ATOM      4  C   UNL     1      -2.713  12.258  20.768  0.00  0.00    +0.000 A 
ATOM      5  C   UNL     1      -3.816  13.068  21.112  0.00  0.00    +0.000 A 
ATOM      6  C   UNL     1      -3.911  13.646  22.377  0.00  0.00    +0.000 A 
ATOM      7 CL   UNL     1      -5.264  14.666  22.706  0.00  0.00    +0.000 Cl
ATOM      8  N   UNL     1      -2.607  11.702  19.490  0.00  0.00    +0.000 N 
ATOM      9  O   UNL     1      -3.517  11.919  18.628  0.00  0.00    +0.000 OA
ATOM     10  C   UNL     1      -1.505  10.912  19.176  0.00  0.00    +0.000 A 
ATOM     11  C   UNL     1      -0.459  10.662  20.099  0.00  0.00    +0.000 A 
ATOM     12  N   UNL     1       0.621   9.846  19.762  0.00  0.00    +0.000 N 
ATOM     13  C   UNL     1       1.337   9.021  20.767  0.00  0.00    +0.000 C 
ATOM     14  C   UNL     1       1.631   7.622  20.160  0.00  0.00    +0.000 C 
ATOM     15  N   UNL     1       2.310   7.765  18.859  0.00  0.00    +0.000 N 
ATOM     16  C   UNL     1       1.624   8.629  17.881  0.00  0.00    +0.000 C 
ATOM     17  C   UNL     1       1.403  10.020  18.515  0.00  0.00    +0.000 C 
ATOM     18  N   UNL     1      -0.585  11.227  21.388  0.00  0.00    +0.000 N 
ATOM     19  O   UNL     1       0.333  11.076  22.275  0.00  0.00    +0.000 OA
ENDROOT
BRANCH  15  20
ATOM     20  C   UNL     1       3.334   6.932  18.474  0.00  0.00    +0.000 A 
ATOM     21  C   UNL     1       3.801   5.898  19.297  0.00  0.00    +0.000 A 
ATOM     22  C   UNL     1       4.907   5.122  18.938  0.00  0.00    +0.000 A 
ATOM     23  C   UNL     1       5.565   5.380  17.734  0.00  0.00    +0.000 A 
ATOM     24  C   UNL     1       5.103   6.380  16.876  0.00  0.00    +0.000 A 
ATOM     25  C   UNL     1       3.994   7.140  17.251  0.00  0.00    +0.000 A 
BRANCH  23  26
ATOM     26  N   UNL     1       6.767   4.619  17.382  0.00  0.00    +0.000 N 
ATOM     27  O   UNL     1       6.890   4.249  16.205  0.00  0.00    +0.000 OA
ATOM     28  O   UNL     1       7.583   4.381  18.283  0.00  0.00    +0.000 OA
ENDBRANCH  23  26
ENDBRANCH  15  20
BRANCH   1  30
ATOM     29  C   UNL     1      -2.179  15.159  24.740  0.00  0.00    +0.000 C 
ATOM     30  O   UNL     1      -3.027  14.029  24.550  0.00  0.00    +0.000 OA
ENDBRANCH   1  30
BRANCH  10  31
ATOM     31  C   UNL     1      -1.544  10.319  17.877  0.00  0.00    +0.000 C 
ATOM     32  N   UNL     1      -1.547   9.904  16.790  0.00  0.00    +0.000 NA
ENDBRANCH  10  31
TORSDOF 4
ENDMDL
MODEL 2
REMARK VINA RESULT:      -7.9      0.690      1.094
REMARK  Name = 
REMARK  5 active torsions:
REMARK  status: ('A' for Active; 'I' for Inactive)
REMARK    1  A    between atoms: C_1  and  O_2
REMARK    2  A    between atoms: O_2  and  C_3
REMARK    3  A    between atoms: C_12  and  C_13
REMARK    4  A    between atoms: N_19  and  C_20
REMARK    5  A    between atoms: C_23  and  N_24
REMARK                            x       y       z     vdW  Elec       q    Type
REMARK                         _______ _______ _______ _____ _____    ______ ____
ROOT
ATOM      1  C   UNL     1      -2.399  13.570  23.256  0.00  0.00    +0.000 A 
ATOM      2  C   UNL     1      -1.362  12.719  22.866  0.00  0.00    +0.000 A 
ATOM      3  C   UNL     1      -1.344  12.108  21.595  0.00  0.00    +0.000 A 
ATOM      4  C   UNL     1      -2.430  12.323  20.729  0.00  0.00    +0.000 A 
ATOM      5  C   UNL     1      -3.499  13.144  21.146  0.00  0.00    +0.000 A 
ATOM      6  C   UNL     1      -3.481  13.763  22.394  0.00  0.00    +0.000 A 
ATOM      7 CL   UNL     1      -4.803  14.792  22.811  0.00  0.00    +0.000 Cl
ATOM      8  N   UNL     1      -2.438  11.726  19.466  0.00  0.00    +0.000 N 
ATOM      9  O   UNL     1      -3.423  11.915  18.683  0.00  0.00    +0.000 OA
ATOM     10  C   UNL     1      -1.367  10.927  19.079  0.00  0.00    +0.000 A 
ATOM     11  C   UNL     1      -0.241  10.707  19.910  0.00  0.00    +0.000 A 
ATOM     12  N   UNL     1       0.807   9.881  19.504  0.00  0.00    +0.000 N 
ATOM     13  C   UNL     1       1.614   9.089  20.466  0.00  0.00    +0.000 C 
ATOM     14  C   UNL     1       1.855   7.671  19.881  0.00  0.00    +0.000 C 
ATOM     15  N   UNL     1       2.414   7.772  18.520  0.00  0.00    +0.000 N 
ATOM     16  C   UNL     1       1.639   8.604  17.580  0.00  0.00    +0.000 C 
ATOM     17  C   UNL     1       1.472  10.014  18.187  0.00  0.00    +0.000 C 
ATOM     18  N   UNL     1      -0.251  11.314  21.187  0.00  0.00    +0.000 N 
ATOM     19  O   UNL     1       0.744  11.192  21.991  0.00  0.00    +0.000 OA
ENDROOT
BRANCH  15  20
ATOM     20  C   UNL     1       3.402   6.927  18.070  0.00  0.00    +0.000 A 
ATOM     21  C   UNL     1       4.606   7.407  17.537  0.00  0.00    +0.000 A 
ATOM     22  C   UNL     1       5.559   6.542  16.992  0.00  0.00    +0.000 A 
ATOM     23  C   UNL     1       5.310   5.169  16.975  0.00  0.00    +0.000 A 
ATOM     24  C   UNL     1       4.135   4.656  17.530  0.00  0.00    +0.000 A 
ATOM     25  C   UNL     1       3.198   5.536  18.073  0.00  0.00    +0.000 A 
BRANCH  23  26
ATOM     26  N   UNL     1       6.271   4.261  16.343  0.00  0.00    +0.000 N 
ATOM     27  O   UNL     1       7.476   4.464  16.548  0.00  0.00    +0.000 OA
ATOM     28  O   UNL     1       5.823   3.351  15.631  0.00  0.00    +0.000 OA
ENDBRANCH  23  26
ENDBRANCH  15  20
BRANCH   1  30
ATOM     29  C   UNL     1      -1.353  15.162  24.644  0.00  0.00    +0.000 C 
ATOM     30  O   UNL     1      -2.406  14.216  24.465  0.00  0.00    +0.000 OA
ENDBRANCH   1  30
BRANCH  10  31
ATOM     31  C   UNL     1      -1.521  10.293  17.809  0.00  0.00    +0.000 C 
ATOM     32  N   UNL     1      -1.646   9.707  16.811  0.00  0.00    +0.000 NA
ENDBRANCH  10  31
TORSDOF 4
ENDMDL
MODEL 3
REMARK VINA RESULT:      -7.5      0.826      1.319
REMARK  Name = 
REMARK  5 active torsions:
REMARK  status: ('A' for Active; 'I' for Inactive)
REMARK    1  A    between atoms: C_1  and  O_2
REMARK    2  A    between atoms: O_2  and  C_3
REMARK    3  A    between atoms: C_12  and  C_13
REMARK    4  A    between atoms: N_19  and  C_20
REMARK    5  A    between atoms: C_23  and  N_24
REMARK                            x       y       z     vdW  Elec       q    Type
REMARK                         _______ _______ _______ _____ _____    ______ ____
ROOT
ATOM      1  C   UNL     1      -3.536  14.178  22.564  0.00  0.00    +0.000 A 
ATOM      2  C   UNL     1      -2.427  13.355  22.350  0.00  0.00    +0.000 A 
ATOM      3  C   UNL     1      -2.284  12.597  21.170  0.00  0.00    +0.000 A 
ATOM      4  C   UNL     1      -3.315  12.634  20.216  0.00  0.00    +0.000 A 
ATOM      5  C   UNL     1      -4.456  13.428  20.458  0.00  0.00    +0.000 A 
ATOM      6  C   UNL     1      -4.563  14.193  21.617  0.00  0.00    +0.000 A 
ATOM      7 CL   UNL     1      -5.967  15.177  21.817  0.00  0.00    +0.000 Cl
ATOM      8  N   UNL     1      -3.199  11.889  19.040  0.00  0.00    +0.000 N 
ATOM      9  O   UNL     1      -4.135  11.917  18.178  0.00  0.00    +0.000 OA
ATOM     10  C   UNL     1      -2.059  11.121  18.825  0.00  0.00    +0.000 A 
ATOM     11  C   UNL     1      -0.984  11.077  19.748  0.00  0.00    +0.000 A 
ATOM     12  N   UNL     1       0.135  10.278  19.516  0.00  0.00    +0.000 N 
ATOM     13  C   UNL     1       0.915   9.663  20.619  0.00  0.00    +0.000 C 
ATOM     14  C   UNL     1       1.278   8.204  20.232  0.00  0.00    +0.000 C 
ATOM     15  N   UNL     1       1.926   8.175  18.908  0.00  0.00    +0.000 N 
ATOM     16  C   UNL     1       1.174   8.834  17.824  0.00  0.00    +0.000 C 
ATOM     17  C   UNL     1       0.884  10.294  18.237  0.00  0.00    +0.000 C 
ATOM     18  N   UNL     1      -1.120  11.832  20.935  0.00  0.00    +0.000 N 
ATOM     19  O   UNL     1      -0.180  11.874  21.810  0.00  0.00    +0.000 OA
ENDROOT
BRANCH  15  20
ATOM     20  C   UNL     1       2.989   7.348  18.631  0.00  0.00    +0.000 A 
ATOM     21  C   UNL     1       3.830   7.560  17.530  0.00  0.00    +0.000 A 
ATOM     22  C   UNL     1       4.846   6.658  17.202  0.00  0.00    +0.000 A 
ATOM     23  C   UNL     1       5.029   5.517  17.986  0.00  0.00    +0.000 A 
ATOM     24  C   UNL     1       4.231   5.295  19.110  0.00  0.00    +0.000 A 
ATOM     25  C   UNL     1       3.226   6.211  19.423  0.00  0.00    +0.000 A 
BRANCH  23  26
ATOM     26  N   UNL     1       6.044   4.530  17.610  0.00  0.00    +0.000 N 
ATOM     27  O   UNL     1       6.983   4.340  18.397  0.00  0.00    +0.000 OA
ATOM     28  O   UNL     1       5.911   3.950  16.523  0.00  0.00    +0.000 OA
ENDBRANCH  23  26
ENDBRANCH  15  20
BRANCH   1  30
ATOM     29  C   UNL     1      -2.971  14.486  24.831  0.00  0.00    +0.000 C 
ATOM     30  O   UNL     1      -3.666  14.963  23.679  0.00  0.00    +0.000 OA
ENDBRANCH   1  30
BRANCH  10  31
ATOM     31  C   UNL     1      -2.086  10.328  17.637  0.00  0.00    +0.000 C 
ATOM     32  N   UNL     1      -2.081   9.622  16.712  0.00  0.00    +0.000 NA
ENDBRANCH  10  31
TORSDOF 4
ENDMDL
MODEL 4
REMARK VINA RESULT:      -7.3      1.183      1.408
REMARK  Name = 
REMARK  5 active torsions:
REMARK  status: ('A' for Active; 'I' for Inactive)
REMARK    1  A    between atoms: C_1  and  O_2
REMARK    2  A    between atoms: O_2  and  C_3
REMARK    3  A    between atoms: C_12  and  C_13
REMARK    4  A    between atoms: N_19  and  C_20
REMARK    5  A    between atoms: C_23  and  N_24
REMARK                            x       y       z     vdW  Elec       q    Type
REMARK                         _______ _______ _______ _____ _____    ______ ____
ROOT
ATOM      1  C   UNL     1      -3.155  14.440  24.165  0.00  0.00    +0.000 A 
ATOM      2  C   UNL     1      -2.156  13.542  23.782  0.00  0.00    +0.000 A 
ATOM      3  C   UNL     1      -2.134  12.964  22.496  0.00  0.00    +0.000 A 
ATOM      4  C   UNL     1      -3.180  13.262  21.605  0.00  0.00    +0.000 A 
ATOM      5  C   UNL     1      -4.213  14.132  22.014  0.00  0.00    +0.000 A 
ATOM      6  C   UNL     1      -4.199  14.716  23.279  0.00  0.00    +0.000 A 
ATOM      7 CL   UNL     1      -5.472  15.807  23.686  0.00  0.00    +0.000 Cl
ATOM      8  N   UNL     1      -3.183  12.699  20.326  0.00  0.00    +0.000 N 
ATOM      9  O   UNL     1      -4.132  12.964  19.521  0.00  0.00    +0.000 OA
ATOM     10  C   UNL     1      -2.147  11.851  19.949  0.00  0.00    +0.000 A 
ATOM     11  C   UNL     1      -1.060  11.546  20.805  0.00  0.00    +0.000 A 
ATOM     12  N   UNL     1      -0.049  10.673  20.406  0.00  0.00    +0.000 N 
ATOM     13  C   UNL     1       0.683   9.812  21.369  0.00  0.00    +0.000 C 
ATOM     14  C   UNL     1       0.863   8.399  20.752  0.00  0.00    +0.000 C 
ATOM     15  N   UNL     1       1.467   8.503  19.411  0.00  0.00    +0.000 N 
ATOM     16  C   UNL     1       0.768   9.400  18.473  0.00  0.00    +0.000 C 
ATOM     17  C   UNL     1       0.662  10.802  19.113  0.00  0.00    +0.000 C 
ATOM     18  N   UNL     1      -1.075  12.119  22.097  0.00  0.00    +0.000 N 
ATOM     19  O   UNL     1      -0.113  11.921  22.926  0.00  0.00    +0.000 OA
ENDROOT
BRANCH  15  20
ATOM     20  C   UNL     1       2.419   7.614  18.967  0.00  0.00    +0.000 A 
ATOM     21  C   UNL     1       2.754   6.461  19.689  0.00  0.00    +0.000 A 
ATOM     22  C   UNL     1       3.791   5.619  19.279  0.00  0.00    +0.000 A 
ATOM     23  C   UNL     1       4.513   5.931  18.126  0.00  0.00    +0.000 A 
ATOM     24  C   UNL     1       4.181   7.054  17.365  0.00  0.00    +0.000 A 
ATOM     25  C   UNL     1       3.138   7.879  17.789  0.00  0.00    +0.000 A 
BRANCH  23  26
ATOM     26  N   UNL     1       5.648   5.094  17.727  0.00  0.00    +0.000 N 
ATOM     27  O   UNL     1       5.972   4.165  18.481  0.00  0.00    +0.000 OA
ATOM     28  O   UNL     1       6.224   5.370  16.665  0.00  0.00    +0.000 OA
ENDBRANCH  23  26
ENDBRANCH  15  20
BRANCH   1  30
ATOM     29  C   UNL     1      -2.067  15.936  25.624  0.00  0.00    +0.000 C 
ATOM     30  O   UNL     1      -3.162  15.053  25.391  0.00  0.00    +0.000 OA
ENDBRANCH   1  30
BRANCH  10  31
ATOM     31  C   UNL     1      -2.298  11.259  18.657  0.00  0.00    +0.000 C 
ATOM     32  N   UNL     1      -2.443  10.848  17.578  0.00  0.00    +0.000 NA
ENDBRANCH  10  31
TORSDOF 4
ENDMDL
MODEL 5
REMARK VINA RESULT:      -7.0      1.596      2.203
REMARK  Name = 
REMARK  5 active torsions:
REMARK  status: ('A' for Active; 'I' for Inactive)
REMARK    1  A    between atoms: C_1  and  O_2
REMARK    2  A    between atoms: O_2  and  C_3
REMARK    3  A    between atoms: C_12  and  C_13
REMARK    4  A    between atoms: N_19  and  C_20
REMARK    5  A    between atoms: C_23  and  N_24
REMARK                            x       y       z     vdW  Elec       q    Type
REMARK                         _______ _______ _______ _____ _____    ______ ____
ROOT
ATOM      1  C   UNL     1      -3.119  15.355  24.510  0.00  0.00    +0.000 A 
ATOM      2  C   UNL     1      -2.169  14.433  24.062  0.00  0.00    +0.000 A 
ATOM      3  C   UNL     1      -2.294  13.787  22.816  0.00  0.00    +0.000 A 
ATOM      4  C   UNL     1      -3.436  14.042  22.036  0.00  0.00    +0.000 A 
ATOM      5  C   UNL     1      -4.418  14.936  22.514  0.00  0.00    +0.000 A 
ATOM      6  C   UNL     1      -4.258  15.587  23.736  0.00  0.00    +0.000 A 
ATOM      7 CL   UNL     1      -5.479  16.704  24.228  0.00  0.00    +0.000 Cl
ATOM      8  N   UNL     1      -3.586  13.412  20.798  0.00  0.00    +0.000 N 
ATOM      9  O   UNL     1      -4.622  13.637  20.095  0.00  0.00    +0.000 OA
ATOM     10  C   UNL     1      -2.598  12.540  20.350  0.00  0.00    +0.000 A 
ATOM     11  C   UNL     1      -1.419  12.277  21.091  0.00  0.00    +0.000 A 
ATOM     12  N   UNL     1      -0.458  11.379  20.626  0.00  0.00    +0.000 N 
ATOM     13  C   UNL     1       0.381  10.569  21.543  0.00  0.00    +0.000 C 
ATOM     14  C   UNL     1       0.492   9.123  20.985  0.00  0.00    +0.000 C 
ATOM     15  N   UNL     1       0.937   9.153  19.580  0.00  0.00    +0.000 N 
ATOM     16  C   UNL     1       0.133  10.002  18.682  0.00  0.00    +0.000 C 
ATOM     17  C   UNL     1       0.099  11.437  19.254  0.00  0.00    +0.000 C 
ATOM     18  N   UNL     1      -1.286  12.919  22.343  0.00  0.00    +0.000 N 
ATOM     19  O   UNL     1      -0.235  12.760  23.065  0.00  0.00    +0.000 OA
ENDROOT
BRANCH  15  20
ATOM     20  C   UNL     1       1.833   8.238  19.077  0.00  0.00    +0.000 A 
ATOM     21  C   UNL     1       2.201   7.089  19.790  0.00  0.00    +0.000 A 
ATOM     22  C   UNL     1       3.187   6.219  19.314  0.00  0.00    +0.000 A 
ATOM     23  C   UNL     1       3.822   6.499  18.103  0.00  0.00    +0.000 A 
ATOM     24  C   UNL     1       3.453   7.617  17.352  0.00  0.00    +0.000 A 
ATOM     25  C   UNL     1       2.464   8.470  17.843  0.00  0.00    +0.000 A 
BRANCH  23  26
ATOM     26  N   UNL     1       4.905   5.632  17.631  0.00  0.00    +0.000 N 
ATOM     27  O   UNL     1       4.887   5.285  16.441  0.00  0.00    +0.000 OA
ATOM     28  O   UNL     1       5.768   5.289  18.451  0.00  0.00    +0.000 OA
ENDBRANCH  23  26
ENDBRANCH  15  20
BRANCH   1  30
ATOM     29  C   UNL     1      -1.950  17.013  25.708  0.00  0.00    +0.000 C 
ATOM     30  O   UNL     1      -2.987  16.033  25.694  0.00  0.00    +0.000 OA
ENDBRANCH   1  30
BRANCH  10  31
ATOM     31  C   UNL     1      -2.895  11.881  19.118  0.00  0.00    +0.000 C 
ATOM     32  N   UNL     1      -3.146  11.277  18.155  0.00  0.00    +0.000 NA
ENDBRANCH  10  31
TORSDOF 4
ENDMDL
MODEL 6
REMARK VINA RESULT:      -6.9      3.776     10.410
REMARK  Name = 
REMARK  5 active torsions:
REMARK  status: ('A' for Active; 'I' for Inactive)
REMARK    1  A    between atoms: C_1  and  O_2
REMARK    2  A    between atoms: O_2  and  C_3
REMARK    3  A    between atoms: C_12  and  C_13
REMARK    4  A    between atoms: N_19  and  C_20
REMARK    5  A    between atoms: C_23  and  N_24
REMARK                            x       y       z     vdW  Elec       q    Type
REMARK                         _______ _______ _______ _____ _____    ______ ____
ROOT
ATOM      1  C   UNL     1       2.288   5.973  20.030  0.00  0.00    +0.000 A 
ATOM      2  C   UNL     1       1.435   6.841  20.716  0.00  0.00    +0.000 A 
ATOM      3  C   UNL     1       1.174   8.145  20.248  0.00  0.00    +0.000 A 
ATOM      4  C   UNL     1       1.837   8.592  19.093  0.00  0.00    +0.000 A 
ATOM      5  C   UNL     1       2.735   7.729  18.430  0.00  0.00    +0.000 A 
ATOM      6  C   UNL     1       2.955   6.433  18.892  0.00  0.00    +0.000 A 
ATOM      7 CL   UNL     1       4.031   5.422  17.998  0.00  0.00    +0.000 Cl
ATOM      8  N   UNL     1       1.598   9.881  18.611  0.00  0.00    +0.000 N 
ATOM      9  O   UNL     1       2.203  10.289  17.568  0.00  0.00    +0.000 OA
ATOM     10  C   UNL     1       0.702  10.708  19.281  0.00  0.00    +0.000 A 
ATOM     11  C   UNL     1      -0.009  10.287  20.433  0.00  0.00    +0.000 A 
ATOM     12  N   UNL     1      -0.883  11.148  21.097  0.00  0.00    +0.000 N 
ATOM     13  C   UNL     1      -1.113  11.071  22.561  0.00  0.00    +0.000 C 
ATOM     14  C   UNL     1      -1.156  12.509  23.145  0.00  0.00    +0.000 C 
ATOM     15  N   UNL     1      -2.122  13.333  22.394  0.00  0.00    +0.000 N 
ATOM     16  C   UNL     1      -1.924  13.365  20.934  0.00  0.00    +0.000 C 
ATOM     17  C   UNL     1      -1.941  11.916  20.399  0.00  0.00    +0.000 C 
ATOM     18  N   UNL     1       0.249   8.982  20.910  0.00  0.00    +0.000 N 
ATOM     19  O   UNL     1      -0.375   8.510  21.930  0.00  0.00    +0.000 OA
ENDROOT
BRANCH  15  20
ATOM     20  C   UNL     1      -2.950  14.238  23.017  0.00  0.00    +0.000 A 
ATOM     21  C   UNL     1      -4.313  14.338  22.703  0.00  0.00    +0.000 A 
ATOM     22  C   UNL     1      -5.122  15.327  23.269  0.00  0.00    +0.000 A 
ATOM     23  C   UNL     1      -4.564  16.239  24.167  0.00  0.00    +0.000 A 
ATOM     24  C   UNL     1      -3.218  16.145  24.527  0.00  0.00    +0.000 A 
ATOM     25  C   UNL     1      -2.429  15.147  23.954  0.00  0.00    +0.000 A 
BRANCH  23  26
ATOM     26  N   UNL     1      -5.387  17.322  24.711  0.00  0.00    +0.000 N 
ATOM     27  O   UNL     1      -6.356  17.704  24.039  0.00  0.00    +0.000 OA
ATOM     28  O   UNL     1      -5.060  17.801  25.807  0.00  0.00    +0.000 OA
ENDBRANCH  23  26
ENDBRANCH  15  20
BRANCH   1  30
ATOM     29  C   UNL     1       1.355   3.848  20.440  0.00  0.00    +0.000 C 
ATOM     30  O   UNL     1       2.511   4.684  20.439  0.00  0.00    +0.000 OA
ENDBRANCH   1  30
BRANCH  10  31
ATOM     31  C   UNL     1       0.604  12.034  18.758  0.00  0.00    +0.000 C 
ATOM     32  N   UNL     1       0.449  13.116  18.358  0.00  0.00    +0.000 NA
ENDBRANCH  10  31
TORSDOF 4
ENDMDL
MODEL 7
REMARK VINA RESULT:      -6.8      1.540      3.104
REMARK  Name = 
REMARK  5 active torsions:
REMARK  status: ('A' for Active; 'I' for Inactive)
REMARK    1  A    between atoms: C_1  and  O_2
REMARK    2  A    between atoms: O_2  and  C_3
REMARK    3  A    between atoms: C_12  and  C_13
REMARK    4  A    between atoms: N_19  and  C_20
REMARK    5  A    between atoms: C_23  and  N_24
REMARK                            x       y       z     vdW  Elec       q    Type
REMARK                         _______ _______ _______ _____ _____    ______ ____
ROOT
ATOM      1  C   UNL     1      -4.036  13.353  20.338  0.00  0.00    +0.000 A 
ATOM      2  C   UNL     1      -3.203  12.482  19.631  0.00  0.00    +0.000 A 
ATOM      3  C   UNL     1      -2.159  11.779  20.265  0.00  0.00    +0.000 A 
ATOM      4  C   UNL     1      -1.923  12.010  21.631  0.00  0.00    +0.000 A 
ATOM      5  C   UNL     1      -2.735  12.928  22.330  0.00  0.00    +0.000 A 
ATOM      6  C   UNL     1      -3.782  13.589  21.691  0.00  0.00    +0.000 A 
ATOM      7 CL   UNL     1      -4.762  14.659  22.626  0.00  0.00    +0.000 Cl
ATOM      8  N   UNL     1      -0.892  11.329  22.282  0.00  0.00    +0.000 N 
ATOM      9  O   UNL     1      -0.674  11.542  23.518  0.00  0.00    +0.000 OA
ATOM     10  C   UNL     1      -0.111  10.424  21.569  0.00  0.00    +0.000 A 
ATOM     11  C   UNL     1      -0.333  10.141  20.198  0.00  0.00    +0.000 A 
ATOM     12  N   UNL     1       0.482   9.247  19.504  0.00  0.00    +0.000 N 
ATOM     13  C   UNL     1       0.766   9.392  18.055  0.00  0.00    +0.000 C 
ATOM     14  C   UNL     1       2.270   9.101  17.800  0.00  0.00    +0.000 C 
ATOM     15  N   UNL     1       2.643   7.802  18.391  0.00  0.00    +0.000 N 
ATOM     16  C   UNL     1       2.311   7.640  19.818  0.00  0.00    +0.000 C 
ATOM     17  C   UNL     1       0.798   7.889  20.007  0.00  0.00    +0.000 C 
ATOM     18  N   UNL     1      -1.377  10.843  19.553  0.00  0.00    +0.000 N 
ATOM     19  O   UNL     1      -1.666  10.624  18.321  0.00  0.00    +0.000 OA
ENDROOT
BRANCH  15  20
ATOM     20  C   UNL     1       3.498   6.929  17.759  0.00  0.00    +0.000 A 
ATOM     21  C   UNL     1       3.431   5.544  17.962  0.00  0.00    +0.000 A 
ATOM     22  C   UNL     1       4.367   4.676  17.393  0.00  0.00    +0.000 A 
ATOM     23  C   UNL     1       5.395   5.198  16.604  0.00  0.00    +0.000 A 
ATOM     24  C   UNL     1       5.469   6.569  16.354  0.00  0.00    +0.000 A 
ATOM     25  C   UNL     1       4.521   7.418  16.928  0.00  0.00    +0.000 A 
BRANCH  23  26
ATOM     26  N   UNL     1       6.422   4.304  16.061  0.00  0.00    +0.000 N 
ATOM     27  O   UNL     1       7.573   4.411  16.507  0.00  0.00    +0.000 OA
ATOM     28  O   UNL     1       6.081   3.503  15.179  0.00  0.00    +0.000 OA
ENDBRANCH  23  26
ENDBRANCH  15  20
BRANCH   1  30
ATOM     29  C   UNL     1      -6.261  13.208  19.576  0.00  0.00    +0.000 C 
ATOM     30  O   UNL     1      -5.090  14.003  19.750  0.00  0.00    +0.000 OA
ENDBRANCH   1  30
BRANCH  10  31
ATOM     31  C   UNL     1       0.971   9.854  22.307  0.00  0.00    +0.000 C 
ATOM     32  N   UNL     1       1.826   9.429  22.971  0.00  0.00    +0.000 NA
ENDBRANCH  10  31
TORSDOF 4
ENDMDL
MODEL 8
REMARK VINA RESULT:      -6.7      3.916     10.164
REMARK  Name = 
REMARK  5 active torsions:
REMARK  status: ('A' for Active; 'I' for Inactive)
REMARK    1  A    between atoms: C_1  and  O_2
REMARK    2  A    between atoms: O_2  and  C_3
REMARK    3  A    between atoms: C_12  and  C_13
REMARK    4  A    between atoms: N_19  and  C_20
REMARK    5  A    between atoms: C_23  and  N_24
REMARK                            x       y       z     vdW  Elec       q    Type
REMARK                         _______ _______ _______ _____ _____    ______ ____
ROOT
ATOM      1  C   UNL     1       3.878   3.708  18.703  0.00  0.00    +0.000 A 
ATOM      2  C   UNL     1       3.088   4.546  19.495  0.00  0.00    +0.000 A 
ATOM      3  C   UNL     1       2.833   5.883  19.131  0.00  0.00    +0.000 A 
ATOM      4  C   UNL     1       3.438   6.393  17.970  0.00  0.00    +0.000 A 
ATOM      5  C   UNL     1       4.275   5.558  17.199  0.00  0.00    +0.000 A 
ATOM      6  C   UNL     1       4.490   4.230  17.561  0.00  0.00    +0.000 A 
ATOM      7 CL   UNL     1       5.486   3.258  16.540  0.00  0.00    +0.000 Cl
ATOM      8  N   UNL     1       3.204   7.717  17.589  0.00  0.00    +0.000 N 
ATOM      9  O   UNL     1       3.757   8.181  16.541  0.00  0.00    +0.000 OA
ATOM     10  C   UNL     1       2.369   8.515  18.364  0.00  0.00    +0.000 A 
ATOM     11  C   UNL     1       1.717   8.032  19.526  0.00  0.00    +0.000 A 
ATOM     12  N   UNL     1       0.904   8.864  20.296  0.00  0.00    +0.000 N 
ATOM     13  C   UNL     1       0.757   8.694  21.763  0.00  0.00    +0.000 C 
ATOM     14  C   UNL     1       0.784  10.091  22.442  0.00  0.00    +0.000 C 
ATOM     15  N   UNL     1      -0.204  10.983  21.807  0.00  0.00    +0.000 N 
ATOM     16  C   UNL     1      -0.090  11.108  20.342  0.00  0.00    +0.000 C 
ATOM     17  C   UNL     1      -0.173   9.699  19.715  0.00  0.00    +0.000 C 
ATOM     18  N   UNL     1       1.969   6.693  19.900  0.00  0.00    +0.000 N 
ATOM     19  O   UNL     1       1.394   6.166  20.922  0.00  0.00    +0.000 OA
ENDROOT
BRANCH  15  20
ATOM     20  C   UNL     1      -0.972  11.861  22.536  0.00  0.00    +0.000 A 
ATOM     21  C   UNL     1      -2.223  11.501  23.054  0.00  0.00    +0.000 A 
ATOM     22  C   UNL     1      -3.038  12.430  23.707  0.00  0.00    +0.000 A 
ATOM     23  C   UNL     1      -2.599  13.748  23.847  0.00  0.00    +0.000 A 
ATOM     24  C   UNL     1      -1.342  14.130  23.373  0.00  0.00    +0.000 A 
ATOM     25  C   UNL     1      -0.542  13.185  22.728  0.00  0.00    +0.000 A 
BRANCH  23  26
ATOM     26  N   UNL     1      -3.475  14.746  24.467  0.00  0.00    +0.000 N 
ATOM     27  O   UNL     1      -2.946  15.620  25.169  0.00  0.00    +0.000 OA
ATOM     28  O   UNL     1      -4.693  14.651  24.262  0.00  0.00    +0.000 OA
ENDBRANCH  23  26
ENDBRANCH  15  20
BRANCH   1  30
ATOM     29  C   UNL     1       4.409   2.141  20.382  0.00  0.00    +0.000 C 
ATOM     30  O   UNL     1       4.093   2.390  19.013  0.00  0.00    +0.000 OA
ENDBRANCH   1  30
BRANCH  10  31
ATOM     31  C   UNL     1       2.273   9.874  17.937  0.00  0.00    +0.000 C 
ATOM     32  N   UNL     1       2.268  10.975  17.559  0.00  0.00    +0.000 NA
ENDBRANCH  10  31
TORSDOF 4
ENDMDL
MODEL 9
REMARK VINA RESULT:      -6.7      1.978      2.908
REMARK  Name = 
REMARK  5 active torsions:
REMARK  status: ('A' for Active; 'I' for Inactive)
REMARK    1  A    between atoms: C_1  and  O_2
REMARK    2  A    between atoms: O_2  and  C_3
REMARK    3  A    between atoms: C_12  and  C_13
REMARK    4  A    between atoms: N_19  and  C_20
REMARK    5  A    between atoms: C_23  and  N_24
REMARK                            x       y       z     vdW  Elec       q    Type
REMARK                         _______ _______ _______ _____ _____    ______ ____
ROOT
ATOM      1  C   UNL     1      -4.761  15.680  23.371  0.00  0.00    +0.000 A 
ATOM      2  C   UNL     1      -3.675  14.842  23.104  0.00  0.00    +0.000 A 
ATOM      3  C   UNL     1      -3.634  14.026  21.955  0.00  0.00    +0.000 A 
ATOM      4  C   UNL     1      -4.744  14.021  21.093  0.00  0.00    +0.000 A 
ATOM      5  C   UNL     1      -5.860  14.831  21.391  0.00  0.00    +0.000 A 
ATOM      6  C   UNL     1      -5.866  15.654  22.516  0.00  0.00    +0.000 A 
ATOM      7 CL   UNL     1      -7.247  16.653  22.786  0.00  0.00    +0.000 Cl
ATOM      8  N   UNL     1      -4.730  13.218  19.949  0.00  0.00    +0.000 N 
ATOM      9  O   UNL     1      -5.737  13.208  19.171  0.00  0.00    +0.000 OA
ATOM     10  C   UNL     1      -3.613  12.434  19.676  0.00  0.00    +0.000 A 
ATOM     11  C   UNL     1      -2.463  12.431  20.504  0.00  0.00    +0.000 A 
ATOM     12  N   UNL     1      -1.368  11.616  20.217  0.00  0.00    +0.000 N 
ATOM     13  C   UNL     1      -0.497  11.053  21.278  0.00  0.00    +0.000 C 
ATOM     14  C   UNL     1      -0.169   9.574  20.935  0.00  0.00    +0.000 C 
ATOM     15  N   UNL     1       0.362   9.477  19.563  0.00  0.00    +0.000 N 
ATOM     16  C   UNL     1      -0.480  10.085  18.516  0.00  0.00    +0.000 C 
ATOM     17  C   UNL     1      -0.732  11.565  18.879  0.00  0.00    +0.000 C 
ATOM     18  N   UNL     1      -2.496  13.245  21.659  0.00  0.00    +0.000 N 
ATOM     19  O   UNL     1      -1.484  13.325  22.447  0.00  0.00    +0.000 OA
ENDROOT
BRANCH  15  20
ATOM     20  C   UNL     1       1.397   8.631  19.238  0.00  0.00    +0.000 A 
ATOM     21  C   UNL     1       2.081   8.728  18.018  0.00  0.00    +0.000 A 
ATOM     22  C   UNL     1       3.063   7.802  17.656  0.00  0.00    +0.000 A 
ATOM     23  C   UNL     1       3.373   6.755  18.527  0.00  0.00    +0.000 A 
ATOM     24  C   UNL     1       2.735   6.652  19.764  0.00  0.00    +0.000 A 
ATOM     25  C   UNL     1       1.760   7.590  20.108  0.00  0.00    +0.000 A 
BRANCH  23  26
ATOM     26  N   UNL     1       4.351   5.740  18.127  0.00  0.00    +0.000 N 
ATOM     27  O   UNL     1       5.169   5.361  18.978  0.00  0.00    +0.000 OA
ATOM     28  O   UNL     1       4.309   5.327  16.959  0.00  0.00    +0.000 OA
ENDBRANCH  23  26
ENDBRANCH  15  20
BRANCH   1  30
ATOM     29  C   UNL     1      -3.537  16.711  25.100  0.00  0.00    +0.000 C 
ATOM     30  O   UNL     1      -4.794  16.520  24.453  0.00  0.00    +0.000 OA
ENDBRANCH   1  30
BRANCH  10  31
ATOM     31  C   UNL     1      -3.742  11.584  18.535  0.00  0.00    +0.000 C 
ATOM     32  N   UNL     1      -3.807  10.945  17.565  0.00  0.00    +0.000 NA
ENDBRANCH  10  31
TORSDOF 4
ENDMDL
