MODEL 1
REMARK VINA RESULT:      -7.1      0.000      0.000
REMARK  Name = 
REMARK  8 active torsions:
REMARK  status: ('A' for Active; 'I' for Inactive)
REMARK    1  A    between atoms: C_1  and  C_2
REMARK    2  A    between atoms: C_2  and  O_3
REMARK    3  A    between atoms: O_3  and  C_4
REMARK    4  A    between atoms: C_4  and  C_6
REMARK    5  A    between atoms: C_7  and  C_8
REMARK    6  A    between atoms: C_14  and  O_15
REMARK    7  A    between atoms: O_15  and  C_16
REMARK    8  A    between atoms: C_16  and  C_17
REMARK                            x       y       z     vdW  Elec       q    Type
REMARK                         _______ _______ _______ _____ _____    ______ ____
ROOT
ATOM      1  C   UNL     1       4.754   5.354  16.866  0.00  0.00    +0.000 A 
ATOM      2  C   UNL     1       5.134   4.109  16.383  0.00  0.00    +0.000 A 
ATOM      3  C   UNL     1       6.053   3.642  15.319  0.00  0.00    +0.000 C 
ATOM      4  O   UNL     1       4.516   3.117  17.083  0.00  0.00    +0.000 OA
ATOM      5  C   UNL     1       3.751   3.709  18.034  0.00  0.00    +0.000 A 
ATOM      6  C   UNL     1       2.981   3.030  18.973  0.00  0.00    +0.000 A 
ATOM      7  C   UNL     1       2.277   3.805  19.913  0.00  0.00    +0.000 A 
ATOM      8 BR   UNL     1       1.358   2.786  21.232  0.00  0.00    +0.000 Br
ATOM      9  C   UNL     1       2.336   5.208  19.880  0.00  0.00    +0.000 A 
ATOM     10  C   UNL     1       3.143   5.845  18.911  0.00  0.00    +0.000 A 
ATOM     11  C   UNL     1       3.860   5.088  17.959  0.00  0.00    +0.000 A 
ENDROOT
BRANCH   1  12
ATOM     12  C   UNL     1       5.250   6.621  16.360  0.00  0.00    +0.000 C 
ATOM     13  O   UNL     1       5.117   6.989  15.200  0.00  0.00    +0.000 OA
BRANCH  12  14
ATOM     14  O   UNL     1       5.962   7.312  17.296  0.00  0.00    +0.000 OA
BRANCH  14  16
ATOM     15  C   UNL     1       7.744   6.361  18.563  0.00  0.00    +0.000 C 
ATOM     16  C   UNL     1       7.375   7.079  17.276  0.00  0.00    +0.000 C 
ENDBRANCH  14  16
ENDBRANCH  12  14
ENDBRANCH   1  12
BRANCH   9  17
ATOM     17  O   UNL     1       1.762   6.108  20.744  0.00  0.00    +0.000 OA
BRANCH  17  18
ATOM     18  C   UNL     1       1.835   7.491  20.411  0.00  0.00    +0.000 C 
BRANCH  18  19
ATOM     19  C   UNL     1       1.039   8.365  21.383  0.00  0.00    +0.000 C 
ATOM     20  N   UNL     1       1.760   9.045  22.318  0.00  0.00    +0.000 N 
ATOM     21  O   UNL     1      -0.182   8.477  21.333  0.00  0.00    +0.000 OA
ATOM     22  H   UNL     1       2.739   8.843  22.451  0.00  0.00    +0.000 HD
ATOM     23  H   UNL     1       1.255   9.582  23.010  0.00  0.00    +0.000 HD
ENDBRANCH  18  19
ENDBRANCH  17  18
ENDBRANCH   9  17
TORSDOF 6
ENDMDL
MODEL 2
REMARK VINA RESULT:      -7.0      3.630      5.583
REMARK  Name = 
REMARK  8 active torsions:
REMARK  status: ('A' for Active; 'I' for Inactive)
REMARK    1  A    between atoms: C_1  and  C_2
REMARK    2  A    between atoms: C_2  and  O_3
REMARK    3  A    between atoms: O_3  and  C_4
REMARK    4  A    between atoms: C_4  and  C_6
REMARK    5  A    between atoms: C_7  and  C_8
REMARK    6  A    between atoms: C_14  and  O_15
REMARK    7  A    between atoms: O_15  and  C_16
REMARK    8  A    between atoms: C_16  and  C_17
REMARK                            x       y       z     vdW  Elec       q    Type
REMARK                         _______ _______ _______ _____ _____    ______ ____
ROOT
ATOM      1  C   UNL     1       6.357   4.074  13.490  0.00  0.00    +0.000 A 
ATOM      2  C   UNL     1       7.385   5.003  13.395  0.00  0.00    +0.000 A 
ATOM      3  C   UNL     1       8.212   5.530  12.285  0.00  0.00    +0.000 C 
ATOM      4  O   UNL     1       7.651   5.546  14.616  0.00  0.00    +0.000 OA
ATOM      5  C   UNL     1       6.789   4.990  15.504  0.00  0.00    +0.000 A 
ATOM      6  C   UNL     1       6.726   5.304  16.857  0.00  0.00    +0.000 A 
ATOM      7  C   UNL     1       5.742   4.657  17.626  0.00  0.00    +0.000 A 
ATOM      8 BR   UNL     1       5.651   5.246  19.433  0.00  0.00    +0.000 Br
ATOM      9  C   UNL     1       4.879   3.713  17.045  0.00  0.00    +0.000 A 
ATOM     10  C   UNL     1       4.979   3.440  15.663  0.00  0.00    +0.000 A 
ATOM     11  C   UNL     1       5.958   4.080  14.871  0.00  0.00    +0.000 A 
ENDROOT
BRANCH   1  12
ATOM     12  C   UNL     1       5.809   3.334  12.369  0.00  0.00    +0.000 C 
ATOM     13  O   UNL     1       6.452   2.531  11.704  0.00  0.00    +0.000 OA
BRANCH  12  14
ATOM     14  O   UNL     1       4.527   3.698  12.081  0.00  0.00    +0.000 OA
BRANCH  14  16
ATOM     15  C   UNL     1       3.238   3.965  10.093  0.00  0.00    +0.000 C 
ATOM     16  C   UNL     1       3.915   2.965  11.014  0.00  0.00    +0.000 C 
ENDBRANCH  14  16
ENDBRANCH  12  14
ENDBRANCH   1  12
BRANCH   9  17
ATOM     17  O   UNL     1       3.837   3.035  17.629  0.00  0.00    +0.000 OA
BRANCH  17  18
ATOM     18  C   UNL     1       2.543   3.629  17.579  0.00  0.00    +0.000 C 
BRANCH  18  19
ATOM     19  C   UNL     1       1.598   3.052  18.635  0.00  0.00    +0.000 C 
ATOM     20  N   UNL     1       1.459   1.696  18.651  0.00  0.00    +0.000 N 
ATOM     21  O   UNL     1       0.999   3.751  19.447  0.00  0.00    +0.000 OA
ATOM     22  H   UNL     1       1.834   1.138  17.899  0.00  0.00    +0.000 HD
ATOM     23  H   UNL     1       0.796   1.294  19.299  0.00  0.00    +0.000 HD
ENDBRANCH  18  19
ENDBRANCH  17  18
ENDBRANCH   9  17
TORSDOF 6
ENDMDL
MODEL 3
REMARK VINA RESULT:      -6.9      3.828      5.802
REMARK  Name = 
REMARK  8 active torsions:
REMARK  status: ('A' for Active; 'I' for Inactive)
REMARK    1  A    between atoms: C_1  and  C_2
REMARK    2  A    between atoms: C_2  and  O_3
REMARK    3  A    between atoms: O_3  and  C_4
REMARK    4  A    between atoms: C_4  and  C_6
REMARK    5  A    between atoms: C_7  and  C_8
REMARK    6  A    between atoms: C_14  and  O_15
REMARK    7  A    between atoms: O_15  and  C_16
REMARK    8  A    between atoms: C_16  and  C_17
REMARK                            x       y       z     vdW  Elec       q    Type
REMARK                         _______ _______ _______ _____ _____    ______ ____
ROOT
ATOM      1  C   UNL     1       6.191   4.052  13.419  0.00  0.00    +0.000 A 
ATOM      2  C   UNL     1       7.267   4.924  13.322  0.00  0.00    +0.000 A 
ATOM      3  C   UNL     1       8.139   5.382  12.215  0.00  0.00    +0.000 C 
ATOM      4  O   UNL     1       7.541   5.481  14.535  0.00  0.00    +0.000 OA
ATOM      5  C   UNL     1       6.636   4.991  15.419  0.00  0.00    +0.000 A 
ATOM      6  C   UNL     1       6.567   5.340  16.764  0.00  0.00    +0.000 A 
ATOM      7  C   UNL     1       5.539   4.762  17.529  0.00  0.00    +0.000 A 
ATOM      8 BR   UNL     1       5.448   5.397  19.321  0.00  0.00    +0.000 Br
ATOM      9  C   UNL     1       4.637   3.851  16.955  0.00  0.00    +0.000 A 
ATOM     10  C   UNL     1       4.746   3.541  15.580  0.00  0.00    +0.000 A 
ATOM     11  C   UNL     1       5.769   4.110  14.792  0.00  0.00    +0.000 A 
ENDROOT
BRANCH   1  12
ATOM     12  C   UNL     1       5.624   3.315  12.305  0.00  0.00    +0.000 C 
ATOM     13  O   UNL     1       6.148   2.327  11.806  0.00  0.00    +0.000 OA
BRANCH  12  14
ATOM     14  O   UNL     1       4.492   3.898  11.817  0.00  0.00    +0.000 OA
BRANCH  14  16
ATOM     15  C   UNL     1       3.110   3.929   9.875  0.00  0.00    +0.000 C 
ATOM     16  C   UNL     1       3.694   3.059  10.974  0.00  0.00    +0.000 C 
ENDBRANCH  14  16
ENDBRANCH  12  14
ENDBRANCH   1  12
BRANCH   9  17
ATOM     17  O   UNL     1       3.552   3.241  17.535  0.00  0.00    +0.000 OA
BRANCH  17  18
ATOM     18  C   UNL     1       3.757   1.985  18.176  0.00  0.00    +0.000 C 
BRANCH  18  19
ATOM     19  C   UNL     1       3.958   2.130  19.686  0.00  0.00    +0.000 C 
ATOM     20  N   UNL     1       5.153   1.703  20.184  0.00  0.00    +0.000 N 
ATOM     21  O   UNL     1       3.111   2.618  20.428  0.00  0.00    +0.000 OA
ATOM     22  H   UNL     1       5.786   1.175  19.602  0.00  0.00    +0.000 HD
ATOM     23  H   UNL     1       5.289   1.733  21.185  0.00  0.00    +0.000 HD
ENDBRANCH  18  19
ENDBRANCH  17  18
ENDBRANCH   9  17
TORSDOF 6
ENDMDL
MODEL 4
REMARK VINA RESULT:      -6.8      2.546      4.290
REMARK  Name = 
REMARK  8 active torsions:
REMARK  status: ('A' for Active; 'I' for Inactive)
REMARK    1  A    between atoms: C_1  and  C_2
REMARK    2  A    between atoms: C_2  and  O_3
REMARK    3  A    between atoms: O_3  and  C_4
REMARK    4  A    between atoms: C_4  and  C_6
REMARK    5  A    between atoms: C_7  and  C_8
REMARK    6  A    between atoms: C_14  and  O_15
REMARK    7  A    between atoms: O_15  and  C_16
REMARK    8  A    between atoms: C_16  and  C_17
REMARK                            x       y       z     vdW  Elec       q    Type
REMARK                         _______ _______ _______ _____ _____    ______ ____
ROOT
ATOM      1  C   UNL     1       3.921   4.769  18.745  0.00  0.00    +0.000 A 
ATOM      2  C   UNL     1       4.458   4.971  17.481  0.00  0.00    +0.000 A 
ATOM      3  C   UNL     1       5.282   4.155  16.559  0.00  0.00    +0.000 C 
ATOM      4  O   UNL     1       4.111   6.199  17.005  0.00  0.00    +0.000 OA
ATOM      5  C   UNL     1       3.332   6.792  17.944  0.00  0.00    +0.000 A 
ATOM      6  C   UNL     1       2.755   8.051  17.821  0.00  0.00    +0.000 A 
ATOM      7  C   UNL     1       1.943   8.497  18.880  0.00  0.00    +0.000 A 
ATOM      8 BR   UNL     1       1.096  10.171  18.563  0.00  0.00    +0.000 Br
ATOM      9  C   UNL     1       1.751   7.704  20.023  0.00  0.00    +0.000 A 
ATOM     10  C   UNL     1       2.353   6.427  20.091  0.00  0.00    +0.000 A 
ATOM     11  C   UNL     1       3.170   5.959  19.039  0.00  0.00    +0.000 A 
ENDROOT
BRANCH   1  12
ATOM     12  C   UNL     1       4.076   3.554  19.523  0.00  0.00    +0.000 C 
ATOM     13  O   UNL     1       5.160   3.048  19.784  0.00  0.00    +0.000 OA
BRANCH  12  14
ATOM     14  O   UNL     1       2.879   2.989  19.850  0.00  0.00    +0.000 OA
BRANCH  14  16
ATOM     15  C   UNL     1       0.835   2.509  18.720  0.00  0.00    +0.000 C 
ATOM     16  C   UNL     1       2.307   2.153  18.838  0.00  0.00    +0.000 C 
ENDBRANCH  14  16
ENDBRANCH  12  14
ENDBRANCH   1  12
BRANCH   9  17
ATOM     17  O   UNL     1       0.956   7.957  21.115  0.00  0.00    +0.000 OA
BRANCH  17  18
ATOM     18  C   UNL     1       1.403   8.931  22.054  0.00  0.00    +0.000 C 
BRANCH  18  19
ATOM     19  C   UNL     1       0.270   9.843  22.527  0.00  0.00    +0.000 C 
ATOM     20  N   UNL     1      -0.690   9.266  23.304  0.00  0.00    +0.000 N 
ATOM     21  O   UNL     1       0.214  11.037  22.250  0.00  0.00    +0.000 OA
ATOM     22  H   UNL     1      -0.723   8.263  23.411  0.00  0.00    +0.000 HD
ATOM     23  H   UNL     1      -1.481   9.832  23.581  0.00  0.00    +0.000 HD
ENDBRANCH  18  19
ENDBRANCH  17  18
ENDBRANCH   9  17
TORSDOF 6
ENDMDL
MODEL 5
REMARK VINA RESULT:      -6.7      3.164      5.896
REMARK  Name = 
REMARK  8 active torsions:
REMARK  status: ('A' for Active; 'I' for Inactive)
REMARK    1  A    between atoms: C_1  and  C_2
REMARK    2  A    between atoms: C_2  and  O_3
REMARK    3  A    between atoms: O_3  and  C_4
REMARK    4  A    between atoms: C_4  and  C_6
REMARK    5  A    between atoms: C_7  and  C_8
REMARK    6  A    between atoms: C_14  and  O_15
REMARK    7  A    between atoms: O_15  and  C_16
REMARK    8  A    between atoms: C_16  and  C_17
REMARK                            x       y       z     vdW  Elec       q    Type
REMARK                         _______ _______ _______ _____ _____    ______ ____
ROOT
ATOM      1  C   UNL     1       3.037   3.170  19.424  0.00  0.00    +0.000 A 
ATOM      2  C   UNL     1       2.009   2.886  18.535  0.00  0.00    +0.000 A 
ATOM      3  C   UNL     1       0.594   2.472  18.678  0.00  0.00    +0.000 C 
ATOM      4  O   UNL     1       2.428   3.058  17.250  0.00  0.00    +0.000 OA
ATOM      5  C   UNL     1       3.720   3.472  17.298  0.00  0.00    +0.000 A 
ATOM      6  C   UNL     1       4.498   3.781  16.187  0.00  0.00    +0.000 A 
ATOM      7  C   UNL     1       5.809   4.233  16.423  0.00  0.00    +0.000 A 
ATOM      8 BR   UNL     1       6.750   4.752  14.853  0.00  0.00    +0.000 Br
ATOM      9  C   UNL     1       6.311   4.340  17.731  0.00  0.00    +0.000 A 
ATOM     10  C   UNL     1       5.472   4.023  18.823  0.00  0.00    +0.000 A 
ATOM     11  C   UNL     1       4.152   3.570  18.611  0.00  0.00    +0.000 A 
ENDROOT
BRANCH   1  12
ATOM     12  C   UNL     1       2.915   3.114  20.869  0.00  0.00    +0.000 C 
ATOM     13  O   UNL     1       3.401   2.226  21.559  0.00  0.00    +0.000 OA
BRANCH  12  14
ATOM     14  O   UNL     1       2.124   4.108  21.365  0.00  0.00    +0.000 OA
BRANCH  14  16
ATOM     15  C   UNL     1       1.230   6.178  20.590  0.00  0.00    +0.000 C 
ATOM     16  C   UNL     1       2.497   5.433  20.969  0.00  0.00    +0.000 C 
ENDBRANCH  14  16
ENDBRANCH  12  14
ENDBRANCH   1  12
BRANCH   9  17
ATOM     17  O   UNL     1       7.534   4.809  18.142  0.00  0.00    +0.000 OA
BRANCH  17  18
ATOM     18  C   UNL     1       7.560   5.970  18.968  0.00  0.00    +0.000 C 
BRANCH  18  19
ATOM     19  C   UNL     1       7.916   7.234  18.184  0.00  0.00    +0.000 C 
ATOM     20  N   UNL     1       8.663   8.166  18.839  0.00  0.00    +0.000 N 
ATOM     21  O   UNL     1       7.574   7.415  17.019  0.00  0.00    +0.000 OA
ATOM     22  H   UNL     1       8.821   8.085  19.833  0.00  0.00    +0.000 HD
ATOM     23  H   UNL     1       8.862   9.036  18.364  0.00  0.00    +0.000 HD
ENDBRANCH  18  19
ENDBRANCH  17  18
ENDBRANCH   9  17
TORSDOF 6
ENDMDL
MODEL 6
REMARK VINA RESULT:      -6.6      3.018      5.741
REMARK  Name = 
REMARK  8 active torsions:
REMARK  status: ('A' for Active; 'I' for Inactive)
REMARK    1  A    between atoms: C_1  and  C_2
REMARK    2  A    between atoms: C_2  and  O_3
REMARK    3  A    between atoms: O_3  and  C_4
REMARK    4  A    between atoms: C_4  and  C_6
REMARK    5  A    between atoms: C_7  and  C_8
REMARK    6  A    between atoms: C_14  and  O_15
REMARK    7  A    between atoms: O_15  and  C_16
REMARK    8  A    between atoms: C_16  and  C_17
REMARK                            x       y       z     vdW  Elec       q    Type
REMARK                         _______ _______ _______ _____ _____    ______ ____
ROOT
ATOM      1  C   UNL     1       2.396   4.244  19.304  0.00  0.00    +0.000 A 
ATOM      2  C   UNL     1       1.803   3.175  18.647  0.00  0.00    +0.000 A 
ATOM      3  C   UNL     1       0.649   2.291  18.929  0.00  0.00    +0.000 C 
ATOM      4  O   UNL     1       2.443   2.925  17.470  0.00  0.00    +0.000 OA
ATOM      5  C   UNL     1       3.438   3.839  17.348  0.00  0.00    +0.000 A 
ATOM      6  C   UNL     1       4.305   3.931  16.264  0.00  0.00    +0.000 A 
ATOM      7  C   UNL     1       5.257   4.967  16.285  0.00  0.00    +0.000 A 
ATOM      8 BR   UNL     1       6.310   5.090  14.705  0.00  0.00    +0.000 Br
ATOM      9  C   UNL     1       5.336   5.851  17.374  0.00  0.00    +0.000 A 
ATOM     10  C   UNL     1       4.422   5.718  18.443  0.00  0.00    +0.000 A 
ATOM     11  C   UNL     1       3.457   4.688  18.442  0.00  0.00    +0.000 A 
ENDROOT
BRANCH   1  12
ATOM     12  C   UNL     1       1.942   4.788  20.571  0.00  0.00    +0.000 C 
ATOM     13  O   UNL     1       2.158   4.259  21.655  0.00  0.00    +0.000 OA
BRANCH  12  14
ATOM     14  O   UNL     1       1.169   5.901  20.413  0.00  0.00    +0.000 OA
BRANCH  14  16
ATOM     15  C   UNL     1       1.813   8.049  19.605  0.00  0.00    +0.000 C 
ATOM     16  C   UNL     1       1.788   7.129  20.813  0.00  0.00    +0.000 C 
ENDBRANCH  14  16
ENDBRANCH  12  14
ENDBRANCH   1  12
BRANCH   9  17
ATOM     17  O   UNL     1       6.159   6.940  17.532  0.00  0.00    +0.000 OA
BRANCH  17  18
ATOM     18  C   UNL     1       7.533   6.700  17.824  0.00  0.00    +0.000 C 
BRANCH  18  19
ATOM     19  C   UNL     1       7.731   5.474  18.717  0.00  0.00    +0.000 C 
ATOM     20  N   UNL     1       8.137   4.330  18.098  0.00  0.00    +0.000 N 
ATOM     21  O   UNL     1       7.556   5.498  19.932  0.00  0.00    +0.000 OA
ATOM     22  H   UNL     1       8.141   4.271  17.091  0.00  0.00    +0.000 HD
ATOM     23  H   UNL     1       8.218   3.491  18.655  0.00  0.00    +0.000 HD
ENDBRANCH  18  19
ENDBRANCH  17  18
ENDBRANCH   9  17
TORSDOF 6
ENDMDL
MODEL 7
REMARK VINA RESULT:      -6.6      3.641      5.696
REMARK  Name = 
REMARK  8 active torsions:
REMARK  status: ('A' for Active; 'I' for Inactive)
REMARK    1  A    between atoms: C_1  and  C_2
REMARK    2  A    between atoms: C_2  and  O_3
REMARK    3  A    between atoms: O_3  and  C_4
REMARK    4  A    between atoms: C_4  and  C_6
REMARK    5  A    between atoms: C_7  and  C_8
REMARK    6  A    between atoms: C_14  and  O_15
REMARK    7  A    between atoms: O_15  and  C_16
REMARK    8  A    between atoms: C_16  and  C_17
REMARK                            x       y       z     vdW  Elec       q    Type
REMARK                         _______ _______ _______ _____ _____    ______ ____
ROOT
ATOM      1  C   UNL     1       6.302   4.032  13.374  0.00  0.00    +0.000 A 
ATOM      2  C   UNL     1       7.325   4.955  13.204  0.00  0.00    +0.000 A 
ATOM      3  C   UNL     1       8.085   5.463  12.039  0.00  0.00    +0.000 C 
ATOM      4  O   UNL     1       7.666   5.514  14.399  0.00  0.00    +0.000 OA
ATOM      5  C   UNL     1       6.857   4.973  15.344  0.00  0.00    +0.000 A 
ATOM      6  C   UNL     1       6.877   5.306  16.695  0.00  0.00    +0.000 A 
ATOM      7  C   UNL     1       5.939   4.674  17.530  0.00  0.00    +0.000 A 
ATOM      8 BR   UNL     1       5.960   5.288  19.331  0.00  0.00    +0.000 Br
ATOM      9  C   UNL     1       5.039   3.726  17.016  0.00  0.00    +0.000 A 
ATOM     10  C   UNL     1       5.055   3.434  15.634  0.00  0.00    +0.000 A 
ATOM     11  C   UNL     1       5.986   4.058  14.776  0.00  0.00    +0.000 A 
ENDROOT
BRANCH   1  12
ATOM     12  C   UNL     1       5.684   3.279  12.298  0.00  0.00    +0.000 C 
ATOM     13  O   UNL     1       4.537   3.464  11.910  0.00  0.00    +0.000 OA
BRANCH  12  14
ATOM     14  O   UNL     1       6.489   2.283  11.830  0.00  0.00    +0.000 OA
BRANCH  14  16
ATOM     15  C   UNL     1       6.301  -0.055  11.405  0.00  0.00    +0.000 C 
ATOM     16  C   UNL     1       5.839   1.328  10.983  0.00  0.00    +0.000 C 
ENDBRANCH  14  16
ENDBRANCH  12  14
ENDBRANCH   1  12
BRANCH   9  17
ATOM     17  O   UNL     1       4.032   3.060  17.671  0.00  0.00    +0.000 OA
BRANCH  17  18
ATOM     18  C   UNL     1       2.688   3.349  17.296  0.00  0.00    +0.000 C 
BRANCH  18  19
ATOM     19  C   UNL     1       1.695   3.052  18.421  0.00  0.00    +0.000 C 
ATOM     20  N   UNL     1       1.411   1.739  18.651  0.00  0.00    +0.000 N 
ATOM     21  O   UNL     1       1.181   3.932  19.106  0.00  0.00    +0.000 OA
ATOM     22  H   UNL     1       1.718   1.031  18.002  0.00  0.00    +0.000 HD
ATOM     23  H   UNL     1       0.713   1.519  19.349  0.00  0.00    +0.000 HD
ENDBRANCH  18  19
ENDBRANCH  17  18
ENDBRANCH   9  17
TORSDOF 6
ENDMDL
MODEL 8
REMARK VINA RESULT:      -6.5      3.309      6.689
REMARK  Name = 
REMARK  8 active torsions:
REMARK  status: ('A' for Active; 'I' for Inactive)
REMARK    1  A    between atoms: C_1  and  C_2
REMARK    2  A    between atoms: C_2  and  O_3
REMARK    3  A    between atoms: O_3  and  C_4
REMARK    4  A    between atoms: C_4  and  C_6
REMARK    5  A    between atoms: C_7  and  C_8
REMARK    6  A    between atoms: C_14  and  O_15
REMARK    7  A    between atoms: O_15  and  C_16
REMARK    8  A    between atoms: C_16  and  C_17
REMARK                            x       y       z     vdW  Elec       q    Type
REMARK                         _______ _______ _______ _____ _____    ______ ____
ROOT
ATOM      1  C   UNL     1       0.840   8.855  20.250  0.00  0.00    +0.000 A 
ATOM      2  C   UNL     1       0.807   9.858  19.291  0.00  0.00    +0.000 A 
ATOM      3  C   UNL     1       0.129  11.170  19.181  0.00  0.00    +0.000 C 
ATOM      4  O   UNL     1       1.606   9.536  18.236  0.00  0.00    +0.000 OA
ATOM      5  C   UNL     1       2.177   8.336  18.512  0.00  0.00    +0.000 A 
ATOM      6  C   UNL     1       3.082   7.676  17.687  0.00  0.00    +0.000 A 
ATOM      7  C   UNL     1       3.605   6.455  18.149  0.00  0.00    +0.000 A 
ATOM      8 BR   UNL     1       4.929   5.694  17.013  0.00  0.00    +0.000 Br
ATOM      9  C   UNL     1       3.202   5.918  19.383  0.00  0.00    +0.000 A 
ATOM     10  C   UNL     1       2.287   6.637  20.186  0.00  0.00    +0.000 A 
ATOM     11  C   UNL     1       1.752   7.866  19.744  0.00  0.00    +0.000 A 
ENDROOT
BRANCH   1  12
ATOM     12  C   UNL     1       0.123   8.896  21.511  0.00  0.00    +0.000 C 
ATOM     13  O   UNL     1      -0.746   8.092  21.826  0.00  0.00    +0.000 OA
BRANCH  12  14
ATOM     14  O   UNL     1       0.456   9.982  22.265  0.00  0.00    +0.000 OA
BRANCH  14  16
ATOM     15  C   UNL     1      -1.105  11.740  22.661  0.00  0.00    +0.000 C 
ATOM     16  C   UNL     1      -0.557  10.421  23.177  0.00  0.00    +0.000 C 
ENDBRANCH  14  16
ENDBRANCH  12  14
ENDBRANCH   1  12
BRANCH   9  17
ATOM     17  O   UNL     1       3.646   4.778  20.005  0.00  0.00    +0.000 OA
BRANCH  17  18
ATOM     18  C   UNL     1       2.943   3.564  19.754  0.00  0.00    +0.000 C 
BRANCH  18  19
ATOM     19  C   UNL     1       2.131   3.103  20.966  0.00  0.00    +0.000 C 
ATOM     20  N   UNL     1       0.776   3.069  20.813  0.00  0.00    +0.000 N 
ATOM     21  O   UNL     1       2.648   2.761  22.026  0.00  0.00    +0.000 OA
ATOM     22  H   UNL     1       0.346   3.483  20.000  0.00  0.00    +0.000 HD
ATOM     23  H   UNL     1       0.214   2.825  21.616  0.00  0.00    +0.000 HD
ENDBRANCH  18  19
ENDBRANCH  17  18
ENDBRANCH   9  17
TORSDOF 6
ENDMDL
MODEL 9
REMARK VINA RESULT:      -6.4      3.213      6.427
REMARK  Name = 
REMARK  8 active torsions:
REMARK  status: ('A' for Active; 'I' for Inactive)
REMARK    1  A    between atoms: C_1  and  C_2
REMARK    2  A    between atoms: C_2  and  O_3
REMARK    3  A    between atoms: O_3  and  C_4
REMARK    4  A    between atoms: C_4  and  C_6
REMARK    5  A    between atoms: C_7  and  C_8
REMARK    6  A    between atoms: C_14  and  O_15
REMARK    7  A    between atoms: O_15  and  C_16
REMARK    8  A    between atoms: C_16  and  C_17
REMARK                            x       y       z     vdW  Elec       q    Type
REMARK                         _______ _______ _______ _____ _____    ______ ____
ROOT
ATOM      1  C   UNL     1       1.745   8.417  19.064  0.00  0.00    +0.000 A 
ATOM      2  C   UNL     1       1.215   8.238  20.334  0.00  0.00    +0.000 A 
ATOM      3  C   UNL     1       0.299   9.017  21.199  0.00  0.00    +0.000 C 
ATOM      4  O   UNL     1       1.639   7.058  20.866  0.00  0.00    +0.000 OA
ATOM      5  C   UNL     1       2.428   6.457  19.940  0.00  0.00    +0.000 A 
ATOM      6  C   UNL     1       3.036   5.215  20.097  0.00  0.00    +0.000 A 
ATOM      7  C   UNL     1       3.792   4.725  19.017  0.00  0.00    +0.000 A 
ATOM      8 BR   UNL     1       4.475   2.968  19.276  0.00  0.00    +0.000 Br
ATOM      9  C   UNL     1       3.942   5.479  17.841  0.00  0.00    +0.000 A 
ATOM     10  C   UNL     1       3.293   6.729  17.731  0.00  0.00    +0.000 A 
ATOM     11  C   UNL     1       2.527   7.240  18.802  0.00  0.00    +0.000 A 
ENDROOT
BRANCH   1  12
ATOM     12  C   UNL     1       1.470   9.557  18.209  0.00  0.00    +0.000 C 
ATOM     13  O   UNL     1       2.236  10.502  18.067  0.00  0.00    +0.000 OA
BRANCH  12  14
ATOM     14  O   UNL     1       0.225   9.504  17.654  0.00  0.00    +0.000 OA
BRANCH  14  16
ATOM     15  C   UNL     1      -2.057  10.186  17.552  0.00  0.00    +0.000 C 
ATOM     16  C   UNL     1      -0.682  10.516  18.105  0.00  0.00    +0.000 C 
ENDBRANCH  14  16
ENDBRANCH  12  14
ENDBRANCH   1  12
BRANCH   9  17
ATOM     17  O   UNL     1       4.592   5.134  16.681  0.00  0.00    +0.000 OA
BRANCH  17  18
ATOM     18  C   UNL     1       5.629   5.993  16.217  0.00  0.00    +0.000 C 
BRANCH  18  19
ATOM     19  C   UNL     1       6.933   5.238  15.952  0.00  0.00    +0.000 C 
ATOM     20  N   UNL     1       7.373   4.416  16.947  0.00  0.00    +0.000 N 
ATOM     21  O   UNL     1       7.560   5.336  14.901  0.00  0.00    +0.000 OA
ATOM     22  H   UNL     1       6.941   4.445  17.858  0.00  0.00    +0.000 HD
ATOM     23  H   UNL     1       8.262   3.952  16.822  0.00  0.00    +0.000 HD
ENDBRANCH  18  19
ENDBRANCH  17  18
ENDBRANCH   9  17
TORSDOF 6
ENDMDL
