MODEL 1
REMARK VINA RESULT:      -9.3      0.000      0.000
REMARK  Name = 
REMARK  10 active torsions:
REMARK  status: ('A' for Active; 'I' for Inactive)
REMARK    1  A    between atoms: C_1  and  O_2
REMARK    2  A    between atoms: O_2  and  C_3
REMARK    3  A    between atoms: C_6  and  O_7
REMARK    4  A    between atoms: O_7  and  C_8
REMARK    5  A    between atoms: C_9  and  C_10
REMARK    6  A    between atoms: C_11  and  C_12
REMARK    7  A    between atoms: C_12  and  C_14
REMARK    8  A    between atoms: C_15  and  C_16
REMARK    9  A    between atoms: C_25  and  O_26
REMARK   10  A    between atoms: O_26  and  C_27
REMARK                            x       y       z     vdW  Elec       q    Type
REMARK                         _______ _______ _______ _____ _____    ______ ____
ROOT
ATOM      1  C   UNL     1       2.608   6.561  18.298  0.00  0.00    +0.000 A 
ATOM      2  C   UNL     1       1.768   5.488  18.137  0.00  0.00    +0.000 A 
ATOM      3  C   UNL     1       2.310   4.220  18.386  0.00  0.00    +0.000 A 
ATOM      4  C   UNL     1       2.397   3.203  17.426  0.00  0.00    +0.000 A 
ATOM      5  C   UNL     1       3.098   2.036  17.738  0.00  0.00    +0.000 A 
ATOM      6  C   UNL     1       3.460   1.814  19.063  0.00  0.00    +0.000 A 
ATOM      7  C   UNL     1       3.440   2.889  19.941  0.00  0.00    +0.000 A 
ATOM      8  C   UNL     1       3.242   4.138  19.388  0.00  0.00    +0.000 A 
ATOM      9  N   UNL     1       4.148   5.127  19.461  0.00  0.00    +0.000 NA
ATOM     10  C   UNL     1       3.887   6.261  18.744  0.00  0.00    +0.000 A 
ENDROOT
BRANCH   1  12
ATOM     11  C   UNL     1       1.644   8.749  19.026  0.00  0.00    +0.000 C 
ATOM     12  C   UNL     1       2.153   7.943  18.099  0.00  0.00    +0.000 C 
BRANCH  11  13
ATOM     13  C   UNL     1       1.101  10.072  18.610  0.00  0.00    +0.000 C 
ATOM     14  O   UNL     1       1.823  11.003  18.290  0.00  0.00    +0.000 OA
BRANCH  13  16
ATOM     15  C   UNL     1      -0.998  11.067  17.843  0.00  0.00    +0.000 C 
ATOM     16  C   UNL     1      -0.385  10.158  18.624  0.00  0.00    +0.000 C 
BRANCH  15  21
ATOM     17  C   UNL     1      -4.438  12.034  18.994  0.00  0.00    +0.000 A 
ATOM     18  C   UNL     1      -5.212  11.872  17.842  0.00  0.00    +0.000 A 
ATOM     19  C   UNL     1      -4.631  11.468  16.651  0.00  0.00    +0.000 A 
ATOM     20  C   UNL     1      -3.250  11.192  16.576  0.00  0.00    +0.000 A 
ATOM     21  C   UNL     1      -2.452  11.365  17.729  0.00  0.00    +0.000 A 
ATOM     22  C   UNL     1      -3.069  11.789  18.922  0.00  0.00    +0.000 A 
BRANCH  17  24
ATOM     23  C   UNL     1      -6.307  13.204  19.892  0.00  0.00    +0.000 C 
ATOM     24  O   UNL     1      -5.133  12.430  20.104  0.00  0.00    +0.000 OA
ENDBRANCH  17  24
BRANCH  20  25
ATOM     25  O   UNL     1      -2.654  10.764  15.422  0.00  0.00    +0.000 OA
ATOM     26  C   UNL     1      -3.504  10.163  14.445  0.00  0.00    +0.000 C 
ENDBRANCH  20  25
ENDBRANCH  15  21
ENDBRANCH  13  16
ENDBRANCH  11  13
ENDBRANCH   1  12
BRANCH  10  27
ATOM     27  O   UNL     1       4.896   6.789  17.909  0.00  0.00    +0.000 OA
BRANCH  27  28
ATOM     28  C   UNL     1       5.609   6.019  17.034  0.00  0.00    +0.000 A 
ATOM     29  C   UNL     1       6.846   5.568  17.520  0.00  0.00    +0.000 A 
ATOM     30  C   UNL     1       7.598   4.646  16.794  0.00  0.00    +0.000 A 
ATOM     31  C   UNL     1       7.126   4.186  15.570  0.00  0.00    +0.000 A 
ATOM     32  C   UNL     1       5.927   4.681  15.061  0.00  0.00    +0.000 A 
ATOM     33 CL   UNL     1       5.345   4.130  13.541  0.00  0.00    +0.000 Cl
ATOM     34  C   UNL     1       5.170   5.600  15.785  0.00  0.00    +0.000 A 
ENDBRANCH  27  28
ENDBRANCH  10  27
TORSDOF 8
ENDMDL
MODEL 2
REMARK VINA RESULT:      -8.9      2.050      2.999
REMARK  Name = 
REMARK  10 active torsions:
REMARK  status: ('A' for Active; 'I' for Inactive)
REMARK    1  A    between atoms: C_1  and  O_2
REMARK    2  A    between atoms: O_2  and  C_3
REMARK    3  A    between atoms: C_6  and  O_7
REMARK    4  A    between atoms: O_7  and  C_8
REMARK    5  A    between atoms: C_9  and  C_10
REMARK    6  A    between atoms: C_11  and  C_12
REMARK    7  A    between atoms: C_12  and  C_14
REMARK    8  A    between atoms: C_15  and  C_16
REMARK    9  A    between atoms: C_25  and  O_26
REMARK   10  A    between atoms: O_26  and  C_27
REMARK                            x       y       z     vdW  Elec       q    Type
REMARK                         _______ _______ _______ _____ _____    ______ ____
ROOT
ATOM      1  C   UNL     1       2.452   6.406  18.295  0.00  0.00    +0.000 A 
ATOM      2  C   UNL     1       1.675   5.346  17.897  0.00  0.00    +0.000 A 
ATOM      3  C   UNL     1       2.116   4.068  18.264  0.00  0.00    +0.000 A 
ATOM      4  C   UNL     1       2.450   3.061  17.350  0.00  0.00    +0.000 A 
ATOM      5  C   UNL     1       3.028   1.881  17.822  0.00  0.00    +0.000 A 
ATOM      6  C   UNL     1       3.014   1.638  19.192  0.00  0.00    +0.000 A 
ATOM      7  C   UNL     1       2.768   2.704  20.048  0.00  0.00    +0.000 A 
ATOM      8  C   UNL     1       2.740   3.962  19.480  0.00  0.00    +0.000 A 
ATOM      9  N   UNL     1       3.603   4.937  19.811  0.00  0.00    +0.000 NA
ATOM     10  C   UNL     1       3.558   6.082  19.067  0.00  0.00    +0.000 A 
ENDROOT
BRANCH   1  12
ATOM     11  C   UNL     1       1.906   8.772  18.887  0.00  0.00    +0.000 C 
ATOM     12  C   UNL     1       2.082   7.796  18.001  0.00  0.00    +0.000 C 
BRANCH  11  13
ATOM     13  C   UNL     1       1.389  10.087  18.415  0.00  0.00    +0.000 C 
ATOM     14  O   UNL     1       1.991  10.772  17.602  0.00  0.00    +0.000 OA
BRANCH  13  16
ATOM     15  C   UNL     1       0.089  11.128  20.206  0.00  0.00    +0.000 C 
ATOM     16  C   UNL     1       0.092  10.490  19.021  0.00  0.00    +0.000 C 
BRANCH  15  21
ATOM     17  C   UNL     1      -3.232  12.731  20.910  0.00  0.00    +0.000 A 
ATOM     18  C   UNL     1      -3.335  12.642  22.300  0.00  0.00    +0.000 A 
ATOM     19  C   UNL     1      -2.339  12.035  23.046  0.00  0.00    +0.000 A 
ATOM     20  C   UNL     1      -1.187  11.509  22.424  0.00  0.00    +0.000 A 
ATOM     21  C   UNL     1      -1.075  11.579  21.017  0.00  0.00    +0.000 A 
ATOM     22  C   UNL     1      -2.111  12.191  20.285  0.00  0.00    +0.000 A 
BRANCH  17  24
ATOM     23  C   UNL     1      -4.647  14.641  20.788  0.00  0.00    +0.000 C 
ATOM     24  O   UNL     1      -4.279  13.360  20.293  0.00  0.00    +0.000 OA
ENDBRANCH  17  24
BRANCH  20  25
ATOM     25  O   UNL     1      -0.174  10.930  23.136  0.00  0.00    +0.000 OA
ATOM     26  C   UNL     1      -0.229   9.511  23.293  0.00  0.00    +0.000 C 
ENDBRANCH  20  25
ENDBRANCH  15  21
ENDBRANCH  13  16
ENDBRANCH  11  13
ENDBRANCH   1  12
BRANCH  10  27
ATOM     27  O   UNL     1       4.761   6.606  18.545  0.00  0.00    +0.000 OA
BRANCH  27  28
ATOM     28  C   UNL     1       5.545   5.917  17.662  0.00  0.00    +0.000 A 
ATOM     29  C   UNL     1       6.774   5.483  18.183  0.00  0.00    +0.000 A 
ATOM     30  C   UNL     1       7.597   4.635  17.442  0.00  0.00    +0.000 A 
ATOM     31  C   UNL     1       7.202   4.234  16.171  0.00  0.00    +0.000 A 
ATOM     32  C   UNL     1       6.010   4.715  15.633  0.00  0.00    +0.000 A 
ATOM     33 CL   UNL     1       5.524   4.237  14.055  0.00  0.00    +0.000 Cl
ATOM     34  C   UNL     1       5.183   5.560  16.371  0.00  0.00    +0.000 A 
ENDBRANCH  27  28
ENDBRANCH  10  27
TORSDOF 8
ENDMDL
MODEL 3
REMARK VINA RESULT:      -8.8      1.380      2.742
REMARK  Name = 
REMARK  10 active torsions:
REMARK  status: ('A' for Active; 'I' for Inactive)
REMARK    1  A    between atoms: C_1  and  O_2
REMARK    2  A    between atoms: O_2  and  C_3
REMARK    3  A    between atoms: C_6  and  O_7
REMARK    4  A    between atoms: O_7  and  C_8
REMARK    5  A    between atoms: C_9  and  C_10
REMARK    6  A    between atoms: C_11  and  C_12
REMARK    7  A    between atoms: C_12  and  C_14
REMARK    8  A    between atoms: C_15  and  C_16
REMARK    9  A    between atoms: C_25  and  O_26
REMARK   10  A    between atoms: O_26  and  C_27
REMARK                            x       y       z     vdW  Elec       q    Type
REMARK                         _______ _______ _______ _____ _____    ______ ____
ROOT
ATOM      1  C   UNL     1       2.179   6.702  19.774  0.00  0.00    +0.000 A 
ATOM      2  C   UNL     1       1.325   5.786  20.335  0.00  0.00    +0.000 A 
ATOM      3  C   UNL     1       1.697   4.438  20.244  0.00  0.00    +0.000 A 
ATOM      4  C   UNL     1       0.943   3.459  19.584  0.00  0.00    +0.000 A 
ATOM      5  C   UNL     1       1.486   2.183  19.419  0.00  0.00    +0.000 A 
ATOM      6  C   UNL     1       2.634   1.853  20.133  0.00  0.00    +0.000 A 
ATOM      7  C   UNL     1       3.386   2.882  20.683  0.00  0.00    +0.000 A 
ATOM      8  C   UNL     1       3.039   4.168  20.320  0.00  0.00    +0.000 A 
ATOM      9  N   UNL     1       3.867   4.993  19.658  0.00  0.00    +0.000 NA
ATOM     10  C   UNL     1       3.344   6.182  19.231  0.00  0.00    +0.000 A 
ENDROOT
BRANCH   1  12
ATOM     11  C   UNL     1       1.083   8.766  20.660  0.00  0.00    +0.000 C 
ATOM     12  C   UNL     1       1.918   8.146  19.831  0.00  0.00    +0.000 C 
BRANCH  11  13
ATOM     13  C   UNL     1       0.838  10.224  20.476  0.00  0.00    +0.000 C 
ATOM     14  O   UNL     1       1.266  11.062  21.254  0.00  0.00    +0.000 OA
BRANCH  13  16
ATOM     15  C   UNL     1      -1.314  10.478  19.340  0.00  0.00    +0.000 C 
ATOM     16  C   UNL     1       0.028  10.564  19.274  0.00  0.00    +0.000 C 
BRANCH  15  21
ATOM     17  C   UNL     1      -2.748  10.447  15.870  0.00  0.00    +0.000 A 
ATOM     18  C   UNL     1      -3.949  11.143  16.021  0.00  0.00    +0.000 A 
ATOM     19  C   UNL     1      -4.339  11.621  17.261  0.00  0.00    +0.000 A 
ATOM     20  C   UNL     1      -3.526  11.433  18.398  0.00  0.00    +0.000 A 
ATOM     21  C   UNL     1      -2.314  10.718  18.264  0.00  0.00    +0.000 A 
ATOM     22  C   UNL     1      -1.950  10.234  16.992  0.00  0.00    +0.000 A 
BRANCH  17  24
ATOM     23  C   UNL     1      -3.573   9.949  13.694  0.00  0.00    +0.000 C 
ATOM     24  O   UNL     1      -2.476  10.036  14.594  0.00  0.00    +0.000 OA
ENDBRANCH  17  24
BRANCH  20  25
ATOM     25  O   UNL     1      -3.870  11.917  19.629  0.00  0.00    +0.000 OA
ATOM     26  C   UNL     1      -4.920  12.885  19.668  0.00  0.00    +0.000 C 
ENDBRANCH  20  25
ENDBRANCH  15  21
ENDBRANCH  13  16
ENDBRANCH  11  13
ENDBRANCH   1  12
BRANCH  10  27
ATOM     27  O   UNL     1       3.544   6.574  17.889  0.00  0.00    +0.000 OA
BRANCH  27  28
ATOM     28  C   UNL     1       4.691   6.291  17.201  0.00  0.00    +0.000 A 
ATOM     29  C   UNL     1       5.817   7.023  17.608  0.00  0.00    +0.000 A 
ATOM     30  C   UNL     1       7.080   6.721  17.101  0.00  0.00    +0.000 A 
ATOM     31  C   UNL     1       7.219   5.698  16.170  0.00  0.00    +0.000 A 
ATOM     32  C   UNL     1       6.092   5.013  15.722  0.00  0.00    +0.000 A 
ATOM     33 CL   UNL     1       6.253   3.759  14.558  0.00  0.00    +0.000 Cl
ATOM     34  C   UNL     1       4.828   5.310  16.229  0.00  0.00    +0.000 A 
ENDBRANCH  27  28
ENDBRANCH  10  27
TORSDOF 8
ENDMDL
MODEL 4
REMARK VINA RESULT:      -8.7      1.190      2.176
REMARK  Name = 
REMARK  10 active torsions:
REMARK  status: ('A' for Active; 'I' for Inactive)
REMARK    1  A    between atoms: C_1  and  O_2
REMARK    2  A    between atoms: O_2  and  C_3
REMARK    3  A    between atoms: C_6  and  O_7
REMARK    4  A    between atoms: O_7  and  C_8
REMARK    5  A    between atoms: C_9  and  C_10
REMARK    6  A    between atoms: C_11  and  C_12
REMARK    7  A    between atoms: C_12  and  C_14
REMARK    8  A    between atoms: C_15  and  C_16
REMARK    9  A    between atoms: C_25  and  O_26
REMARK   10  A    between atoms: O_26  and  C_27
REMARK                            x       y       z     vdW  Elec       q    Type
REMARK                         _______ _______ _______ _____ _____    ______ ____
ROOT
ATOM      1  C   UNL     1       2.636   6.576  18.348  0.00  0.00    +0.000 A 
ATOM      2  C   UNL     1       1.798   5.495  18.231  0.00  0.00    +0.000 A 
ATOM      3  C   UNL     1       2.365   4.231  18.438  0.00  0.00    +0.000 A 
ATOM      4  C   UNL     1       2.405   3.221  17.468  0.00  0.00    +0.000 A 
ATOM      5  C   UNL     1       3.134   2.059  17.730  0.00  0.00    +0.000 A 
ATOM      6  C   UNL     1       3.576   1.832  19.030  0.00  0.00    +0.000 A 
ATOM      7  C   UNL     1       3.597   2.901  19.915  0.00  0.00    +0.000 A 
ATOM      8  C   UNL     1       3.355   4.152  19.383  0.00  0.00    +0.000 A 
ATOM      9  N   UNL     1       4.255   5.149  19.409  0.00  0.00    +0.000 NA
ATOM     10  C   UNL     1       3.941   6.285  18.716  0.00  0.00    +0.000 A 
ENDROOT
BRANCH   1  12
ATOM     11  C   UNL     1       1.615   8.719  19.130  0.00  0.00    +0.000 C 
ATOM     12  C   UNL     1       2.157   7.954  18.186  0.00  0.00    +0.000 C 
BRANCH  11  13
ATOM     13  C   UNL     1       1.053  10.044  18.746  0.00  0.00    +0.000 C 
ATOM     14  O   UNL     1       1.690  10.863  18.103  0.00  0.00    +0.000 OA
BRANCH  13  16
ATOM     15  C   UNL     1      -1.058  11.277  18.668  0.00  0.00    +0.000 C 
ATOM     16  C   UNL     1      -0.339  10.280  19.217  0.00  0.00    +0.000 C 
BRANCH  15  21
ATOM     17  C   UNL     1      -4.732  11.872  18.172  0.00  0.00    +0.000 A 
ATOM     18  C   UNL     1      -5.095  12.572  19.325  0.00  0.00    +0.000 A 
ATOM     19  C   UNL     1      -4.160  12.849  20.309  0.00  0.00    +0.000 A 
ATOM     20  C   UNL     1      -2.816  12.447  20.164  0.00  0.00    +0.000 A 
ATOM     21  C   UNL     1      -2.436  11.726  19.009  0.00  0.00    +0.000 A 
ATOM     22  C   UNL     1      -3.412  11.450  18.032  0.00  0.00    +0.000 A 
BRANCH  17  24
ATOM     23  C   UNL     1      -6.770  12.657  17.226  0.00  0.00    +0.000 C 
ATOM     24  O   UNL     1      -5.746  11.671  17.277  0.00  0.00    +0.000 OA
ENDBRANCH  17  24
BRANCH  20  25
ATOM     25  O   UNL     1      -1.864  12.730  21.104  0.00  0.00    +0.000 OA
ATOM     26  C   UNL     1      -2.089  12.221  22.419  0.00  0.00    +0.000 C 
ENDBRANCH  20  25
ENDBRANCH  15  21
ENDBRANCH  13  16
ENDBRANCH  11  13
ENDBRANCH   1  12
BRANCH  10  27
ATOM     27  O   UNL     1       4.894   6.829  17.827  0.00  0.00    +0.000 OA
BRANCH  27  28
ATOM     28  C   UNL     1       5.606   6.061  16.948  0.00  0.00    +0.000 A 
ATOM     29  C   UNL     1       6.858   5.635  17.418  0.00  0.00    +0.000 A 
ATOM     30  C   UNL     1       7.613   4.719  16.688  0.00  0.00    +0.000 A 
ATOM     31  C   UNL     1       7.129   4.239  15.477  0.00  0.00    +0.000 A 
ATOM     32  C   UNL     1       5.914   4.710  14.983  0.00  0.00    +0.000 A 
ATOM     33 CL   UNL     1       5.317   4.135  13.477  0.00  0.00    +0.000 Cl
ATOM     34  C   UNL     1       5.154   5.623  15.711  0.00  0.00    +0.000 A 
ENDBRANCH  27  28
ENDBRANCH  10  27
TORSDOF 8
ENDMDL
MODEL 5
REMARK VINA RESULT:      -8.7      1.453      1.837
REMARK  Name = 
REMARK  10 active torsions:
REMARK  status: ('A' for Active; 'I' for Inactive)
REMARK    1  A    between atoms: C_1  and  O_2
REMARK    2  A    between atoms: O_2  and  C_3
REMARK    3  A    between atoms: C_6  and  O_7
REMARK    4  A    between atoms: O_7  and  C_8
REMARK    5  A    between atoms: C_9  and  C_10
REMARK    6  A    between atoms: C_11  and  C_12
REMARK    7  A    between atoms: C_12  and  C_14
REMARK    8  A    between atoms: C_15  and  C_16
REMARK    9  A    between atoms: C_25  and  O_26
REMARK   10  A    between atoms: O_26  and  C_27
REMARK                            x       y       z     vdW  Elec       q    Type
REMARK                         _______ _______ _______ _____ _____    ______ ____
ROOT
ATOM      1  C   UNL     1       2.604   6.280  18.809  0.00  0.00    +0.000 A 
ATOM      2  C   UNL     1       1.751   5.246  18.515  0.00  0.00    +0.000 A 
ATOM      3  C   UNL     1       2.287   3.952  18.564  0.00  0.00    +0.000 A 
ATOM      4  C   UNL     1       2.344   3.085  17.466  0.00  0.00    +0.000 A 
ATOM      5  C   UNL     1       3.042   1.882  17.588  0.00  0.00    +0.000 A 
ATOM      6  C   UNL     1       3.432   1.468  18.858  0.00  0.00    +0.000 A 
ATOM      7  C   UNL     1       3.441   2.404  19.882  0.00  0.00    +0.000 A 
ATOM      8  C   UNL     1       3.241   3.722  19.521  0.00  0.00    +0.000 A 
ATOM      9  N   UNL     1       4.158   4.684  19.715  0.00  0.00    +0.000 NA
ATOM     10  C   UNL     1       3.890   5.912  19.176  0.00  0.00    +0.000 A 
ENDROOT
BRANCH   1  12
ATOM     11  C   UNL     1       1.973   8.461  17.764  0.00  0.00    +0.000 C 
ATOM     12  C   UNL     1       2.156   7.679  18.824  0.00  0.00    +0.000 C 
BRANCH  11  13
ATOM     13  C   UNL     1       1.654   9.900  17.979  0.00  0.00    +0.000 C 
ATOM     14  O   UNL     1       2.436  10.793  17.692  0.00  0.00    +0.000 OA
BRANCH  13  16
ATOM     15  C   UNL     1      -0.166  11.408  18.613  0.00  0.00    +0.000 C 
ATOM     16  C   UNL     1       0.313  10.150  18.574  0.00  0.00    +0.000 C 
BRANCH  15  21
ATOM     17  C   UNL     1      -2.441  12.961  21.163  0.00  0.00    +0.000 A 
ATOM     18  C   UNL     1      -3.706  12.804  20.592  0.00  0.00    +0.000 A 
ATOM     19  C   UNL     1      -3.853  12.211  19.349  0.00  0.00    +0.000 A 
ATOM     20  C   UNL     1      -2.732  11.735  18.637  0.00  0.00    +0.000 A 
ATOM     21  C   UNL     1      -1.444  11.899  19.196  0.00  0.00    +0.000 A 
ATOM     22  C   UNL     1      -1.327  12.516  20.456  0.00  0.00    +0.000 A 
BRANCH  17  24
ATOM     23  C   UNL     1      -1.293  13.332  23.215  0.00  0.00    +0.000 C 
ATOM     24  O   UNL     1      -2.435  13.553  22.396  0.00  0.00    +0.000 OA
ENDBRANCH  17  24
BRANCH  20  25
ATOM     25  O   UNL     1      -2.847  11.120  17.421  0.00  0.00    +0.000 OA
ATOM     26  C   UNL     1      -3.287   9.761  17.429  0.00  0.00    +0.000 C 
ENDBRANCH  20  25
ENDBRANCH  15  21
ENDBRANCH  13  16
ENDBRANCH  11  13
ENDBRANCH   1  12
BRANCH  10  27
ATOM     27  O   UNL     1       4.884   6.551  18.403  0.00  0.00    +0.000 OA
BRANCH  27  28
ATOM     28  C   UNL     1       5.594   5.902  17.432  0.00  0.00    +0.000 A 
ATOM     29  C   UNL     1       6.891   5.519  17.809  0.00  0.00    +0.000 A 
ATOM     30  C   UNL     1       7.662   4.713  16.973  0.00  0.00    +0.000 A 
ATOM     31  C   UNL     1       7.148   4.302  15.749  0.00  0.00    +0.000 A 
ATOM     32  C   UNL     1       5.884   4.733  15.351  0.00  0.00    +0.000 A 
ATOM     33 CL   UNL     1       5.247   4.244  13.831  0.00  0.00    +0.000 Cl
ATOM     34  C   UNL     1       5.108   5.537  16.185  0.00  0.00    +0.000 A 
ENDBRANCH  27  28
ENDBRANCH  10  27
TORSDOF 8
ENDMDL
MODEL 6
REMARK VINA RESULT:      -8.6      1.676      2.073
REMARK  Name = 
REMARK  10 active torsions:
REMARK  status: ('A' for Active; 'I' for Inactive)
REMARK    1  A    between atoms: C_1  and  O_2
REMARK    2  A    between atoms: O_2  and  C_3
REMARK    3  A    between atoms: C_6  and  O_7
REMARK    4  A    between atoms: O_7  and  C_8
REMARK    5  A    between atoms: C_9  and  C_10
REMARK    6  A    between atoms: C_11  and  C_12
REMARK    7  A    between atoms: C_12  and  C_14
REMARK    8  A    between atoms: C_15  and  C_16
REMARK    9  A    between atoms: C_25  and  O_26
REMARK   10  A    between atoms: O_26  and  C_27
REMARK                            x       y       z     vdW  Elec       q    Type
REMARK                         _______ _______ _______ _____ _____    ______ ____
ROOT
ATOM      1  C   UNL     1       2.694   6.562  18.409  0.00  0.00    +0.000 A 
ATOM      2  C   UNL     1       1.836   5.502  18.254  0.00  0.00    +0.000 A 
ATOM      3  C   UNL     1       2.371   4.222  18.450  0.00  0.00    +0.000 A 
ATOM      4  C   UNL     1       2.411   3.229  17.464  0.00  0.00    +0.000 A 
ATOM      5  C   UNL     1       3.109   2.047  17.720  0.00  0.00    +0.000 A 
ATOM      6  C   UNL     1       3.518   1.788  19.025  0.00  0.00    +0.000 A 
ATOM      7  C   UNL     1       3.543   2.841  19.929  0.00  0.00    +0.000 A 
ATOM      8  C   UNL     1       3.339   4.106  19.415  0.00  0.00    +0.000 A 
ATOM      9  N   UNL     1       4.259   5.082  19.478  0.00  0.00    +0.000 NA
ATOM     10  C   UNL     1       3.985   6.236  18.799  0.00  0.00    +0.000 A 
ENDROOT
BRANCH   1  12
ATOM     11  C   UNL     1       1.622   8.684  19.180  0.00  0.00    +0.000 C 
ATOM     12  C   UNL     1       2.248   7.953  18.261  0.00  0.00    +0.000 C 
BRANCH  11  13
ATOM     13  C   UNL     1       1.115  10.033  18.802  0.00  0.00    +0.000 C 
ATOM     14  O   UNL     1       1.785  10.827  18.160  0.00  0.00    +0.000 OA
BRANCH  13  16
ATOM     15  C   UNL     1      -0.542  11.543  19.780  0.00  0.00    +0.000 C 
ATOM     16  C   UNL     1      -0.264  10.326  19.276  0.00  0.00    +0.000 C 
BRANCH  15  21
ATOM     17  C   UNL     1      -2.939  12.686  22.434  0.00  0.00    +0.000 A 
ATOM     18  C   UNL     1      -4.129  12.865  21.726  0.00  0.00    +0.000 A 
ATOM     19  C   UNL     1      -4.180  12.644  20.359  0.00  0.00    +0.000 A 
ATOM     20  C   UNL     1      -3.037  12.215  19.653  0.00  0.00    +0.000 A 
ATOM     21  C   UNL     1      -1.821  12.042  20.353  0.00  0.00    +0.000 A 
ATOM     22  C   UNL     1      -1.799  12.287  21.740  0.00  0.00    +0.000 A 
BRANCH  17  24
ATOM     23  C   UNL     1      -4.214  12.514  24.436  0.00  0.00    +0.000 C 
ATOM     24  O   UNL     1      -3.025  12.929  23.777  0.00  0.00    +0.000 OA
ENDBRANCH  17  24
BRANCH  20  25
ATOM     25  O   UNL     1      -3.063  11.961  18.309  0.00  0.00    +0.000 OA
ATOM     26  C   UNL     1      -3.814  10.822  17.887  0.00  0.00    +0.000 C 
ENDBRANCH  20  25
ENDBRANCH  15  21
ENDBRANCH  13  16
ENDBRANCH  11  13
ENDBRANCH   1  12
BRANCH  10  27
ATOM     27  O   UNL     1       4.968   6.775  17.941  0.00  0.00    +0.000 OA
BRANCH  27  28
ATOM     28  C   UNL     1       5.657   6.014  17.039  0.00  0.00    +0.000 A 
ATOM     29  C   UNL     1       6.888   5.525  17.501  0.00  0.00    +0.000 A 
ATOM     30  C   UNL     1       7.615   4.607  16.744  0.00  0.00    +0.000 A 
ATOM     31  C   UNL     1       7.124   4.190  15.512  0.00  0.00    +0.000 A 
ATOM     32  C   UNL     1       5.931   4.724  15.028  0.00  0.00    +0.000 A 
ATOM     33 CL   UNL     1       5.325   4.227  13.498  0.00  0.00    +0.000 Cl
ATOM     34  C   UNL     1       5.199   5.639  15.783  0.00  0.00    +0.000 A 
ENDBRANCH  27  28
ENDBRANCH  10  27
TORSDOF 8
ENDMDL
MODEL 7
REMARK VINA RESULT:      -8.6      6.604     10.370
REMARK  Name = 
REMARK  10 active torsions:
REMARK  status: ('A' for Active; 'I' for Inactive)
REMARK    1  A    between atoms: C_1  and  O_2
REMARK    2  A    between atoms: O_2  and  C_3
REMARK    3  A    between atoms: C_6  and  O_7
REMARK    4  A    between atoms: O_7  and  C_8
REMARK    5  A    between atoms: C_9  and  C_10
REMARK    6  A    between atoms: C_11  and  C_12
REMARK    7  A    between atoms: C_12  and  C_14
REMARK    8  A    between atoms: C_15  and  C_16
REMARK    9  A    between atoms: C_25  and  O_26
REMARK   10  A    between atoms: O_26  and  C_27
REMARK                            x       y       z     vdW  Elec       q    Type
REMARK                         _______ _______ _______ _____ _____    ______ ____
ROOT
ATOM      1  C   UNL     1       9.233  10.860  18.615  0.00  0.00    +0.000 A 
ATOM      2  C   UNL     1       8.492  11.685  17.806  0.00  0.00    +0.000 A 
ATOM      3  C   UNL     1       8.904  13.022  17.722  0.00  0.00    +0.000 A 
ATOM      4  C   UNL     1       8.113  14.112  18.108  0.00  0.00    +0.000 A 
ATOM      5  C   UNL     1       8.682  15.387  18.130  0.00  0.00    +0.000 A 
ATOM      6  C   UNL     1       9.922  15.571  17.527  0.00  0.00    +0.000 A 
ATOM      7  C   UNL     1      10.695  14.450  17.256  0.00  0.00    +0.000 A 
ATOM      8  C   UNL     1      10.255  13.251  17.777  0.00  0.00    +0.000 A 
ATOM      9  N   UNL     1      10.960  12.533  18.667  0.00  0.00    +0.000 NA
ATOM     10  C   UNL     1      10.341  11.443  19.212  0.00  0.00    +0.000 A 
ENDROOT
BRANCH   1  12
ATOM     11  C   UNL     1       8.186   8.694  17.938  0.00  0.00    +0.000 C 
ATOM     12  C   UNL     1       8.923   9.432  18.763  0.00  0.00    +0.000 C 
BRANCH  11  13
ATOM     13  C   UNL     1       7.859   7.293  18.326  0.00  0.00    +0.000 C 
ATOM     14  O   UNL     1       8.640   6.586  18.943  0.00  0.00    +0.000 OA
BRANCH  13  16
ATOM     15  C   UNL     1       6.026   5.674  18.371  0.00  0.00    +0.000 C 
ATOM     16  C   UNL     1       6.510   6.836  17.894  0.00  0.00    +0.000 C 
BRANCH  15  21
ATOM     17  C   UNL     1       2.456   4.611  18.838  0.00  0.00    +0.000 A 
ATOM     18  C   UNL     1       2.240   3.753  17.757  0.00  0.00    +0.000 A 
ATOM     19  C   UNL     1       3.242   3.515  16.830  0.00  0.00    +0.000 A 
ATOM     20  C   UNL     1       4.510   4.118  16.965  0.00  0.00    +0.000 A 
ATOM     21  C   UNL     1       4.739   5.000  18.046  0.00  0.00    +0.000 A 
ATOM     22  C   UNL     1       3.697   5.230  18.965  0.00  0.00    +0.000 A 
BRANCH  17  24
ATOM     23  C   UNL     1       1.509   5.719  20.719  0.00  0.00    +0.000 C 
ATOM     24  O   UNL     1       1.390   4.753  19.682  0.00  0.00    +0.000 OA
ENDBRANCH  17  24
BRANCH  20  25
ATOM     25  O   UNL     1       5.528   3.882  16.084  0.00  0.00    +0.000 OA
ATOM     26  C   UNL     1       5.459   4.557  14.827  0.00  0.00    +0.000 C 
ENDBRANCH  20  25
ENDBRANCH  15  21
ENDBRANCH  13  16
ENDBRANCH  11  13
ENDBRANCH   1  12
BRANCH  10  27
ATOM     27  O   UNL     1      10.356  11.278  20.615  0.00  0.00    +0.000 OA
BRANCH  27  28
ATOM     28  C   UNL     1       9.565  12.015  21.453  0.00  0.00    +0.000 A 
ATOM     29  C   UNL     1       9.875  13.383  21.502  0.00  0.00    +0.000 A 
ATOM     30  C   UNL     1       9.050  14.271  22.190  0.00  0.00    +0.000 A 
ATOM     31  C   UNL     1       7.923  13.793  22.848  0.00  0.00    +0.000 A 
ATOM     32  C   UNL     1       7.651  12.426  22.849  0.00  0.00    +0.000 A 
ATOM     33 CL   UNL     1       6.269  11.824  23.674  0.00  0.00    +0.000 Cl
ATOM     34  C   UNL     1       8.471  11.535  22.159  0.00  0.00    +0.000 A 
ENDBRANCH  27  28
ENDBRANCH  10  27
TORSDOF 8
ENDMDL
MODEL 8
REMARK VINA RESULT:      -8.5      3.630      5.979
REMARK  Name = 
REMARK  10 active torsions:
REMARK  status: ('A' for Active; 'I' for Inactive)
REMARK    1  A    between atoms: C_1  and  O_2
REMARK    2  A    between atoms: O_2  and  C_3
REMARK    3  A    between atoms: C_6  and  O_7
REMARK    4  A    between atoms: O_7  and  C_8
REMARK    5  A    between atoms: C_9  and  C_10
REMARK    6  A    between atoms: C_11  and  C_12
REMARK    7  A    between atoms: C_12  and  C_14
REMARK    8  A    between atoms: C_15  and  C_16
REMARK    9  A    between atoms: C_25  and  O_26
REMARK   10  A    between atoms: O_26  and  C_27
REMARK                            x       y       z     vdW  Elec       q    Type
REMARK                         _______ _______ _______ _____ _____    ______ ____
ROOT
ATOM      1  C   UNL     1       1.884   7.569  20.071  0.00  0.00    +0.000 A 
ATOM      2  C   UNL     1       2.070   6.236  20.336  0.00  0.00    +0.000 A 
ATOM      3  C   UNL     1       2.497   5.434  19.269  0.00  0.00    +0.000 A 
ATOM      4  C   UNL     1       1.767   4.352  18.761  0.00  0.00    +0.000 A 
ATOM      5  C   UNL     1       2.211   3.723  17.596  0.00  0.00    +0.000 A 
ATOM      6  C   UNL     1       3.489   4.017  17.129  0.00  0.00    +0.000 A 
ATOM      7  C   UNL     1       4.118   5.158  17.607  0.00  0.00    +0.000 A 
ATOM      8  C   UNL     1       3.352   6.017  18.370  0.00  0.00    +0.000 A 
ATOM      9  N   UNL     1       3.089   7.284  18.010  0.00  0.00    +0.000 NA
ATOM     10  C   UNL     1       2.197   7.974  18.782  0.00  0.00    +0.000 A 
ENDROOT
BRANCH   1  12
ATOM     11  C   UNL     1       0.313   8.519  21.767  0.00  0.00    +0.000 C 
ATOM     12  C   UNL     1       1.470   8.519  21.112  0.00  0.00    +0.000 C 
BRANCH  11  13
ATOM     13  C   UNL     1       0.007   9.649  22.688  0.00  0.00    +0.000 C 
ATOM     14  O   UNL     1       0.355   9.649  23.859  0.00  0.00    +0.000 OA
BRANCH  13  16
ATOM     15  C   UNL     1      -1.281  11.722  22.847  0.00  0.00    +0.000 C 
ATOM     16  C   UNL     1      -0.755  10.763  22.063  0.00  0.00    +0.000 C 
BRANCH  15  21
ATOM     17  C   UNL     1      -2.051  15.093  21.386  0.00  0.00    +0.000 A 
ATOM     18  C   UNL     1      -3.400  15.271  21.702  0.00  0.00    +0.000 A 
ATOM     19  C   UNL     1      -4.105  14.288  22.377  0.00  0.00    +0.000 A 
ATOM     20  C   UNL     1      -3.475  13.092  22.779  0.00  0.00    +0.000 A 
ATOM     21  C   UNL     1      -2.114  12.891  22.455  0.00  0.00    +0.000 A 
ATOM     22  C   UNL     1      -1.427  13.904  21.757  0.00  0.00    +0.000 A 
BRANCH  17  24
ATOM     23  C   UNL     1      -2.342  17.098  20.137  0.00  0.00    +0.000 C 
ATOM     24  O   UNL     1      -1.471  16.141  20.726  0.00  0.00    +0.000 OA
ENDBRANCH  17  24
BRANCH  20  25
ATOM     25  O   UNL     1      -4.136  12.116  23.472  0.00  0.00    +0.000 OA
ATOM     26  C   UNL     1      -4.506  12.423  24.817  0.00  0.00    +0.000 C 
ENDBRANCH  20  25
ENDBRANCH  15  21
ENDBRANCH  13  16
ENDBRANCH  11  13
ENDBRANCH   1  12
BRANCH  10  27
ATOM     27  O   UNL     1       1.136   8.662  18.152  0.00  0.00    +0.000 OA
BRANCH  27  28
ATOM     28  C   UNL     1       0.979  10.017  18.241  0.00  0.00    +0.000 A 
ATOM     29  C   UNL     1      -0.349  10.445  18.391  0.00  0.00    +0.000 A 
ATOM     30  C   UNL     1      -0.636  11.784  18.654  0.00  0.00    +0.000 A 
ATOM     31  C   UNL     1       0.403  12.703  18.749  0.00  0.00    +0.000 A 
ATOM     32  C   UNL     1       1.716  12.286  18.540  0.00  0.00    +0.000 A 
ATOM     33 CL   UNL     1       3.005  13.419  18.638  0.00  0.00    +0.000 Cl
ATOM     34  C   UNL     1       2.007  10.948  18.280  0.00  0.00    +0.000 A 
ENDBRANCH  27  28
ENDBRANCH  10  27
TORSDOF 8
ENDMDL
MODEL 9
REMARK VINA RESULT:      -8.4      1.047      2.403
REMARK  Name = 
REMARK  10 active torsions:
REMARK  status: ('A' for Active; 'I' for Inactive)
REMARK    1  A    between atoms: C_1  and  O_2
REMARK    2  A    between atoms: O_2  and  C_3
REMARK    3  A    between atoms: C_6  and  O_7
REMARK    4  A    between atoms: O_7  and  C_8
REMARK    5  A    between atoms: C_9  and  C_10
REMARK    6  A    between atoms: C_11  and  C_12
REMARK    7  A    between atoms: C_12  and  C_14
REMARK    8  A    between atoms: C_15  and  C_16
REMARK    9  A    between atoms: C_25  and  O_26
REMARK   10  A    between atoms: O_26  and  C_27
REMARK                            x       y       z     vdW  Elec       q    Type
REMARK                         _______ _______ _______ _____ _____    ______ ____
ROOT
ATOM      1  C   UNL     1       2.274   6.171  18.434  0.00  0.00    +0.000 A 
ATOM      2  C   UNL     1       1.579   5.080  17.973  0.00  0.00    +0.000 A 
ATOM      3  C   UNL     1       2.126   3.820  18.252  0.00  0.00    +0.000 A 
ATOM      4  C   UNL     1       2.527   2.905  17.271  0.00  0.00    +0.000 A 
ATOM      5  C   UNL     1       3.203   1.747  17.660  0.00  0.00    +0.000 A 
ATOM      6  C   UNL     1       3.227   1.416  19.012  0.00  0.00    +0.000 A 
ATOM      7  C   UNL     1       2.907   2.400  19.937  0.00  0.00    +0.000 A 
ATOM      8  C   UNL     1       2.772   3.686  19.454  0.00  0.00    +0.000 A 
ATOM      9  N   UNL     1       3.558   4.704  19.841  0.00  0.00    +0.000 NA
ATOM     10  C   UNL     1       3.412   5.888  19.175  0.00  0.00    +0.000 A 
ENDROOT
BRANCH   1  12
ATOM     11  C   UNL     1       2.538   8.635  18.116  0.00  0.00    +0.000 C 
ATOM     12  C   UNL     1       1.790   7.543  18.235  0.00  0.00    +0.000 C 
BRANCH  11  13
ATOM     13  C   UNL     1       1.867   9.965  18.064  0.00  0.00    +0.000 C 
ATOM     14  O   UNL     1       2.434  10.996  18.391  0.00  0.00    +0.000 OA
BRANCH  13  16
ATOM     15  C   UNL     1      -0.436  10.788  18.105  0.00  0.00    +0.000 C 
ATOM     16  C   UNL     1       0.458   9.923  17.589  0.00  0.00    +0.000 C 
BRANCH  15  21
ATOM     17  C   UNL     1      -3.639  10.344  16.198  0.00  0.00    +0.000 A 
ATOM     18  C   UNL     1      -4.563  11.054  16.967  0.00  0.00    +0.000 A 
ATOM     19  C   UNL     1      -4.176  11.677  18.143  0.00  0.00    +0.000 A 
ATOM     20  C   UNL     1      -2.837  11.625  18.582  0.00  0.00    +0.000 A 
ATOM     21  C   UNL     1      -1.892  10.899  17.821  0.00  0.00    +0.000 A 
ATOM     22  C   UNL     1      -2.320  10.266  16.637  0.00  0.00    +0.000 A 
BRANCH  17  24
ATOM     23  C   UNL     1      -3.486  10.087  13.837  0.00  0.00    +0.000 C 
ATOM     24  O   UNL     1      -4.147   9.784  15.058  0.00  0.00    +0.000 OA
ENDBRANCH  17  24
BRANCH  20  25
ATOM     25  O   UNL     1      -2.418  12.254  19.722  0.00  0.00    +0.000 OA
ATOM     26  C   UNL     1      -3.435  12.690  20.624  0.00  0.00    +0.000 C 
ENDBRANCH  20  25
ENDBRANCH  15  21
ENDBRANCH  13  16
ENDBRANCH  11  13
ENDBRANCH   1  12
BRANCH  10  27
ATOM     27  O   UNL     1       4.562   6.540  18.679  0.00  0.00    +0.000 OA
BRANCH  27  28
ATOM     28  C   UNL     1       5.447   5.934  17.832  0.00  0.00    +0.000 A 
ATOM     29  C   UNL     1       6.689   5.621  18.405  0.00  0.00    +0.000 A 
ATOM     30  C   UNL     1       7.622   4.860  17.700  0.00  0.00    +0.000 A 
ATOM     31  C   UNL     1       7.324   4.426  16.414  0.00  0.00    +0.000 A 
ATOM     32  C   UNL     1       6.114   4.790  15.824  0.00  0.00    +0.000 A 
ATOM     33 CL   UNL     1       5.746   4.273  14.227  0.00  0.00    +0.000 Cl
ATOM     34  C   UNL     1       5.178   5.548  16.526  0.00  0.00    +0.000 A 
ENDBRANCH  27  28
ENDBRANCH  10  27
TORSDOF 8
ENDMDL
