MODEL 1
REMARK VINA RESULT:      -8.2      0.000      0.000
REMARK  Name = 
REMARK  7 active torsions:
REMARK  status: ('A' for Active; 'I' for Inactive)
REMARK    1  A    between atoms: C_1  and  N_2
REMARK    2  A    between atoms: N_2  and  C_3
REMARK    3  A    between atoms: C_3  and  C_4
REMARK    4  A    between atoms: C_4  and  C_5
REMARK    5  A    between atoms: C_11  and  C_13
REMARK    6  A    between atoms: C_17  and  C_19
REMARK    7  A    between atoms: C_19  and  N_20
REMARK                            x       y       z     vdW  Elec       q    Type
REMARK                         _______ _______ _______ _____ _____    ______ ____
ROOT
ATOM      1  C   UNL     1       3.619   6.038  18.587  0.00  0.00    +0.000 C 
ATOM      2  C   UNL     1       3.323   6.304  20.064  0.00  0.00    +0.000 C 
ATOM      3  C   UNL     1       1.933   6.896  20.272  0.00  0.00    +0.000 C 
ATOM      4  N   UNL     1       1.748   8.125  19.501  0.00  0.00    +0.000 N 
ATOM      5  C   UNL     1       0.936   9.114  20.060  0.00  0.00    +0.000 C 
ATOM      6  O   UNL     1       0.471   8.993  21.198  0.00  0.00    +0.000 OA
ATOM      7  C   UNL     1       2.048   8.016  18.075  0.00  0.00    +0.000 C 
ATOM      8  C   UNL     1       3.419   7.369  17.820  0.00  0.00    +0.000 C 
ENDROOT
BRANCH   1  11
ATOM      9  C   UNL     1       2.365   2.734  17.054  0.00  0.00    +0.000 C 
ATOM     10  N   UNL     1       3.314   3.697  17.606  0.00  0.00    +0.000 N 
ATOM     11  C   UNL     1       2.769   4.934  17.937  0.00  0.00    +0.000 C 
ATOM     12  O   UNL     1       1.577   5.159  17.691  0.00  0.00    +0.000 OA
BRANCH  10  13
ATOM     13  C   UNL     1       4.733   3.294  17.701  0.00  0.00    +0.000 C 
BRANCH  13  14
ATOM     14  C   UNL     1       5.671   3.996  16.701  0.00  0.00    +0.000 C 
BRANCH  14  15
ATOM     15  C   UNL     1       6.544   5.040  17.355  0.00  0.00    +0.000 A 
ATOM     16  C   UNL     1       6.800   6.257  16.723  0.00  0.00    +0.000 A 
ATOM     17  C   UNL     1       7.572   7.213  17.378  0.00  0.00    +0.000 A 
ATOM     18  C   UNL     1       8.062   6.935  18.650  0.00  0.00    +0.000 A 
ATOM     19  C   UNL     1       7.757   5.703  19.209  0.00  0.00    +0.000 A 
ATOM     20  N   UNL     1       7.016   4.756  18.592  0.00  0.00    +0.000 NA
ENDBRANCH  14  15
ENDBRANCH  13  14
ENDBRANCH  10  13
ENDBRANCH   1  11
BRANCH   5  21
ATOM     21  C   UNL     1       0.683  10.417  19.277  0.00  0.00    +0.000 C 
BRANCH  21  22
ATOM     22  N   UNL     1      -0.619  11.015  19.505  0.00  0.00    +0.000 N 
ATOM     23  C   UNL     1      -0.776  11.988  20.492  0.00  0.00    +0.000 A 
ATOM     24  O   UNL     1       0.063  12.406  21.270  0.00  0.00    +0.000 OA
ATOM     25  S   UNL     1      -2.433  12.615  20.462  0.00  0.00    +0.000 S 
ATOM     26  C   UNL     1      -2.778  11.746  18.965  0.00  0.00    +0.000 A 
ATOM     27  C   UNL     1      -3.928  11.839  18.195  0.00  0.00    +0.000 A 
ATOM     28  C   UNL     1      -3.976  11.139  16.990  0.00  0.00    +0.000 A 
ATOM     29  C   UNL     1      -2.880  10.369  16.583  0.00  0.00    +0.000 A 
ATOM     30 CL   UNL     1      -2.936   9.554  15.068  0.00  0.00    +0.000 Cl
ATOM     31  C   UNL     1      -1.732  10.264  17.376  0.00  0.00    +0.000 A 
ATOM     32  C   UNL     1      -1.691  10.958  18.579  0.00  0.00    +0.000 A 
ENDBRANCH  21  22
ENDBRANCH   5  21
TORSDOF 6
ENDMDL
MODEL 2
REMARK VINA RESULT:      -7.9      3.331      9.863
REMARK  Name = 
REMARK  7 active torsions:
REMARK  status: ('A' for Active; 'I' for Inactive)
REMARK    1  A    between atoms: C_1  and  N_2
REMARK    2  A    between atoms: N_2  and  C_3
REMARK    3  A    between atoms: C_3  and  C_4
REMARK    4  A    between atoms: C_4  and  C_5
REMARK    5  A    between atoms: C_11  and  C_13
REMARK    6  A    between atoms: C_17  and  C_19
REMARK    7  A    between atoms: C_19  and  N_20
REMARK                            x       y       z     vdW  Elec       q    Type
REMARK                         _______ _______ _______ _____ _____    ______ ____
ROOT
ATOM      1  C   UNL     1      -0.587  10.490  20.613  0.00  0.00    +0.000 C 
ATOM      2  C   UNL     1      -0.339   9.243  21.464  0.00  0.00    +0.000 C 
ATOM      3  C   UNL     1       1.062   8.676  21.254  0.00  0.00    +0.000 C 
ATOM      4  N   UNL     1       1.317   8.374  19.846  0.00  0.00    +0.000 N 
ATOM      5  C   UNL     1       2.140   7.281  19.567  0.00  0.00    +0.000 C 
ATOM      6  O   UNL     1       2.557   6.546  20.468  0.00  0.00    +0.000 OA
ATOM      7  C   UNL     1       1.068   9.474  18.918  0.00  0.00    +0.000 C 
ATOM      8  C   UNL     1      -0.313  10.113  19.135  0.00  0.00    +0.000 C 
ENDROOT
BRANCH   1  11
ATOM      9  C   UNL     1       0.684  14.078  21.206  0.00  0.00    +0.000 C 
ATOM     10  N   UNL     1      -0.193  13.014  20.725  0.00  0.00    +0.000 N 
ATOM     11  C   UNL     1       0.250  11.722  20.996  0.00  0.00    +0.000 C 
ATOM     12  O   UNL     1       1.348  11.557  21.543  0.00  0.00    +0.000 OA
BRANCH  10  13
ATOM     13  C   UNL     1      -1.401  13.401  19.967  0.00  0.00    +0.000 C 
BRANCH  13  14
ATOM     14  C   UNL     1      -2.715  13.335  20.768  0.00  0.00    +0.000 C 
BRANCH  14  15
ATOM     15  C   UNL     1      -3.796  12.564  20.050  0.00  0.00    +0.000 A 
ATOM     16  C   UNL     1      -5.101  12.534  20.544  0.00  0.00    +0.000 A 
ATOM     17  C   UNL     1      -6.081  11.849  19.829  0.00  0.00    +0.000 A 
ATOM     18  C   UNL     1      -5.739  11.221  18.637  0.00  0.00    +0.000 A 
ATOM     19  C   UNL     1      -4.420  11.303  18.214  0.00  0.00    +0.000 A 
ATOM     20  N   UNL     1      -3.448  11.955  18.891  0.00  0.00    +0.000 NA
ENDBRANCH  14  15
ENDBRANCH  13  14
ENDBRANCH  10  13
ENDBRANCH   1  11
BRANCH   5  21
ATOM     21  C   UNL     1       2.466   6.935  18.101  0.00  0.00    +0.000 C 
BRANCH  21  22
ATOM     22  N   UNL     1       3.278   5.744  17.928  0.00  0.00    +0.000 N 
ATOM     23  C   UNL     1       2.674   4.531  17.603  0.00  0.00    +0.000 A 
ATOM     24  O   UNL     1       1.485   4.297  17.476  0.00  0.00    +0.000 OA
ATOM     25  S   UNL     1       3.914   3.291  17.342  0.00  0.00    +0.000 S 
ATOM     26  C   UNL     1       5.196   4.501  17.418  0.00  0.00    +0.000 A 
ATOM     27  C   UNL     1       6.546   4.300  17.166  0.00  0.00    +0.000 A 
ATOM     28  C   UNL     1       7.395   5.407  17.187  0.00  0.00    +0.000 A 
ATOM     29  C   UNL     1       6.879   6.680  17.457  0.00  0.00    +0.000 A 
ATOM     30 CL   UNL     1       7.933   8.042  17.427  0.00  0.00    +0.000 Cl
ATOM     31  C   UNL     1       5.521   6.870  17.731  0.00  0.00    +0.000 A 
ATOM     32  C   UNL     1       4.679   5.765  17.715  0.00  0.00    +0.000 A 
ENDBRANCH  21  22
ENDBRANCH   5  21
TORSDOF 6
ENDMDL
MODEL 3
REMARK VINA RESULT:      -7.9      0.927      1.158
REMARK  Name = 
REMARK  7 active torsions:
REMARK  status: ('A' for Active; 'I' for Inactive)
REMARK    1  A    between atoms: C_1  and  N_2
REMARK    2  A    between atoms: N_2  and  C_3
REMARK    3  A    between atoms: C_3  and  C_4
REMARK    4  A    between atoms: C_4  and  C_5
REMARK    5  A    between atoms: C_11  and  C_13
REMARK    6  A    between atoms: C_17  and  C_19
REMARK    7  A    between atoms: C_19  and  N_20
REMARK                            x       y       z     vdW  Elec       q    Type
REMARK                         _______ _______ _______ _____ _____    ______ ____
ROOT
ATOM      1  C   UNL     1       3.352   5.333  19.609  0.00  0.00    +0.000 C 
ATOM      2  C   UNL     1       2.647   5.484  20.957  0.00  0.00    +0.000 C 
ATOM      3  C   UNL     1       1.327   6.238  20.831  0.00  0.00    +0.000 C 
ATOM      4  N   UNL     1       1.513   7.554  20.220  0.00  0.00    +0.000 N 
ATOM      5  C   UNL     1       0.673   8.583  20.651  0.00  0.00    +0.000 C 
ATOM      6  O   UNL     1      -0.129   8.412  21.574  0.00  0.00    +0.000 OA
ATOM      7  C   UNL     1       2.223   7.552  18.943  0.00  0.00    +0.000 C 
ATOM      8  C   UNL     1       3.533   6.751  19.011  0.00  0.00    +0.000 C 
ENDROOT
BRANCH   1  11
ATOM      9  C   UNL     1       2.523   2.773  16.852  0.00  0.00    +0.000 C 
ATOM     10  N   UNL     1       3.347   3.616  17.714  0.00  0.00    +0.000 N 
ATOM     11  C   UNL     1       2.635   4.430  18.591  0.00  0.00    +0.000 C 
ATOM     12  O   UNL     1       1.399   4.442  18.543  0.00  0.00    +0.000 OA
BRANCH  10  13
ATOM     13  C   UNL     1       4.813   3.568  17.533  0.00  0.00    +0.000 C 
BRANCH  13  14
ATOM     14  C   UNL     1       5.381   4.633  16.576  0.00  0.00    +0.000 C 
BRANCH  14  15
ATOM     15  C   UNL     1       6.328   5.587  17.264  0.00  0.00    +0.000 A 
ATOM     16  C   UNL     1       7.024   5.202  18.410  0.00  0.00    +0.000 A 
ATOM     17  C   UNL     1       7.923   6.094  18.990  0.00  0.00    +0.000 A 
ATOM     18  C   UNL     1       8.111   7.344  18.408  0.00  0.00    +0.000 A 
ATOM     19  C   UNL     1       7.383   7.645  17.267  0.00  0.00    +0.000 A 
ATOM     20  N   UNL     1       6.500   6.801  16.688  0.00  0.00    +0.000 NA
ENDBRANCH  14  15
ENDBRANCH  13  14
ENDBRANCH  10  13
ENDBRANCH   1  11
BRANCH   5  21
ATOM     21  C   UNL     1       0.806   9.982  20.018  0.00  0.00    +0.000 C 
BRANCH  21  22
ATOM     22  N   UNL     1      -0.375  10.817  20.145  0.00  0.00    +0.000 N 
ATOM     23  C   UNL     1      -0.396  11.857  21.072  0.00  0.00    +0.000 A 
ATOM     24  O   UNL     1       0.469  12.163  21.874  0.00  0.00    +0.000 OA
ATOM     25  S   UNL     1      -1.909  12.768  20.921  0.00  0.00    +0.000 S 
ATOM     26  C   UNL     1      -2.338  11.889  19.452  0.00  0.00    +0.000 A 
ATOM     27  C   UNL     1      -3.417  12.141  18.616  0.00  0.00    +0.000 A 
ATOM     28  C   UNL     1      -3.536  11.392  17.446  0.00  0.00    +0.000 A 
ATOM     29  C   UNL     1      -2.581  10.415  17.138  0.00  0.00    +0.000 A 
ATOM     30 CL   UNL     1      -2.716   9.536  15.664  0.00  0.00    +0.000 Cl
ATOM     31  C   UNL     1      -1.509  10.153  17.998  0.00  0.00    +0.000 A 
ATOM     32  C   UNL     1      -1.396  10.897  19.165  0.00  0.00    +0.000 A 
ENDBRANCH  21  22
ENDBRANCH   5  21
TORSDOF 6
ENDMDL
MODEL 4
REMARK VINA RESULT:      -7.8      3.903     10.231
REMARK  Name = 
REMARK  7 active torsions:
REMARK  status: ('A' for Active; 'I' for Inactive)
REMARK    1  A    between atoms: C_1  and  N_2
REMARK    2  A    between atoms: N_2  and  C_3
REMARK    3  A    between atoms: C_3  and  C_4
REMARK    4  A    between atoms: C_4  and  C_5
REMARK    5  A    between atoms: C_11  and  C_13
REMARK    6  A    between atoms: C_17  and  C_19
REMARK    7  A    between atoms: C_19  and  N_20
REMARK                            x       y       z     vdW  Elec       q    Type
REMARK                         _______ _______ _______ _____ _____    ______ ____
ROOT
ATOM      1  C   UNL     1      -0.606  10.906  19.722  0.00  0.00    +0.000 C 
ATOM      2  C   UNL     1      -0.438   9.770  20.732  0.00  0.00    +0.000 C 
ATOM      3  C   UNL     1       0.954   9.149  20.670  0.00  0.00    +0.000 C 
ATOM      4  N   UNL     1       1.272   8.668  19.326  0.00  0.00    +0.000 N 
ATOM      5  C   UNL     1       2.075   7.531  19.229  0.00  0.00    +0.000 C 
ATOM      6  O   UNL     1       2.425   6.904  20.234  0.00  0.00    +0.000 OA
ATOM      7  C   UNL     1       1.103   9.650  18.257  0.00  0.00    +0.000 C 
ATOM      8  C   UNL     1      -0.268  10.342  18.319  0.00  0.00    +0.000 C 
ENDROOT
BRANCH   1  11
ATOM      9  C   UNL     1       0.941  14.084  21.253  0.00  0.00    +0.000 C 
ATOM     10  N   UNL     1       0.008  12.972  21.098  0.00  0.00    +0.000 N 
ATOM     11  C   UNL     1       0.246  12.157  19.995  0.00  0.00    +0.000 C 
ATOM     12  O   UNL     1       1.154  12.450  19.206  0.00  0.00    +0.000 OA
BRANCH  10  13
ATOM     13  C   UNL     1      -1.103  12.859  22.066  0.00  0.00    +0.000 C 
BRANCH  13  14
ATOM     14  C   UNL     1      -2.411  13.548  21.632  0.00  0.00    +0.000 C 
BRANCH  14  15
ATOM     15  C   UNL     1      -3.567  13.231  22.549  0.00  0.00    +0.000 A 
ATOM     16  C   UNL     1      -3.353  12.618  23.784  0.00  0.00    +0.000 A 
ATOM     17  C   UNL     1      -4.441  12.384  24.623  0.00  0.00    +0.000 A 
ATOM     18  C   UNL     1      -5.712  12.774  24.213  0.00  0.00    +0.000 A 
ATOM     19  C   UNL     1      -5.836  13.381  22.972  0.00  0.00    +0.000 A 
ATOM     20  N   UNL     1      -4.799  13.614  22.137  0.00  0.00    +0.000 NA
ENDBRANCH  14  15
ENDBRANCH  13  14
ENDBRANCH  10  13
ENDBRANCH   1  11
BRANCH   5  21
ATOM     21  C   UNL     1       2.466   6.997  17.836  0.00  0.00    +0.000 C 
BRANCH  21  22
ATOM     22  N   UNL     1       3.292   5.804  17.856  0.00  0.00    +0.000 N 
ATOM     23  C   UNL     1       2.719   4.556  17.617  0.00  0.00    +0.000 A 
ATOM     24  O   UNL     1       1.544   4.297  17.423  0.00  0.00    +0.000 OA
ATOM     25  S   UNL     1       3.979   3.310  17.589  0.00  0.00    +0.000 S 
ATOM     26  C   UNL     1       5.248   4.535  17.635  0.00  0.00    +0.000 A 
ATOM     27  C   UNL     1       6.614   4.324  17.513  0.00  0.00    +0.000 A 
ATOM     28  C   UNL     1       7.455   5.436  17.482  0.00  0.00    +0.000 A 
ATOM     29  C   UNL     1       6.917   6.725  17.572  0.00  0.00    +0.000 A 
ATOM     30 CL   UNL     1       7.965   8.088  17.480  0.00  0.00    +0.000 Cl
ATOM     31  C   UNL     1       5.540   6.928  17.717  0.00  0.00    +0.000 A 
ATOM     32  C   UNL     1       4.705   5.818  17.753  0.00  0.00    +0.000 A 
ENDBRANCH  21  22
ENDBRANCH   5  21
TORSDOF 6
ENDMDL
MODEL 5
REMARK VINA RESULT:      -7.7      2.086      2.671
REMARK  Name = 
REMARK  7 active torsions:
REMARK  status: ('A' for Active; 'I' for Inactive)
REMARK    1  A    between atoms: C_1  and  N_2
REMARK    2  A    between atoms: N_2  and  C_3
REMARK    3  A    between atoms: C_3  and  C_4
REMARK    4  A    between atoms: C_4  and  C_5
REMARK    5  A    between atoms: C_11  and  C_13
REMARK    6  A    between atoms: C_17  and  C_19
REMARK    7  A    between atoms: C_19  and  N_20
REMARK                            x       y       z     vdW  Elec       q    Type
REMARK                         _______ _______ _______ _____ _____    ______ ____
ROOT
ATOM      1  C   UNL     1       3.486   6.259  18.628  0.00  0.00    +0.000 C 
ATOM      2  C   UNL     1       3.125   6.600  20.074  0.00  0.00    +0.000 C 
ATOM      3  C   UNL     1       1.745   7.241  20.185  0.00  0.00    +0.000 C 
ATOM      4  N   UNL     1       1.638   8.439  19.353  0.00  0.00    +0.000 N 
ATOM      5  C   UNL     1       0.831   9.475  19.826  0.00  0.00    +0.000 C 
ATOM      6  O   UNL     1       0.305   9.419  20.943  0.00  0.00    +0.000 OA
ATOM      7  C   UNL     1       2.005   8.258  17.950  0.00  0.00    +0.000 C 
ATOM      8  C   UNL     1       3.366   7.560  17.794  0.00  0.00    +0.000 C 
ENDROOT
BRANCH   1  11
ATOM      9  C   UNL     1       2.205   2.927  17.181  0.00  0.00    +0.000 C 
ATOM     10  N   UNL     1       3.155   3.885  17.740  0.00  0.00    +0.000 N 
ATOM     11  C   UNL     1       2.635   5.153  17.983  0.00  0.00    +0.000 C 
ATOM     12  O   UNL     1       1.466   5.403  17.661  0.00  0.00    +0.000 OA
BRANCH  10  13
ATOM     13  C   UNL     1       4.553   3.443  17.930  0.00  0.00    +0.000 C 
BRANCH  13  14
ATOM     14  C   UNL     1       5.550   3.988  16.890  0.00  0.00    +0.000 C 
BRANCH  14  15
ATOM     15  C   UNL     1       6.472   5.038  17.462  0.00  0.00    +0.000 A 
ATOM     16  C   UNL     1       6.703   6.234  16.781  0.00  0.00    +0.000 A 
ATOM     17  C   UNL     1       7.524   7.198  17.363  0.00  0.00    +0.000 A 
ATOM     18  C   UNL     1       8.086   6.949  18.610  0.00  0.00    +0.000 A 
ATOM     19  C   UNL     1       7.802   5.736  19.221  0.00  0.00    +0.000 A 
ATOM     20  N   UNL     1       7.014   4.782  18.676  0.00  0.00    +0.000 NA
ENDBRANCH  14  15
ENDBRANCH  13  14
ENDBRANCH  10  13
ENDBRANCH   1  11
BRANCH   5  21
ATOM     21  C   UNL     1       0.658  10.748  18.976  0.00  0.00    +0.000 C 
BRANCH  21  22
ATOM     22  N   UNL     1      -0.713  11.208  18.847  0.00  0.00    +0.000 N 
ATOM     23  C   UNL     1      -1.577  10.578  17.953  0.00  0.00    +0.000 A 
ATOM     24  O   UNL     1      -1.325   9.668  17.183  0.00  0.00    +0.000 OA
ATOM     25  S   UNL     1      -3.202  11.272  18.096  0.00  0.00    +0.000 S 
ATOM     26  C   UNL     1      -2.727  12.193  19.525  0.00  0.00    +0.000 A 
ATOM     27  C   UNL     1      -3.555  12.949  20.342  0.00  0.00    +0.000 A 
ATOM     28  C   UNL     1      -3.006  13.531  21.484  0.00  0.00    +0.000 A 
ATOM     29  C   UNL     1      -1.651  13.344  21.784  0.00  0.00    +0.000 A 
ATOM     30 CL   UNL     1      -1.002  14.027  23.225  0.00  0.00    +0.000 Cl
ATOM     31  C   UNL     1      -0.818  12.597  20.943  0.00  0.00    +0.000 A 
ATOM     32  C   UNL     1      -1.367  12.024  19.803  0.00  0.00    +0.000 A 
ENDBRANCH  21  22
ENDBRANCH   5  21
TORSDOF 6
ENDMDL
MODEL 6
REMARK VINA RESULT:      -7.7      3.564      9.951
REMARK  Name = 
REMARK  7 active torsions:
REMARK  status: ('A' for Active; 'I' for Inactive)
REMARK    1  A    between atoms: C_1  and  N_2
REMARK    2  A    between atoms: N_2  and  C_3
REMARK    3  A    between atoms: C_3  and  C_4
REMARK    4  A    between atoms: C_4  and  C_5
REMARK    5  A    between atoms: C_11  and  C_13
REMARK    6  A    between atoms: C_17  and  C_19
REMARK    7  A    between atoms: C_19  and  N_20
REMARK                            x       y       z     vdW  Elec       q    Type
REMARK                         _______ _______ _______ _____ _____    ______ ____
ROOT
ATOM      1  C   UNL     1      -0.432  10.942  19.868  0.00  0.00    +0.000 C 
ATOM      2  C   UNL     1      -0.252   9.812  20.884  0.00  0.00    +0.000 C 
ATOM      3  C   UNL     1       1.112   9.140  20.757  0.00  0.00    +0.000 C 
ATOM      4  N   UNL     1       1.340   8.631  19.405  0.00  0.00    +0.000 N 
ATOM      5  C   UNL     1       2.096   7.464  19.281  0.00  0.00    +0.000 C 
ATOM      6  O   UNL     1       2.475   6.837  20.276  0.00  0.00    +0.000 OA
ATOM      7  C   UNL     1       1.151   9.606  18.333  0.00  0.00    +0.000 C 
ATOM      8  C   UNL     1      -0.189  10.349  18.457  0.00  0.00    +0.000 C 
ENDROOT
BRANCH   1  11
ATOM      9  C   UNL     1       1.364  14.030  21.308  0.00  0.00    +0.000 C 
ATOM     10  N   UNL     1       0.391  12.945  21.227  0.00  0.00    +0.000 N 
ATOM     11  C   UNL     1       0.478  12.163  20.079  0.00  0.00    +0.000 C 
ATOM     12  O   UNL     1       1.295  12.463  19.199  0.00  0.00    +0.000 OA
BRANCH  10  13
ATOM     13  C   UNL     1      -0.602  12.823  22.315  0.00  0.00    +0.000 C 
BRANCH  13  14
ATOM     14  C   UNL     1      -1.670  13.933  22.341  0.00  0.00    +0.000 C 
BRANCH  14  15
ATOM     15  C   UNL     1      -3.007  13.467  21.816  0.00  0.00    +0.000 A 
ATOM     16  C   UNL     1      -3.159  13.096  20.479  0.00  0.00    +0.000 A 
ATOM     17  C   UNL     1      -4.396  12.627  20.042  0.00  0.00    +0.000 A 
ATOM     18  C   UNL     1      -5.446  12.533  20.949  0.00  0.00    +0.000 A 
ATOM     19  C   UNL     1      -5.209  12.918  22.260  0.00  0.00    +0.000 A 
ATOM     20  N   UNL     1      -4.021  13.381  22.709  0.00  0.00    +0.000 NA
ENDBRANCH  14  15
ENDBRANCH  13  14
ENDBRANCH  10  13
ENDBRANCH   1  11
BRANCH   5  21
ATOM     21  C   UNL     1       2.392   6.900  17.878  0.00  0.00    +0.000 C 
BRANCH  21  22
ATOM     22  N   UNL     1       3.242   5.723  17.867  0.00  0.00    +0.000 N 
ATOM     23  C   UNL     1       2.690   4.468  17.613  0.00  0.00    +0.000 A 
ATOM     24  O   UNL     1       1.519   4.189  17.430  0.00  0.00    +0.000 OA
ATOM     25  S   UNL     1       3.975   3.248  17.547  0.00  0.00    +0.000 S 
ATOM     26  C   UNL     1       5.220   4.498  17.599  0.00  0.00    +0.000 A 
ATOM     27  C   UNL     1       6.588   4.316  17.456  0.00  0.00    +0.000 A 
ATOM     28  C   UNL     1       7.407   5.445  17.434  0.00  0.00    +0.000 A 
ATOM     29  C   UNL     1       6.844   6.721  17.553  0.00  0.00    +0.000 A 
ATOM     30 CL   UNL     1       7.864   8.106  17.471  0.00  0.00    +0.000 Cl
ATOM     31  C   UNL     1       5.465   6.894  17.718  0.00  0.00    +0.000 A 
ATOM     32  C   UNL     1       4.653   5.767  17.746  0.00  0.00    +0.000 A 
ENDBRANCH  21  22
ENDBRANCH   5  21
TORSDOF 6
ENDMDL
MODEL 7
REMARK VINA RESULT:      -7.6      2.168      3.119
REMARK  Name = 
REMARK  7 active torsions:
REMARK  status: ('A' for Active; 'I' for Inactive)
REMARK    1  A    between atoms: C_1  and  N_2
REMARK    2  A    between atoms: N_2  and  C_3
REMARK    3  A    between atoms: C_3  and  C_4
REMARK    4  A    between atoms: C_4  and  C_5
REMARK    5  A    between atoms: C_11  and  C_13
REMARK    6  A    between atoms: C_17  and  C_19
REMARK    7  A    between atoms: C_19  and  N_20
REMARK                            x       y       z     vdW  Elec       q    Type
REMARK                         _______ _______ _______ _____ _____    ______ ____
ROOT
ATOM      1  C   UNL     1       3.459   5.650  17.986  0.00  0.00    +0.000 C 
ATOM      2  C   UNL     1       3.247   6.900  17.131  0.00  0.00    +0.000 C 
ATOM      3  C   UNL     1       3.148   8.164  17.979  0.00  0.00    +0.000 C 
ATOM      4  N   UNL     1       2.084   8.062  18.978  0.00  0.00    +0.000 N 
ATOM      5  C   UNL     1       1.404   9.235  19.308  0.00  0.00    +0.000 C 
ATOM      6  O   UNL     1       1.626  10.295  18.713  0.00  0.00    +0.000 OA
ATOM      7  C   UNL     1       2.144   6.878  19.832  0.00  0.00    +0.000 C 
ATOM      8  C   UNL     1       2.304   5.584  19.017  0.00  0.00    +0.000 C 
ENDROOT
BRANCH   1  11
ATOM      9  C   UNL     1       7.209   5.620  18.865  0.00  0.00    +0.000 C 
ATOM     10  N   UNL     1       6.015   5.639  18.025  0.00  0.00    +0.000 N 
ATOM     11  C   UNL     1       4.809   5.577  18.718  0.00  0.00    +0.000 C 
ATOM     12  O   UNL     1       4.820   5.445  19.948  0.00  0.00    +0.000 OA
BRANCH  10  13
ATOM     13  C   UNL     1       6.201   5.661  16.559  0.00  0.00    +0.000 C 
BRANCH  13  14
ATOM     14  C   UNL     1       6.538   4.296  15.930  0.00  0.00    +0.000 C 
BRANCH  14  15
ATOM     15  C   UNL     1       6.834   4.393  14.452  0.00  0.00    +0.000 A 
ATOM     16  C   UNL     1       6.138   3.610  13.531  0.00  0.00    +0.000 A 
ATOM     17  C   UNL     1       6.407   3.761  12.172  0.00  0.00    +0.000 A 
ATOM     18  C   UNL     1       7.357   4.694  11.767  0.00  0.00    +0.000 A 
ATOM     19  C   UNL     1       7.999   5.434  12.747  0.00  0.00    +0.000 A 
ATOM     20  N   UNL     1       7.762   5.303  14.072  0.00  0.00    +0.000 NA
ENDBRANCH  14  15
ENDBRANCH  13  14
ENDBRANCH  10  13
ENDBRANCH   1  11
BRANCH   5  21
ATOM     21  C   UNL     1       0.294   9.191  20.376  0.00  0.00    +0.000 C 
BRANCH  21  22
ATOM     22  N   UNL     1      -0.620  10.318  20.346  0.00  0.00    +0.000 N 
ATOM     23  C   UNL     1      -0.424  11.397  21.207  0.00  0.00    +0.000 A 
ATOM     24  O   UNL     1       0.430  11.523  22.066  0.00  0.00    +0.000 OA
ATOM     25  S   UNL     1      -1.615  12.664  20.865  0.00  0.00    +0.000 S 
ATOM     26  C   UNL     1      -2.159  11.818  19.415  0.00  0.00    +0.000 A 
ATOM     27  C   UNL     1      -3.063  12.282  18.470  0.00  0.00    +0.000 A 
ATOM     28  C   UNL     1      -3.297  11.502  17.338  0.00  0.00    +0.000 A 
ATOM     29  C   UNL     1      -2.625  10.284  17.176  0.00  0.00    +0.000 A 
ATOM     30 CL   UNL     1      -2.886   9.359  15.748  0.00  0.00    +0.000 Cl
ATOM     31  C   UNL     1      -1.731   9.814  18.144  0.00  0.00    +0.000 A 
ATOM     32  C   UNL     1      -1.505  10.591  19.273  0.00  0.00    +0.000 A 
ENDBRANCH  21  22
ENDBRANCH   5  21
TORSDOF 6
ENDMDL
MODEL 8
REMARK VINA RESULT:      -7.6      4.314      9.812
REMARK  Name = 
REMARK  7 active torsions:
REMARK  status: ('A' for Active; 'I' for Inactive)
REMARK    1  A    between atoms: C_1  and  N_2
REMARK    2  A    between atoms: N_2  and  C_3
REMARK    3  A    between atoms: C_3  and  C_4
REMARK    4  A    between atoms: C_4  and  C_5
REMARK    5  A    between atoms: C_11  and  C_13
REMARK    6  A    between atoms: C_17  and  C_19
REMARK    7  A    between atoms: C_19  and  N_20
REMARK                            x       y       z     vdW  Elec       q    Type
REMARK                         _______ _______ _______ _____ _____    ______ ____
ROOT
ATOM      1  C   UNL     1      -0.079  11.128  20.099  0.00  0.00    +0.000 C 
ATOM      2  C   UNL     1      -0.267   9.854  20.923  0.00  0.00    +0.000 C 
ATOM      3  C   UNL     1       0.979   8.974  20.910  0.00  0.00    +0.000 C 
ATOM      4  N   UNL     1       1.381   8.627  19.546  0.00  0.00    +0.000 N 
ATOM      5  C   UNL     1       1.962   7.372  19.352  0.00  0.00    +0.000 C 
ATOM      6  O   UNL     1       2.047   6.555  20.274  0.00  0.00    +0.000 OA
ATOM      7  C   UNL     1       1.547   9.760  18.639  0.00  0.00    +0.000 C 
ATOM      8  C   UNL     1       0.335  10.705  18.667  0.00  0.00    +0.000 C 
ENDROOT
BRANCH   1  11
ATOM      9  C   UNL     1       2.025  14.268  20.841  0.00  0.00    +0.000 C 
ATOM     10  N   UNL     1       1.046  13.423  20.164  0.00  0.00    +0.000 N 
ATOM     11  C   UNL     1       0.948  12.126  20.659  0.00  0.00    +0.000 C 
ATOM     12  O   UNL     1       1.712  11.760  21.561  0.00  0.00    +0.000 OA
BRANCH  10  13
ATOM     13  C   UNL     1       0.318  13.994  19.011  0.00  0.00    +0.000 C 
BRANCH  13  14
ATOM     14  C   UNL     1      -0.513  15.252  19.331  0.00  0.00    +0.000 C 
BRANCH  14  15
ATOM     15  C   UNL     1      -0.099  16.447  18.507  0.00  0.00    +0.000 A 
ATOM     16  C   UNL     1       1.234  16.634  18.137  0.00  0.00    +0.000 A 
ATOM     17  C   UNL     1       1.570  17.724  17.338  0.00  0.00    +0.000 A 
ATOM     18  C   UNL     1       0.569  18.596  16.922  0.00  0.00    +0.000 A 
ATOM     19  C   UNL     1      -0.730  18.336  17.330  0.00  0.00    +0.000 A 
ATOM     20  N   UNL     1      -1.083  17.289  18.110  0.00  0.00    +0.000 NA
ENDBRANCH  14  15
ENDBRANCH  13  14
ENDBRANCH  10  13
ENDBRANCH   1  11
BRANCH   5  21
ATOM     21  C   UNL     1       2.431   6.967  17.941  0.00  0.00    +0.000 C 
BRANCH  21  22
ATOM     22  N   UNL     1       3.260   5.776  17.899  0.00  0.00    +0.000 N 
ATOM     23  C   UNL     1       2.681   4.534  17.645  0.00  0.00    +0.000 A 
ATOM     24  O   UNL     1       1.502   4.276  17.485  0.00  0.00    +0.000 OA
ATOM     25  S   UNL     1       3.943   3.293  17.538  0.00  0.00    +0.000 S 
ATOM     26  C   UNL     1       5.210   4.520  17.574  0.00  0.00    +0.000 A 
ATOM     27  C   UNL     1       6.571   4.318  17.399  0.00  0.00    +0.000 A 
ATOM     28  C   UNL     1       7.408   5.432  17.369  0.00  0.00    +0.000 A 
ATOM     29  C   UNL     1       6.870   6.717  17.513  0.00  0.00    +0.000 A 
ATOM     30 CL   UNL     1       7.912   8.085  17.422  0.00  0.00    +0.000 Cl
ATOM     31  C   UNL     1       5.499   6.911  17.711  0.00  0.00    +0.000 A 
ATOM     32  C   UNL     1       4.669   5.798  17.747  0.00  0.00    +0.000 A 
ENDBRANCH  21  22
ENDBRANCH   5  21
TORSDOF 6
ENDMDL
MODEL 9
REMARK VINA RESULT:      -7.5      3.227      9.609
REMARK  Name = 
REMARK  7 active torsions:
REMARK  status: ('A' for Active; 'I' for Inactive)
REMARK    1  A    between atoms: C_1  and  N_2
REMARK    2  A    between atoms: N_2  and  C_3
REMARK    3  A    between atoms: C_3  and  C_4
REMARK    4  A    between atoms: C_4  and  C_5
REMARK    5  A    between atoms: C_11  and  C_13
REMARK    6  A    between atoms: C_17  and  C_19
REMARK    7  A    between atoms: C_19  and  N_20
REMARK                            x       y       z     vdW  Elec       q    Type
REMARK                         _______ _______ _______ _____ _____    ______ ____
ROOT
ATOM      1  C   UNL     1      -0.514  10.379  20.378  0.00  0.00    +0.000 C 
ATOM      2  C   UNL     1      -0.207   9.085  21.133  0.00  0.00    +0.000 C 
ATOM      3  C   UNL     1       1.233   8.627  20.922  0.00  0.00    +0.000 C 
ATOM      4  N   UNL     1       1.543   8.457  19.502  0.00  0.00    +0.000 N 
ATOM      5  C   UNL     1       2.442   7.445  19.162  0.00  0.00    +0.000 C 
ATOM      6  O   UNL     1       2.884   6.667  20.013  0.00  0.00    +0.000 OA
ATOM      7  C   UNL     1       1.247   9.612  18.658  0.00  0.00    +0.000 C 
ATOM      8  C   UNL     1      -0.178  10.143  18.884  0.00  0.00    +0.000 C 
ENDROOT
BRANCH   1  11
ATOM      9  C   UNL     1       0.489  13.975  21.331  0.00  0.00    +0.000 C 
ATOM     10  N   UNL     1      -0.310  12.901  20.745  0.00  0.00    +0.000 N 
ATOM     11  C   UNL     1       0.231  11.626  20.884  0.00  0.00    +0.000 C 
ATOM     12  O   UNL     1       1.342  11.490  21.412  0.00  0.00    +0.000 OA
BRANCH  10  13
ATOM     13  C   UNL     1      -1.549  13.271  20.030  0.00  0.00    +0.000 C 
BRANCH  13  14
ATOM     14  C   UNL     1      -2.839  12.668  20.618  0.00  0.00    +0.000 C 
BRANCH  14  15
ATOM     15  C   UNL     1      -3.886  12.395  19.565  0.00  0.00    +0.000 A 
ATOM     16  C   UNL     1      -5.165  12.944  19.670  0.00  0.00    +0.000 A 
ATOM     17  C   UNL     1      -6.090  12.707  18.656  0.00  0.00    +0.000 A 
ATOM     18  C   UNL     1      -5.715  11.937  17.560  0.00  0.00    +0.000 A 
ATOM     19  C   UNL     1      -4.423  11.433  17.532  0.00  0.00    +0.000 A 
ATOM     20  N   UNL     1      -3.508  11.642  18.505  0.00  0.00    +0.000 NA
ENDBRANCH  14  15
ENDBRANCH  13  14
ENDBRANCH  10  13
ENDBRANCH   1  11
BRANCH   5  21
ATOM     21  C   UNL     1       2.828   7.242  17.684  0.00  0.00    +0.000 C 
BRANCH  21  22
ATOM     22  N   UNL     1       3.679   6.093  17.434  0.00  0.00    +0.000 N 
ATOM     23  C   UNL     1       5.057   6.262  17.305  0.00  0.00    +0.000 A 
ATOM     24  O   UNL     1       5.688   7.303  17.331  0.00  0.00    +0.000 OA
ATOM     25  S   UNL     1       5.843   4.684  17.124  0.00  0.00    +0.000 S 
ATOM     26  C   UNL     1       4.334   3.845  17.490  0.00  0.00    +0.000 A 
ATOM     27  C   UNL     1       4.162   2.480  17.667  0.00  0.00    +0.000 A 
ATOM     28  C   UNL     1       2.903   2.014  18.045  0.00  0.00    +0.000 A 
ATOM     29  C   UNL     1       1.851   2.918  18.237  0.00  0.00    +0.000 A 
ATOM     30 CL   UNL     1       0.317   2.331  18.753  0.00  0.00    +0.000 Cl
ATOM     31  C   UNL     1       2.028   4.291  18.035  0.00  0.00    +0.000 A 
ATOM     32  C   UNL     1       3.282   4.750  17.653  0.00  0.00    +0.000 A 
ENDBRANCH  21  22
ENDBRANCH   5  21
TORSDOF 6
ENDMDL
