MODEL 1
REMARK VINA RESULT:      -8.6      0.000      0.000
REMARK  Name = 
REMARK  8 active torsions:
REMARK  status: ('A' for Active; 'I' for Inactive)
REMARK    1  A    between atoms: C_1  and  C_2
REMARK    2  A    between atoms: C_2  and  N_3
REMARK    3  A    between atoms: C_2  and  C_18
REMARK    4  A    between atoms: N_3  and  C_4
REMARK    5  A    between atoms: C_4  and  C_5
REMARK    6  A    between atoms: C_10  and  C_11
REMARK    7  A    between atoms: C_20  and  C_21
REMARK    8  A    between atoms: C_26  and  C_27
REMARK                            x       y       z     vdW  Elec       q    Type
REMARK                         _______ _______ _______ _____ _____    ______ ____
ROOT
ATOM      1  C   UNL     1       1.043   8.689  20.793  0.00  0.00    +0.000 C 
ATOM      2  C   UNL     1       1.526   9.409  19.527  0.00  0.00    +0.000 C 
ENDROOT
BRANCH   2   3
ATOM      3  C   UNL     1       0.449  10.358  19.022  0.00  0.00    +0.000 A 
ATOM      4  C   UNL     1       0.482  11.720  19.358  0.00  0.00    +0.000 A 
ATOM      5  C   UNL     1      -0.510  12.602  18.907  0.00  0.00    +0.000 A 
ATOM      6  C   UNL     1      -1.548  12.105  18.100  0.00  0.00    +0.000 A 
ATOM      7  C   UNL     1      -1.601  10.752  17.743  0.00  0.00    +0.000 A 
ATOM      8  C   UNL     1      -0.596   9.889  18.207  0.00  0.00    +0.000 A 
BRANCH   5   9
ATOM      9  C   UNL     1      -0.480  14.064  19.288  0.00  0.00    +0.000 C 
ATOM     10  F   UNL     1       0.574  14.397  20.084  0.00  0.00    +0.000 F 
ATOM     11  F   UNL     1      -0.400  14.882  18.202  0.00  0.00    +0.000 F 
ATOM     12  F   UNL     1      -1.596  14.446  19.967  0.00  0.00    +0.000 F 
ENDBRANCH   5   9
BRANCH   7  13
ATOM     13  C   UNL     1      -2.716  10.197  16.890  0.00  0.00    +0.000 C 
ATOM     14  F   UNL     1      -2.274   9.384  15.887  0.00  0.00    +0.000 F 
ATOM     15  F   UNL     1      -3.605   9.456  17.606  0.00  0.00    +0.000 F 
ATOM     16  F   UNL     1      -3.443  11.175  16.282  0.00  0.00    +0.000 F 
ENDBRANCH   7  13
ENDBRANCH   2   3
BRANCH   2  17
ATOM     17  N   UNL     1       1.899   8.490  18.436  0.00  0.00    +0.000 NA
ATOM     18  H   UNL     1       2.601   8.971  17.872  0.00  0.00    +0.000 HD
BRANCH  17  19
ATOM     19  C   UNL     1       2.492   7.248  18.945  0.00  0.00    +0.000 C 
BRANCH  19  20
ATOM     20  C   UNL     1       3.425   6.515  18.000  0.00  0.00    +0.000 A 
ATOM     21  C   UNL     1       4.165   7.220  17.044  0.00  0.00    +0.000 A 
ATOM     22  N   UNL     1       5.005   6.667  16.142  0.00  0.00    +0.000 NA
ATOM     23  C   UNL     1       5.113   5.330  16.173  0.00  0.00    +0.000 A 
ATOM     24  C   UNL     1       4.436   4.528  17.073  0.00  0.00    +0.000 A 
ATOM     25  C   UNL     1       3.562   5.097  18.020  0.00  0.00    +0.000 A 
BRANCH  25  26
ATOM     26  C   UNL     1       2.794   4.192  18.933  0.00  0.00    +0.000 A 
ATOM     27  C   UNL     1       3.333   3.693  20.134  0.00  0.00    +0.000 A 
ATOM     28  C   UNL     1       2.569   2.944  21.039  0.00  0.00    +0.000 A 
ATOM     29  C   UNL     1       1.262   2.593  20.728  0.00  0.00    +0.000 A 
ATOM     30  C   UNL     1       0.725   2.990  19.509  0.00  0.00    +0.000 A 
ATOM     31  C   UNL     1       1.476   3.787  18.640  0.00  0.00    +0.000 A 
ATOM     32  F   UNL     1       0.886   4.161  17.494  0.00  0.00    +0.000 F 
ENDBRANCH  25  26
ENDBRANCH  19  20
ENDBRANCH  17  19
ENDBRANCH   2  17
TORSDOF 7
ENDMDL
MODEL 2
REMARK VINA RESULT:      -8.6      1.974      4.401
REMARK  Name = 
REMARK  8 active torsions:
REMARK  status: ('A' for Active; 'I' for Inactive)
REMARK    1  A    between atoms: C_1  and  C_2
REMARK    2  A    between atoms: C_2  and  N_3
REMARK    3  A    between atoms: C_2  and  C_18
REMARK    4  A    between atoms: N_3  and  C_4
REMARK    5  A    between atoms: C_4  and  C_5
REMARK    6  A    between atoms: C_10  and  C_11
REMARK    7  A    between atoms: C_20  and  C_21
REMARK    8  A    between atoms: C_26  and  C_27
REMARK                            x       y       z     vdW  Elec       q    Type
REMARK                         _______ _______ _______ _____ _____    ______ ____
ROOT
ATOM      1  C   UNL     1       0.914   8.287  21.169  0.00  0.00    +0.000 C 
ATOM      2  C   UNL     1       1.549   8.862  19.895  0.00  0.00    +0.000 C 
ENDROOT
BRANCH   2   3
ATOM      3  C   UNL     1       0.651   9.939  19.303  0.00  0.00    +0.000 A 
ATOM      4  C   UNL     1      -0.513   9.593  18.602  0.00  0.00    +0.000 A 
ATOM      5  C   UNL     1      -1.344  10.575  18.044  0.00  0.00    +0.000 A 
ATOM      6  C   UNL     1      -0.997  11.928  18.201  0.00  0.00    +0.000 A 
ATOM      7  C   UNL     1       0.156  12.303  18.902  0.00  0.00    +0.000 A 
ATOM      8  C   UNL     1       0.970  11.300  19.452  0.00  0.00    +0.000 A 
BRANCH   5   9
ATOM      9  C   UNL     1      -2.586  10.195  17.274  0.00  0.00    +0.000 C 
ATOM     10  F   UNL     1      -3.437  11.239  17.064  0.00  0.00    +0.000 F 
ATOM     11  F   UNL     1      -2.301   9.693  16.041  0.00  0.00    +0.000 F 
ATOM     12  F   UNL     1      -3.319   9.239  17.909  0.00  0.00    +0.000 F 
ENDBRANCH   5   9
BRANCH   7  13
ATOM     13  C   UNL     1       0.552  13.750  19.068  0.00  0.00    +0.000 C 
ATOM     14  F   UNL     1       1.655  14.093  18.342  0.00  0.00    +0.000 F 
ATOM     15  F   UNL     1      -0.430  14.610  18.683  0.00  0.00    +0.000 F 
ATOM     16  F   UNL     1       0.844  14.065  20.360  0.00  0.00    +0.000 F 
ENDBRANCH   7  13
ENDBRANCH   2   3
BRANCH   2  17
ATOM     17  N   UNL     1       1.812   7.844  18.861  0.00  0.00    +0.000 NA
ATOM     18  H   UNL     1       2.282   8.321  18.091  0.00  0.00    +0.000 HD
BRANCH  17  19
ATOM     19  C   UNL     1       2.699   6.782  19.352  0.00  0.00    +0.000 C 
BRANCH  19  20
ATOM     20  C   UNL     1       2.728   5.504  18.536  0.00  0.00    +0.000 A 
ATOM     21  C   UNL     1       1.560   4.758  18.344  0.00  0.00    +0.000 A 
ATOM     22  N   UNL     1       1.478   3.597  17.656  0.00  0.00    +0.000 NA
ATOM     23  C   UNL     1       2.624   3.133  17.136  0.00  0.00    +0.000 A 
ATOM     24  C   UNL     1       3.839   3.783  17.256  0.00  0.00    +0.000 A 
ATOM     25  C   UNL     1       3.932   4.996  17.967  0.00  0.00    +0.000 A 
BRANCH  25  26
ATOM     26  C   UNL     1       5.275   5.636  18.135  0.00  0.00    +0.000 A 
ATOM     27  C   UNL     1       6.157   5.282  19.175  0.00  0.00    +0.000 A 
ATOM     28  C   UNL     1       7.457   5.799  19.257  0.00  0.00    +0.000 A 
ATOM     29  C   UNL     1       7.887   6.757  18.349  0.00  0.00    +0.000 A 
ATOM     30  C   UNL     1       7.012   7.199  17.363  0.00  0.00    +0.000 A 
ATOM     31  C   UNL     1       5.738   6.634  17.255  0.00  0.00    +0.000 A 
ATOM     32  F   UNL     1       4.955   7.084  16.262  0.00  0.00    +0.000 F 
ENDBRANCH  25  26
ENDBRANCH  19  20
ENDBRANCH  17  19
ENDBRANCH   2  17
TORSDOF 7
ENDMDL
MODEL 3
REMARK VINA RESULT:      -8.6      0.824      1.292
REMARK  Name = 
REMARK  8 active torsions:
REMARK  status: ('A' for Active; 'I' for Inactive)
REMARK    1  A    between atoms: C_1  and  C_2
REMARK    2  A    between atoms: C_2  and  N_3
REMARK    3  A    between atoms: C_2  and  C_18
REMARK    4  A    between atoms: N_3  and  C_4
REMARK    5  A    between atoms: C_4  and  C_5
REMARK    6  A    between atoms: C_10  and  C_11
REMARK    7  A    between atoms: C_20  and  C_21
REMARK    8  A    between atoms: C_26  and  C_27
REMARK                            x       y       z     vdW  Elec       q    Type
REMARK                         _______ _______ _______ _____ _____    ______ ____
ROOT
ATOM      1  C   UNL     1       1.469   8.427  19.982  0.00  0.00    +0.000 C 
ATOM      2  C   UNL     1       1.818   9.417  18.862  0.00  0.00    +0.000 C 
ENDROOT
BRANCH   2   3
ATOM      3  C   UNL     1       0.632  10.327  18.580  0.00  0.00    +0.000 A 
ATOM      4  C   UNL     1       0.652  11.672  18.980  0.00  0.00    +0.000 A 
ATOM      5  C   UNL     1      -0.438  12.518  18.735  0.00  0.00    +0.000 A 
ATOM      6  C   UNL     1      -1.564  12.003  18.071  0.00  0.00    +0.000 A 
ATOM      7  C   UNL     1      -1.609  10.666  17.655  0.00  0.00    +0.000 A 
ATOM      8  C   UNL     1      -0.504   9.839  17.911  0.00  0.00    +0.000 A 
BRANCH   5   9
ATOM      9  C   UNL     1      -0.417  13.960  19.184  0.00  0.00    +0.000 C 
ATOM     10  F   UNL     1      -0.493  14.852  18.156  0.00  0.00    +0.000 F 
ATOM     11  F   UNL     1      -1.453  14.261  20.015  0.00  0.00    +0.000 F 
ATOM     12  F   UNL     1       0.717  14.275  19.867  0.00  0.00    +0.000 F 
ENDBRANCH   5   9
BRANCH   7  13
ATOM     13  C   UNL     1      -2.816  10.090  16.954  0.00  0.00    +0.000 C 
ATOM     14  F   UNL     1      -3.713  11.039  16.558  0.00  0.00    +0.000 F 
ATOM     15  F   UNL     1      -2.489   9.394  15.832  0.00  0.00    +0.000 F 
ATOM     16  F   UNL     1      -3.513   9.227  17.744  0.00  0.00    +0.000 F 
ENDBRANCH   7  13
ENDBRANCH   2   3
BRANCH   2  17
ATOM     17  N   UNL     1       2.222   8.761  17.605  0.00  0.00    +0.000 NA
ATOM     18  H   UNL     1       3.165   9.088  17.392  0.00  0.00    +0.000 HD
BRANCH  17  19
ATOM     19  C   UNL     1       2.263   7.300  17.739  0.00  0.00    +0.000 C 
BRANCH  19  20
ATOM     20  C   UNL     1       3.640   6.664  17.725  0.00  0.00    +0.000 A 
ATOM     21  C   UNL     1       4.715   7.313  17.106  0.00  0.00    +0.000 A 
ATOM     22  N   UNL     1       5.974   6.828  17.016  0.00  0.00    +0.000 NA
ATOM     23  C   UNL     1       6.185   5.620  17.559  0.00  0.00    +0.000 A 
ATOM     24  C   UNL     1       5.203   4.886  18.199  0.00  0.00    +0.000 A 
ATOM     25  C   UNL     1       3.890   5.386  18.301  0.00  0.00    +0.000 A 
BRANCH  25  26
ATOM     26  C   UNL     1       2.838   4.533  18.941  0.00  0.00    +0.000 A 
ATOM     27  C   UNL     1       2.534   4.608  20.314  0.00  0.00    +0.000 A 
ATOM     28  C   UNL     1       1.470   3.894  20.881  0.00  0.00    +0.000 A 
ATOM     29  C   UNL     1       0.730   3.010  20.108  0.00  0.00    +0.000 A 
ATOM     30  C   UNL     1       1.061   2.839  18.768  0.00  0.00    +0.000 A 
ATOM     31  C   UNL     1       2.085   3.601  18.198  0.00  0.00    +0.000 A 
ATOM     32  F   UNL     1       2.332   3.410  16.893  0.00  0.00    +0.000 F 
ENDBRANCH  25  26
ENDBRANCH  19  20
ENDBRANCH  17  19
ENDBRANCH   2  17
TORSDOF 7
ENDMDL
MODEL 4
REMARK VINA RESULT:      -8.6      0.179      3.169
REMARK  Name = 
REMARK  8 active torsions:
REMARK  status: ('A' for Active; 'I' for Inactive)
REMARK    1  A    between atoms: C_1  and  C_2
REMARK    2  A    between atoms: C_2  and  N_3
REMARK    3  A    between atoms: C_2  and  C_18
REMARK    4  A    between atoms: N_3  and  C_4
REMARK    5  A    between atoms: C_4  and  C_5
REMARK    6  A    between atoms: C_10  and  C_11
REMARK    7  A    between atoms: C_20  and  C_21
REMARK    8  A    between atoms: C_26  and  C_27
REMARK                            x       y       z     vdW  Elec       q    Type
REMARK                         _______ _______ _______ _____ _____    ______ ____
ROOT
ATOM      1  C   UNL     1       1.049   8.653  20.745  0.00  0.00    +0.000 C 
ATOM      2  C   UNL     1       1.554   9.382  19.492  0.00  0.00    +0.000 C 
ENDROOT
BRANCH   2   3
ATOM      3  C   UNL     1       0.489  10.340  18.979  0.00  0.00    +0.000 A 
ATOM      4  C   UNL     1      -0.559   9.875  18.170  0.00  0.00    +0.000 A 
ATOM      5  C   UNL     1      -1.542  10.748  17.683  0.00  0.00    +0.000 A 
ATOM      6  C   UNL     1      -1.470  12.111  18.022  0.00  0.00    +0.000 A 
ATOM      7  C   UNL     1      -0.439  12.601  18.834  0.00  0.00    +0.000 A 
ATOM      8  C   UNL     1       0.532  11.705  19.309  0.00  0.00    +0.000 A 
BRANCH   5   9
ATOM      9  C   UNL     1      -2.657  10.245  16.797  0.00  0.00    +0.000 C 
ATOM     10  F   UNL     1      -3.661   9.629  17.482  0.00  0.00    +0.000 F 
ATOM     11  F   UNL     1      -3.249  11.246  16.089  0.00  0.00    +0.000 F 
ATOM     12  F   UNL     1      -2.222   9.340  15.878  0.00  0.00    +0.000 F 
ENDBRANCH   5   9
BRANCH   7  13
ATOM     13  C   UNL     1      -0.337  14.063  19.196  0.00  0.00    +0.000 C 
ATOM     14  F   UNL     1       0.853  14.392  19.775  0.00  0.00    +0.000 F 
ATOM     15  F   UNL     1      -0.465  14.880  18.116  0.00  0.00    +0.000 F 
ATOM     16  F   UNL     1      -1.300  14.449  20.078  0.00  0.00    +0.000 F 
ENDBRANCH   7  13
ENDBRANCH   2   3
BRANCH   2  17
ATOM     17  N   UNL     1       1.939   8.471  18.399  0.00  0.00    +0.000 NA
ATOM     18  H   UNL     1       2.590   8.984  17.803  0.00  0.00    +0.000 HD
BRANCH  17  19
ATOM     19  C   UNL     1       2.623   7.272  18.900  0.00  0.00    +0.000 C 
BRANCH  19  20
ATOM     20  C   UNL     1       3.532   6.560  17.917  0.00  0.00    +0.000 A 
ATOM     21  C   UNL     1       4.276   7.288  16.981  0.00  0.00    +0.000 A 
ATOM     22  N   UNL     1       5.096   6.754  16.049  0.00  0.00    +0.000 NA
ATOM     23  C   UNL     1       5.179   5.416  16.026  0.00  0.00    +0.000 A 
ATOM     24  C   UNL     1       4.495   4.592  16.902  0.00  0.00    +0.000 A 
ATOM     25  C   UNL     1       3.641   5.140  17.880  0.00  0.00    +0.000 A 
BRANCH  25  26
ATOM     26  C   UNL     1       2.865   4.214  18.764  0.00  0.00    +0.000 A 
ATOM     27  C   UNL     1       3.402   3.666  19.945  0.00  0.00    +0.000 A 
ATOM     28  C   UNL     1       2.632   2.897  20.827  0.00  0.00    +0.000 A 
ATOM     29  C   UNL     1       1.319   2.575  20.510  0.00  0.00    +0.000 A 
ATOM     30  C   UNL     1       0.782   3.021  19.308  0.00  0.00    +0.000 A 
ATOM     31  C   UNL     1       1.540   3.838  18.464  0.00  0.00    +0.000 A 
ATOM     32  F   UNL     1       0.950   4.259  17.334  0.00  0.00    +0.000 F 
ENDBRANCH  25  26
ENDBRANCH  19  20
ENDBRANCH  17  19
ENDBRANCH   2  17
TORSDOF 7
ENDMDL
MODEL 5
REMARK VINA RESULT:      -8.5      0.689      3.220
REMARK  Name = 
REMARK  8 active torsions:
REMARK  status: ('A' for Active; 'I' for Inactive)
REMARK    1  A    between atoms: C_1  and  C_2
REMARK    2  A    between atoms: C_2  and  N_3
REMARK    3  A    between atoms: C_2  and  C_18
REMARK    4  A    between atoms: N_3  and  C_4
REMARK    5  A    between atoms: C_4  and  C_5
REMARK    6  A    between atoms: C_10  and  C_11
REMARK    7  A    between atoms: C_20  and  C_21
REMARK    8  A    between atoms: C_26  and  C_27
REMARK                            x       y       z     vdW  Elec       q    Type
REMARK                         _______ _______ _______ _____ _____    ______ ____
ROOT
ATOM      1  C   UNL     1       1.450   8.518  20.160  0.00  0.00    +0.000 C 
ATOM      2  C   UNL     1       1.772   9.485  19.012  0.00  0.00    +0.000 C 
ENDROOT
BRANCH   2   3
ATOM      3  C   UNL     1       0.567  10.366  18.717  0.00  0.00    +0.000 A 
ATOM      4  C   UNL     1      -0.539   9.854  18.021  0.00  0.00    +0.000 A 
ATOM      5  C   UNL     1      -1.651  10.657  17.734  0.00  0.00    +0.000 A 
ATOM      6  C   UNL     1      -1.651  11.997  18.160  0.00  0.00    +0.000 A 
ATOM      7  C   UNL     1      -0.564  12.532  18.862  0.00  0.00    +0.000 A 
ATOM      8  C   UNL     1       0.537  11.707  19.138  0.00  0.00    +0.000 A 
BRANCH   5   9
ATOM      9  C   UNL     1      -2.831  10.105  16.969  0.00  0.00    +0.000 C 
ATOM     10  F   UNL     1      -3.738  11.055  16.609  0.00  0.00    +0.000 F 
ATOM     11  F   UNL     1      -2.458   9.488  15.814  0.00  0.00    +0.000 F 
ATOM     12  F   UNL     1      -3.526   9.178  17.684  0.00  0.00    +0.000 F 
ENDBRANCH   5   9
BRANCH   7  13
ATOM     13  C   UNL     1      -0.539  13.972  19.315  0.00  0.00    +0.000 C 
ATOM     14  F   UNL     1      -1.683  14.357  19.951  0.00  0.00    +0.000 F 
ATOM     15  F   UNL     1       0.476  14.232  20.183  0.00  0.00    +0.000 F 
ATOM     16  F   UNL     1      -0.381  14.841  18.278  0.00  0.00    +0.000 F 
ENDBRANCH   7  13
ENDBRANCH   2   3
BRANCH   2  17
ATOM     17  N   UNL     1       2.178   8.804  17.768  0.00  0.00    +0.000 NA
ATOM     18  H   UNL     1       3.124   9.122  17.554  0.00  0.00    +0.000 HD
BRANCH  17  19
ATOM     19  C   UNL     1       2.210   7.346  17.928  0.00  0.00    +0.000 C 
BRANCH  19  20
ATOM     20  C   UNL     1       3.548   6.674  17.685  0.00  0.00    +0.000 A 
ATOM     21  C   UNL     1       4.538   7.316  16.931  0.00  0.00    +0.000 A 
ATOM     22  N   UNL     1       5.752   6.801  16.636  0.00  0.00    +0.000 NA
ATOM     23  C   UNL     1       6.004   5.568  17.100  0.00  0.00    +0.000 A 
ATOM     24  C   UNL     1       5.107   4.838  17.858  0.00  0.00    +0.000 A 
ATOM     25  C   UNL     1       3.840   5.369  18.175  0.00  0.00    +0.000 A 
BRANCH  25  26
ATOM     26  C   UNL     1       2.870   4.522  18.938  0.00  0.00    +0.000 A 
ATOM     27  C   UNL     1       2.700   4.634  20.332  0.00  0.00    +0.000 A 
ATOM     28  C   UNL     1       1.708   3.923  21.021  0.00  0.00    +0.000 A 
ATOM     29  C   UNL     1       0.911   3.006  20.349  0.00  0.00    +0.000 A 
ATOM     30  C   UNL     1       1.112   2.800  18.989  0.00  0.00    +0.000 A 
ATOM     31  C   UNL     1       2.064   3.558  18.300  0.00  0.00    +0.000 A 
ATOM     32  F   UNL     1       2.185   3.331  16.982  0.00  0.00    +0.000 F 
ENDBRANCH  25  26
ENDBRANCH  19  20
ENDBRANCH  17  19
ENDBRANCH   2  17
TORSDOF 7
ENDMDL
MODEL 6
REMARK VINA RESULT:      -8.5      2.740      4.753
REMARK  Name = 
REMARK  8 active torsions:
REMARK  status: ('A' for Active; 'I' for Inactive)
REMARK    1  A    between atoms: C_1  and  C_2
REMARK    2  A    between atoms: C_2  and  N_3
REMARK    3  A    between atoms: C_2  and  C_18
REMARK    4  A    between atoms: N_3  and  C_4
REMARK    5  A    between atoms: C_4  and  C_5
REMARK    6  A    between atoms: C_10  and  C_11
REMARK    7  A    between atoms: C_20  and  C_21
REMARK    8  A    between atoms: C_26  and  C_27
REMARK                            x       y       z     vdW  Elec       q    Type
REMARK                         _______ _______ _______ _____ _____    ______ ____
ROOT
ATOM      1  C   UNL     1       3.015   8.280  17.645  0.00  0.00    +0.000 C 
ATOM      2  C   UNL     1       1.989   7.803  18.681  0.00  0.00    +0.000 C 
ENDROOT
BRANCH   2   3
ATOM      3  C   UNL     1       1.403   8.995  19.425  0.00  0.00    +0.000 A 
ATOM      4  C   UNL     1       0.924   8.854  20.736  0.00  0.00    +0.000 A 
ATOM      5  C   UNL     1       0.373   9.941  21.428  0.00  0.00    +0.000 A 
ATOM      6  C   UNL     1       0.309  11.192  20.790  0.00  0.00    +0.000 A 
ATOM      7  C   UNL     1       0.786  11.364  19.484  0.00  0.00    +0.000 A 
ATOM      8  C   UNL     1       1.334  10.259  18.813  0.00  0.00    +0.000 A 
BRANCH   5   9
ATOM      9  C   UNL     1      -0.158   9.779  22.833  0.00  0.00    +0.000 C 
ATOM     10  F   UNL     1       0.809   9.500  23.751  0.00  0.00    +0.000 F 
ATOM     11  F   UNL     1      -0.787  10.899  23.283  0.00  0.00    +0.000 F 
ATOM     12  F   UNL     1      -1.067   8.771  22.931  0.00  0.00    +0.000 F 
ENDBRANCH   5   9
BRANCH   7  13
ATOM     13  C   UNL     1       0.712  12.695  18.777  0.00  0.00    +0.000 C 
ATOM     14  F   UNL     1       1.741  12.900  17.905  0.00  0.00    +0.000 F 
ATOM     15  F   UNL     1      -0.429  12.840  18.050  0.00  0.00    +0.000 F 
ATOM     16  F   UNL     1       0.744  13.746  19.643  0.00  0.00    +0.000 F 
ENDBRANCH   7  13
ENDBRANCH   2   3
BRANCH   2  17
ATOM     17  N   UNL     1       2.546   6.857  19.666  0.00  0.00    +0.000 NA
ATOM     18  H   UNL     1       1.770   6.280  19.992  0.00  0.00    +0.000 HD
BRANCH  17  19
ATOM     19  C   UNL     1       3.554   5.974  19.067  0.00  0.00    +0.000 C 
BRANCH  19  20
ATOM     20  C   UNL     1       3.161   4.518  18.913  0.00  0.00    +0.000 A 
ATOM     21  C   UNL     1       2.158   3.964  19.717  0.00  0.00    +0.000 A 
ATOM     22  N   UNL     1       1.746   2.677  19.677  0.00  0.00    +0.000 NA
ATOM     23  C   UNL     1       2.374   1.879  18.800  0.00  0.00    +0.000 A 
ATOM     24  C   UNL     1       3.376   2.313  17.951  0.00  0.00    +0.000 A 
ATOM     25  C   UNL     1       3.807   3.654  17.982  0.00  0.00    +0.000 A 
BRANCH  25  26
ATOM     26  C   UNL     1       4.942   4.070  17.098  0.00  0.00    +0.000 A 
ATOM     27  C   UNL     1       4.821   4.148  15.697  0.00  0.00    +0.000 A 
ATOM     28  C   UNL     1       5.848   4.651  14.887  0.00  0.00    +0.000 A 
ATOM     29  C   UNL     1       7.067   5.009  15.447  0.00  0.00    +0.000 A 
ATOM     30  C   UNL     1       7.256   4.859  16.816  0.00  0.00    +0.000 A 
ATOM     31  C   UNL     1       6.204   4.413  17.622  0.00  0.00    +0.000 A 
ATOM     32  F   UNL     1       6.444   4.321  18.939  0.00  0.00    +0.000 F 
ENDBRANCH  25  26
ENDBRANCH  19  20
ENDBRANCH  17  19
ENDBRANCH   2  17
TORSDOF 7
ENDMDL
MODEL 7
REMARK VINA RESULT:      -8.5      2.825      4.529
REMARK  Name = 
REMARK  8 active torsions:
REMARK  status: ('A' for Active; 'I' for Inactive)
REMARK    1  A    between atoms: C_1  and  C_2
REMARK    2  A    between atoms: C_2  and  N_3
REMARK    3  A    between atoms: C_2  and  C_18
REMARK    4  A    between atoms: N_3  and  C_4
REMARK    5  A    between atoms: C_4  and  C_5
REMARK    6  A    between atoms: C_10  and  C_11
REMARK    7  A    between atoms: C_20  and  C_21
REMARK    8  A    between atoms: C_26  and  C_27
REMARK                            x       y       z     vdW  Elec       q    Type
REMARK                         _______ _______ _______ _____ _____    ______ ____
ROOT
ATOM      1  C   UNL     1       2.392   8.244  17.473  0.00  0.00    +0.000 C 
ATOM      2  C   UNL     1       1.944   7.813  18.877  0.00  0.00    +0.000 C 
ENDROOT
BRANCH   2   3
ATOM      3  C   UNL     1       1.283   8.981  19.595  0.00  0.00    +0.000 A 
ATOM      4  C   UNL     1       0.809   8.836  20.908  0.00  0.00    +0.000 A 
ATOM      5  C   UNL     1       0.190   9.900  21.578  0.00  0.00    +0.000 A 
ATOM      6  C   UNL     1       0.050  11.132  20.915  0.00  0.00    +0.000 A 
ATOM      7  C   UNL     1       0.519  11.307  19.607  0.00  0.00    +0.000 A 
ATOM      8  C   UNL     1       1.137  10.226  18.959  0.00  0.00    +0.000 A 
BRANCH   5   9
ATOM      9  C   UNL     1      -0.334   9.733  22.984  0.00  0.00    +0.000 C 
ATOM     10  F   UNL     1      -1.008  10.823  23.447  0.00  0.00    +0.000 F 
ATOM     11  F   UNL     1      -1.196   8.686  23.097  0.00  0.00    +0.000 F 
ATOM     12  F   UNL     1       0.661   9.500  23.885  0.00  0.00    +0.000 F 
ENDBRANCH   5   9
BRANCH   7  13
ATOM     13  C   UNL     1       0.364  12.617  18.873  0.00  0.00    +0.000 C 
ATOM     14  F   UNL     1      -0.719  12.646  18.044  0.00  0.00    +0.000 F 
ATOM     15  F   UNL     1       0.216  13.676  19.716  0.00  0.00    +0.000 F 
ATOM     16  F   UNL     1       1.440  12.906  18.091  0.00  0.00    +0.000 F 
ENDBRANCH   7  13
ENDBRANCH   2   3
BRANCH   2  17
ATOM     17  N   UNL     1       3.046   7.304  19.714  0.00  0.00    +0.000 NA
ATOM     18  H   UNL     1       3.049   7.862  20.568  0.00  0.00    +0.000 HD
BRANCH  17  19
ATOM     19  C   UNL     1       2.847   5.898  20.085  0.00  0.00    +0.000 C 
BRANCH  19  20
ATOM     20  C   UNL     1       2.807   4.903  18.942  0.00  0.00    +0.000 A 
ATOM     21  C   UNL     1       1.670   4.117  18.724  0.00  0.00    +0.000 A 
ATOM     22  N   UNL     1       1.536   3.187  17.752  0.00  0.00    +0.000 NA
ATOM     23  C   UNL     1       2.597   3.009  16.951  0.00  0.00    +0.000 A 
ATOM     24  C   UNL     1       3.773   3.728  17.066  0.00  0.00    +0.000 A 
ATOM     25  C   UNL     1       3.919   4.702  18.073  0.00  0.00    +0.000 A 
BRANCH  25  26
ATOM     26  C   UNL     1       5.230   5.411  18.211  0.00  0.00    +0.000 A 
ATOM     27  C   UNL     1       6.123   5.154  19.270  0.00  0.00    +0.000 A 
ATOM     28  C   UNL     1       7.397   5.734  19.327  0.00  0.00    +0.000 A 
ATOM     29  C   UNL     1       7.787   6.662  18.371  0.00  0.00    +0.000 A 
ATOM     30  C   UNL     1       6.897   7.011  17.361  0.00  0.00    +0.000 A 
ATOM     31  C   UNL     1       5.651   6.382  17.280  0.00  0.00    +0.000 A 
ATOM     32  F   UNL     1       4.853   6.742  16.262  0.00  0.00    +0.000 F 
ENDBRANCH  25  26
ENDBRANCH  19  20
ENDBRANCH  17  19
ENDBRANCH   2  17
TORSDOF 7
ENDMDL
MODEL 8
REMARK VINA RESULT:      -8.5      2.818      4.370
REMARK  Name = 
REMARK  8 active torsions:
REMARK  status: ('A' for Active; 'I' for Inactive)
REMARK    1  A    between atoms: C_1  and  C_2
REMARK    2  A    between atoms: C_2  and  N_3
REMARK    3  A    between atoms: C_2  and  C_18
REMARK    4  A    between atoms: N_3  and  C_4
REMARK    5  A    between atoms: C_4  and  C_5
REMARK    6  A    between atoms: C_10  and  C_11
REMARK    7  A    between atoms: C_20  and  C_21
REMARK    8  A    between atoms: C_26  and  C_27
REMARK                            x       y       z     vdW  Elec       q    Type
REMARK                         _______ _______ _______ _____ _____    ______ ____
ROOT
ATOM      1  C   UNL     1       2.382   8.247  17.468  0.00  0.00    +0.000 C 
ATOM      2  C   UNL     1       1.937   7.826  18.876  0.00  0.00    +0.000 C 
ENDROOT
BRANCH   2   3
ATOM      3  C   UNL     1       1.279   8.999  19.589  0.00  0.00    +0.000 A 
ATOM      4  C   UNL     1       1.162  10.245  18.955  0.00  0.00    +0.000 A 
ATOM      5  C   UNL     1       0.567  11.335  19.604  0.00  0.00    +0.000 A 
ATOM      6  C   UNL     1       0.077  11.166  20.911  0.00  0.00    +0.000 A 
ATOM      7  C   UNL     1       0.175   9.931  21.565  0.00  0.00    +0.000 A 
ATOM      8  C   UNL     1       0.775   8.854  20.893  0.00  0.00    +0.000 A 
BRANCH   5   9
ATOM      9  C   UNL     1       0.459  12.680  18.923  0.00  0.00    +0.000 C 
ATOM     10  F   UNL     1       1.483  12.937  18.062  0.00  0.00    +0.000 F 
ATOM     11  F   UNL     1      -0.682  12.802  18.192  0.00  0.00    +0.000 F 
ATOM     12  F   UNL     1       0.451  13.712  19.811  0.00  0.00    +0.000 F 
ENDBRANCH   5   9
BRANCH   7  13
ATOM     13  C   UNL     1      -0.330   9.734  22.974  0.00  0.00    +0.000 C 
ATOM     14  F   UNL     1      -1.201   8.690  23.092  0.00  0.00    +0.000 F 
ATOM     15  F   UNL     1       0.672   9.487  23.861  0.00  0.00    +0.000 F 
ATOM     16  F   UNL     1      -0.992  10.826  23.446  0.00  0.00    +0.000 F 
ENDBRANCH   7  13
ENDBRANCH   2   3
BRANCH   2  17
ATOM     17  N   UNL     1       3.042   7.321  19.713  0.00  0.00    +0.000 NA
ATOM     18  H   UNL     1       3.050   7.886  20.562  0.00  0.00    +0.000 HD
BRANCH  17  19
ATOM     19  C   UNL     1       2.840   5.919  20.097  0.00  0.00    +0.000 C 
BRANCH  19  20
ATOM     20  C   UNL     1       2.794   4.914  18.963  0.00  0.00    +0.000 A 
ATOM     21  C   UNL     1       1.655   4.127  18.757  0.00  0.00    +0.000 A 
ATOM     22  N   UNL     1       1.517   3.188  17.793  0.00  0.00    +0.000 NA
ATOM     23  C   UNL     1       2.574   3.002  16.990  0.00  0.00    +0.000 A 
ATOM     24  C   UNL     1       3.751   3.720  17.094  0.00  0.00    +0.000 A 
ATOM     25  C   UNL     1       3.902   4.704  18.092  0.00  0.00    +0.000 A 
BRANCH  25  26
ATOM     26  C   UNL     1       5.215   5.413  18.217  0.00  0.00    +0.000 A 
ATOM     27  C   UNL     1       6.113   5.162  19.273  0.00  0.00    +0.000 A 
ATOM     28  C   UNL     1       7.388   5.741  19.320  0.00  0.00    +0.000 A 
ATOM     29  C   UNL     1       7.773   6.662  18.355  0.00  0.00    +0.000 A 
ATOM     30  C   UNL     1       6.878   7.005  17.348  0.00  0.00    +0.000 A 
ATOM     31  C   UNL     1       5.631   6.377  17.278  0.00  0.00    +0.000 A 
ATOM     32  F   UNL     1       4.828   6.731  16.262  0.00  0.00    +0.000 F 
ENDBRANCH  25  26
ENDBRANCH  19  20
ENDBRANCH  17  19
ENDBRANCH   2  17
TORSDOF 7
ENDMDL
MODEL 9
REMARK VINA RESULT:      -8.5      1.911      3.273
REMARK  Name = 
REMARK  8 active torsions:
REMARK  status: ('A' for Active; 'I' for Inactive)
REMARK    1  A    between atoms: C_1  and  C_2
REMARK    2  A    between atoms: C_2  and  N_3
REMARK    3  A    between atoms: C_2  and  C_18
REMARK    4  A    between atoms: N_3  and  C_4
REMARK    5  A    between atoms: C_4  and  C_5
REMARK    6  A    between atoms: C_10  and  C_11
REMARK    7  A    between atoms: C_20  and  C_21
REMARK    8  A    between atoms: C_26  and  C_27
REMARK                            x       y       z     vdW  Elec       q    Type
REMARK                         _______ _______ _______ _____ _____    ______ ____
ROOT
ATOM      1  C   UNL     1       1.057   8.547  20.859  0.00  0.00    +0.000 C 
ATOM      2  C   UNL     1       1.532   9.157  19.533  0.00  0.00    +0.000 C 
ENDROOT
BRANCH   2   3
ATOM      3  C   UNL     1       0.501  10.148  19.014  0.00  0.00    +0.000 A 
ATOM      4  C   UNL     1       0.628  11.519  19.285  0.00  0.00    +0.000 A 
ATOM      5  C   UNL     1      -0.319  12.441  18.820  0.00  0.00    +0.000 A 
ATOM      6  C   UNL     1      -1.410  11.975  18.065  0.00  0.00    +0.000 A 
ATOM      7  C   UNL     1      -1.558  10.613  17.774  0.00  0.00    +0.000 A 
ATOM      8  C   UNL     1      -0.594   9.710  18.250  0.00  0.00    +0.000 A 
BRANCH   5   9
ATOM      9  C   UNL     1      -0.188  13.913  19.130  0.00  0.00    +0.000 C 
ATOM     10  F   UNL     1      -0.493  14.721  18.077  0.00  0.00    +0.000 F 
ATOM     11  F   UNL     1      -1.001  14.304  20.149  0.00  0.00    +0.000 F 
ATOM     12  F   UNL     1       1.076  14.253  19.506  0.00  0.00    +0.000 F 
ENDBRANCH   5   9
BRANCH   7  13
ATOM     13  C   UNL     1      -2.730  10.091  16.978  0.00  0.00    +0.000 C 
ATOM     14  F   UNL     1      -2.364   9.505  15.801  0.00  0.00    +0.000 F 
ATOM     15  F   UNL     1      -3.447   9.153  17.654  0.00  0.00    +0.000 F 
ATOM     16  F   UNL     1      -3.612  11.074  16.646  0.00  0.00    +0.000 F 
ENDBRANCH   7  13
ENDBRANCH   2   3
BRANCH   2  17
ATOM     17  N   UNL     1       1.794   8.151  18.487  0.00  0.00    +0.000 NA
ATOM     18  H   UNL     1       2.143   8.658  17.673  0.00  0.00    +0.000 HD
BRANCH  17  19
ATOM     19  C   UNL     1       2.819   7.186  18.899  0.00  0.00    +0.000 C 
BRANCH  19  20
ATOM     20  C   UNL     1       2.785   5.836  18.208  0.00  0.00    +0.000 A 
ATOM     21  C   UNL     1       1.573   5.155  18.040  0.00  0.00    +0.000 A 
ATOM     22  N   UNL     1       1.433   3.942  17.460  0.00  0.00    +0.000 NA
ATOM     23  C   UNL     1       2.559   3.355  17.031  0.00  0.00    +0.000 A 
ATOM     24  C   UNL     1       3.812   3.930  17.139  0.00  0.00    +0.000 A 
ATOM     25  C   UNL     1       3.968   5.196  17.737  0.00  0.00    +0.000 A 
BRANCH  25  26
ATOM     26  C   UNL     1       5.347   5.757  17.899  0.00  0.00    +0.000 A 
ATOM     27  C   UNL     1       5.856   6.768  17.062  0.00  0.00    +0.000 A 
ATOM     28  C   UNL     1       7.100   7.370  17.292  0.00  0.00    +0.000 A 
ATOM     29  C   UNL     1       7.917   6.915  18.318  0.00  0.00    +0.000 A 
ATOM     30  C   UNL     1       7.488   5.855  19.109  0.00  0.00    +0.000 A 
ATOM     31  C   UNL     1       6.220   5.302  18.908  0.00  0.00    +0.000 A 
ATOM     32  F   UNL     1       5.854   4.303  19.726  0.00  0.00    +0.000 F 
ENDBRANCH  25  26
ENDBRANCH  19  20
ENDBRANCH  17  19
ENDBRANCH   2  17
TORSDOF 7
ENDMDL
