MODEL 1
REMARK VINA RESULT:      -7.9      0.000      0.000
REMARK  Name = 
REMARK  7 active torsions:
REMARK  status: ('A' for Active; 'I' for Inactive)
REMARK    1  A    between atoms: C_1  and  O_2
REMARK    2  A    between atoms: O_2  and  C_3
REMARK    3  A    between atoms: C_6  and  C_7
REMARK    4  A    between atoms: C_7  and  C_8
REMARK    5  A    between atoms: C_7  and  C_10
REMARK    6  A    between atoms: C_8  and  N_9
REMARK    7  A    between atoms: N_12  and  C_13
REMARK                            x       y       z     vdW  Elec       q    Type
REMARK                         _______ _______ _______ _____ _____    ______ ____
ROOT
ATOM      1  C   UNL     1       2.767   4.867  18.705  0.00  0.00    +0.000 C 
ATOM      2  O   UNL     1       1.576   4.565  18.784  0.00  0.00    +0.000 OA
ATOM      3  N   UNL     1       3.252   6.156  18.863  0.00  0.00    +0.000 N 
ATOM      4  H   UNL     1       4.179   6.318  18.463  0.00  0.00    +0.000 HD
ENDROOT
BRANCH   3   5
ATOM      5  C   UNL     1       2.457   7.286  19.140  0.00  0.00    +0.000 A 
ATOM      6  C   UNL     1       2.226   8.176  18.094  0.00  0.00    +0.000 A 
ATOM      7  C   UNL     1       1.367   9.261  18.268  0.00  0.00    +0.000 A 
ATOM      8  C   UNL     1       0.784   9.517  19.519  0.00  0.00    +0.000 A 
ATOM      9  C   UNL     1      -0.084  10.589  19.740  0.00  0.00    +0.000 A 
ATOM     10  N   UNL     1      -0.631  10.905  20.937  0.00  0.00    +0.000 NA
ATOM     11  C   UNL     1      -0.304  10.108  21.973  0.00  0.00    +0.000 A 
ATOM     12  C   UNL     1       0.531   8.999  21.864  0.00  0.00    +0.000 A 
ATOM     13  C   UNL     1       1.080   8.677  20.614  0.00  0.00    +0.000 A 
ATOM     14  C   UNL     1       1.904   7.547  20.402  0.00  0.00    +0.000 A 
ENDBRANCH   3   5
BRANCH   1  15
ATOM     15  C   UNL     1       3.827   3.810  18.339  0.00  0.00    +0.000 C 
BRANCH  15  19
ATOM     16  C   UNL     1       6.977   4.972  15.557  0.00  0.00    +0.000 A 
ATOM     17  C   UNL     1       5.663   4.784  15.126  0.00  0.00    +0.000 A 
ATOM     18  C   UNL     1       4.657   4.451  16.034  0.00  0.00    +0.000 A 
ATOM     19  C   UNL     1       4.940   4.284  17.404  0.00  0.00    +0.000 A 
ATOM     20  C   UNL     1       6.264   4.474  17.828  0.00  0.00    +0.000 A 
ATOM     21  C   UNL     1       7.272   4.814  16.910  0.00  0.00    +0.000 A 
BRANCH  16  23
ATOM     22  C   UNL     1       7.468   4.966  13.239  0.00  0.00    +0.000 C 
ATOM     23  O   UNL     1       7.873   5.268  14.569  0.00  0.00    +0.000 OA
ENDBRANCH  16  23
ENDBRANCH  15  19
BRANCH  15  24
ATOM     24  C   UNL     1       4.392   3.035  19.553  0.00  0.00    +0.000 C 
BRANCH  24  25
ATOM     25  N   UNL     1       3.376   2.644  20.550  0.00  0.00    +0.000 NA
ATOM     26  H   UNL     1       3.837   2.597  21.465  0.00  0.00    +0.000 HD
ATOM     27  H   UNL     1       3.099   1.677  20.359  0.00  0.00    +0.000 HD
ENDBRANCH  24  25
ENDBRANCH  15  24
ENDBRANCH   1  15
TORSDOF 6
ENDMDL
MODEL 2
REMARK VINA RESULT:      -7.8      0.689      1.118
REMARK  Name = 
REMARK  7 active torsions:
REMARK  status: ('A' for Active; 'I' for Inactive)
REMARK    1  A    between atoms: C_1  and  O_2
REMARK    2  A    between atoms: O_2  and  C_3
REMARK    3  A    between atoms: C_6  and  C_7
REMARK    4  A    between atoms: C_7  and  C_8
REMARK    5  A    between atoms: C_7  and  C_10
REMARK    6  A    between atoms: C_8  and  N_9
REMARK    7  A    between atoms: N_12  and  C_13
REMARK                            x       y       z     vdW  Elec       q    Type
REMARK                         _______ _______ _______ _____ _____    ______ ____
ROOT
ATOM      1  C   UNL     1       2.865   5.153  18.219  0.00  0.00    +0.000 C 
ATOM      2  O   UNL     1       1.750   4.984  17.726  0.00  0.00    +0.000 OA
ATOM      3  N   UNL     1       3.265   6.321  18.849  0.00  0.00    +0.000 N 
ATOM      4  H   UNL     1       4.277   6.446  18.920  0.00  0.00    +0.000 HD
ENDROOT
BRANCH   3   5
ATOM      5  C   UNL     1       2.455   7.462  19.016  0.00  0.00    +0.000 A 
ATOM      6  C   UNL     1       2.270   8.281  17.903  0.00  0.00    +0.000 A 
ATOM      7  C   UNL     1       1.402   9.371  17.966  0.00  0.00    +0.000 A 
ATOM      8  C   UNL     1       0.761   9.705  19.170  0.00  0.00    +0.000 A 
ATOM      9  C   UNL     1      -0.119  10.784  19.281  0.00  0.00    +0.000 A 
ATOM     10  N   UNL     1      -0.721  11.175  20.428  0.00  0.00    +0.000 NA
ATOM     11  C   UNL     1      -0.439  10.449  21.528  0.00  0.00    +0.000 A 
ATOM     12  C   UNL     1       0.403   9.339  21.530  0.00  0.00    +0.000 A 
ATOM     13  C   UNL     1       1.009   8.940  20.330  0.00  0.00    +0.000 A 
ATOM     14  C   UNL     1       1.844   7.802  20.231  0.00  0.00    +0.000 A 
ENDBRANCH   3   5
BRANCH   1  15
ATOM     15  C   UNL     1       3.953   4.068  18.102  0.00  0.00    +0.000 C 
BRANCH  15  19
ATOM     16  C   UNL     1       6.983   5.020  15.114  0.00  0.00    +0.000 A 
ATOM     17  C   UNL     1       7.036   5.563  16.399  0.00  0.00    +0.000 A 
ATOM     18  C   UNL     1       6.082   5.218  17.357  0.00  0.00    +0.000 A 
ATOM     19  C   UNL     1       5.035   4.326  17.053  0.00  0.00    +0.000 A 
ATOM     20  C   UNL     1       4.990   3.785  15.759  0.00  0.00    +0.000 A 
ATOM     21  C   UNL     1       5.955   4.132  14.799  0.00  0.00    +0.000 A 
BRANCH  16  23
ATOM     22  C   UNL     1       7.748   5.195  12.878  0.00  0.00    +0.000 C 
ATOM     23  O   UNL     1       7.957   5.456  14.261  0.00  0.00    +0.000 OA
ENDBRANCH  16  23
ENDBRANCH  15  19
BRANCH  15  24
ATOM     24  C   UNL     1       4.563   3.634  19.456  0.00  0.00    +0.000 C 
BRANCH  24  25
ATOM     25  N   UNL     1       4.954   2.212  19.518  0.00  0.00    +0.000 NA
ATOM     26  H   UNL     1       5.917   2.137  19.170  0.00  0.00    +0.000 HD
ATOM     27  H   UNL     1       4.398   1.699  18.829  0.00  0.00    +0.000 HD
ENDBRANCH  24  25
ENDBRANCH  15  24
ENDBRANCH   1  15
TORSDOF 6
ENDMDL
MODEL 3
REMARK VINA RESULT:      -7.6      0.758      1.607
REMARK  Name = 
REMARK  7 active torsions:
REMARK  status: ('A' for Active; 'I' for Inactive)
REMARK    1  A    between atoms: C_1  and  O_2
REMARK    2  A    between atoms: O_2  and  C_3
REMARK    3  A    between atoms: C_6  and  C_7
REMARK    4  A    between atoms: C_7  and  C_8
REMARK    5  A    between atoms: C_7  and  C_10
REMARK    6  A    between atoms: C_8  and  N_9
REMARK    7  A    between atoms: N_12  and  C_13
REMARK                            x       y       z     vdW  Elec       q    Type
REMARK                         _______ _______ _______ _____ _____    ______ ____
ROOT
ATOM      1  C   UNL     1       2.703   4.772  18.922  0.00  0.00    +0.000 C 
ATOM      2  O   UNL     1       1.519   4.494  18.727  0.00  0.00    +0.000 OA
ATOM      3  N   UNL     1       3.146   6.010  19.361  0.00  0.00    +0.000 N 
ATOM      4  H   UNL     1       4.132   6.204  19.174  0.00  0.00    +0.000 HD
ENDROOT
BRANCH   3   5
ATOM      5  C   UNL     1       2.310   7.108  19.648  0.00  0.00    +0.000 A 
ATOM      6  C   UNL     1       1.663   7.111  20.882  0.00  0.00    +0.000 A 
ATOM      7  C   UNL     1       0.900   8.210  21.276  0.00  0.00    +0.000 A 
ATOM      8  C   UNL     1       0.710   9.296  20.406  0.00  0.00    +0.000 A 
ATOM      9  C   UNL     1      -0.043  10.420  20.757  0.00  0.00    +0.000 A 
ATOM     10  N   UNL     1      -0.295  11.466  19.937  0.00  0.00    +0.000 NA
ATOM     11  C   UNL     1       0.235  11.398  18.700  0.00  0.00    +0.000 A 
ATOM     12  C   UNL     1       1.020  10.339  18.250  0.00  0.00    +0.000 A 
ATOM     13  C   UNL     1       1.283   9.268  19.117  0.00  0.00    +0.000 A 
ATOM     14  C   UNL     1       2.104   8.172  18.759  0.00  0.00    +0.000 A 
ENDBRANCH   3   5
BRANCH   1  15
ATOM     15  C   UNL     1       3.816   3.752  18.611  0.00  0.00    +0.000 C 
BRANCH  15  19
ATOM     16  C   UNL     1       6.908   4.906  15.762  0.00  0.00    +0.000 A 
ATOM     17  C   UNL     1       5.642   4.501  15.333  0.00  0.00    +0.000 A 
ATOM     18  C   UNL     1       4.649   4.173  16.258  0.00  0.00    +0.000 A 
ATOM     19  C   UNL     1       4.899   4.229  17.643  0.00  0.00    +0.000 A 
ATOM     20  C   UNL     1       6.174   4.637  18.064  0.00  0.00    +0.000 A 
ATOM     21  C   UNL     1       7.168   4.971  17.129  0.00  0.00    +0.000 A 
BRANCH  16  23
ATOM     22  C   UNL     1       7.334   4.971  13.431  0.00  0.00    +0.000 C 
ATOM     23  O   UNL     1       7.798   5.174  14.761  0.00  0.00    +0.000 OA
ENDBRANCH  16  23
ENDBRANCH  15  19
BRANCH  15  24
ATOM     24  C   UNL     1       4.425   3.080  19.864  0.00  0.00    +0.000 C 
BRANCH  24  25
ATOM     25  N   UNL     1       4.902   1.701  19.641  0.00  0.00    +0.000 NA
ATOM     26  H   UNL     1       5.390   1.680  18.738  0.00  0.00    +0.000 HD
ATOM     27  H   UNL     1       4.086   1.101  19.498  0.00  0.00    +0.000 HD
ENDBRANCH  24  25
ENDBRANCH  15  24
ENDBRANCH   1  15
TORSDOF 6
ENDMDL
MODEL 4
REMARK VINA RESULT:      -7.5      0.809      1.898
REMARK  Name = 
REMARK  7 active torsions:
REMARK  status: ('A' for Active; 'I' for Inactive)
REMARK    1  A    between atoms: C_1  and  O_2
REMARK    2  A    between atoms: O_2  and  C_3
REMARK    3  A    between atoms: C_6  and  C_7
REMARK    4  A    between atoms: C_7  and  C_8
REMARK    5  A    between atoms: C_7  and  C_10
REMARK    6  A    between atoms: C_8  and  N_9
REMARK    7  A    between atoms: N_12  and  C_13
REMARK                            x       y       z     vdW  Elec       q    Type
REMARK                         _______ _______ _______ _____ _____    ______ ____
ROOT
ATOM      1  C   UNL     1       2.827   4.773  18.329  0.00  0.00    +0.000 C 
ATOM      2  O   UNL     1       1.719   4.691  17.799  0.00  0.00    +0.000 OA
ATOM      3  N   UNL     1       3.224   5.827  19.137  0.00  0.00    +0.000 N 
ATOM      4  H   UNL     1       4.235   5.932  19.240  0.00  0.00    +0.000 HD
ENDROOT
BRANCH   3   5
ATOM      5  C   UNL     1       2.418   6.936  19.464  0.00  0.00    +0.000 A 
ATOM      6  C   UNL     1       1.735   6.891  20.678  0.00  0.00    +0.000 A 
ATOM      7  C   UNL     1       0.999   7.994  21.114  0.00  0.00    +0.000 A 
ATOM      8  C   UNL     1       0.873   9.134  20.305  0.00  0.00    +0.000 A 
ATOM      9  C   UNL     1       0.151  10.262  20.700  0.00  0.00    +0.000 A 
ATOM     10  N   UNL     1      -0.040  11.363  19.937  0.00  0.00    +0.000 NA
ATOM     11  C   UNL     1       0.524  11.347  18.713  0.00  0.00    +0.000 A 
ATOM     12  C   UNL     1       1.286  10.288  18.224  0.00  0.00    +0.000 A 
ATOM     13  C   UNL     1       1.485   9.159  19.033  0.00  0.00    +0.000 A 
ATOM     14  C   UNL     1       2.277   8.057  18.635  0.00  0.00    +0.000 A 
ENDBRANCH   3   5
BRANCH   1  15
ATOM     15  C   UNL     1       3.911   3.709  18.063  0.00  0.00    +0.000 C 
BRANCH  15  19
ATOM     16  C   UNL     1       6.935   4.982  15.191  0.00  0.00    +0.000 A 
ATOM     17  C   UNL     1       7.225   4.884  16.553  0.00  0.00    +0.000 A 
ATOM     18  C   UNL     1       6.259   4.436  17.456  0.00  0.00    +0.000 A 
ATOM     19  C   UNL     1       4.965   4.085  17.021  0.00  0.00    +0.000 A 
ATOM     20  C   UNL     1       4.683   4.188  15.651  0.00  0.00    +0.000 A 
ATOM     21  C   UNL     1       5.661   4.634  14.746  0.00  0.00    +0.000 A 
BRANCH  16  23
ATOM     22  C   UNL     1       7.838   5.238  13.015  0.00  0.00    +0.000 C 
ATOM     23  O   UNL     1       7.955   5.457  14.416  0.00  0.00    +0.000 OA
ENDBRANCH  16  23
ENDBRANCH  15  19
BRANCH  15  24
ATOM     24  C   UNL     1       4.555   3.128  19.344  0.00  0.00    +0.000 C 
BRANCH  24  25
ATOM     25  N   UNL     1       4.593   1.653  19.388  0.00  0.00    +0.000 NA
ATOM     26  H   UNL     1       4.774   1.315  18.436  0.00  0.00    +0.000 HD
ATOM     27  H   UNL     1       3.649   1.317  19.597  0.00  0.00    +0.000 HD
ENDBRANCH  24  25
ENDBRANCH  15  24
ENDBRANCH   1  15
TORSDOF 6
ENDMDL
MODEL 5
REMARK VINA RESULT:      -7.4      0.988      1.024
REMARK  Name = 
REMARK  7 active torsions:
REMARK  status: ('A' for Active; 'I' for Inactive)
REMARK    1  A    between atoms: C_1  and  O_2
REMARK    2  A    between atoms: O_2  and  C_3
REMARK    3  A    between atoms: C_6  and  C_7
REMARK    4  A    between atoms: C_7  and  C_8
REMARK    5  A    between atoms: C_7  and  C_10
REMARK    6  A    between atoms: C_8  and  N_9
REMARK    7  A    between atoms: N_12  and  C_13
REMARK                            x       y       z     vdW  Elec       q    Type
REMARK                         _______ _______ _______ _____ _____    ______ ____
ROOT
ATOM      1  C   UNL     1       2.805   5.016  19.969  0.00  0.00    +0.000 C 
ATOM      2  O   UNL     1       2.220   4.894  21.045  0.00  0.00    +0.000 OA
ATOM      3  N   UNL     1       2.795   6.174  19.207  0.00  0.00    +0.000 N 
ATOM      4  H   UNL     1       3.034   6.043  18.223  0.00  0.00    +0.000 HD
ENDROOT
BRANCH   3   5
ATOM      5  C   UNL     1       2.125   7.363  19.562  0.00  0.00    +0.000 A 
ATOM      6  C   UNL     1       2.009   8.347  18.581  0.00  0.00    +0.000 A 
ATOM      7  C   UNL     1       1.273   9.505  18.828  0.00  0.00    +0.000 A 
ATOM      8  C   UNL     1       0.703   9.734  20.090  0.00  0.00    +0.000 A 
ATOM      9  C   UNL     1      -0.045  10.877  20.384  0.00  0.00    +0.000 A 
ATOM     10  N   UNL     1      -0.572  11.164  21.596  0.00  0.00    +0.000 NA
ATOM     11  C   UNL     1      -0.351  10.263  22.573  0.00  0.00    +0.000 A 
ATOM     12  C   UNL     1       0.358   9.078  22.389  0.00  0.00    +0.000 A 
ATOM     13  C   UNL     1       0.887   8.789  21.123  0.00  0.00    +0.000 A 
ATOM     14  C   UNL     1       1.584   7.592  20.835  0.00  0.00    +0.000 A 
ENDBRANCH   3   5
BRANCH   1  15
ATOM     15  C   UNL     1       3.553   3.826  19.337  0.00  0.00    +0.000 C 
BRANCH  15  19
ATOM     16  C   UNL     1       6.694   4.645  16.426  0.00  0.00    +0.000 A 
ATOM     17  C   UNL     1       5.465   4.112  16.035  0.00  0.00    +0.000 A 
ATOM     18  C   UNL     1       4.454   3.892  16.972  0.00  0.00    +0.000 A 
ATOM     19  C   UNL     1       4.650   4.189  18.335  0.00  0.00    +0.000 A 
ATOM     20  C   UNL     1       5.889   4.723  18.719  0.00  0.00    +0.000 A 
ATOM     21  C   UNL     1       6.902   4.947  17.771  0.00  0.00    +0.000 A 
BRANCH  16  23
ATOM     22  C   UNL     1       7.089   4.837  14.098  0.00  0.00    +0.000 C 
ATOM     23  O   UNL     1       7.609   4.787  15.421  0.00  0.00    +0.000 OA
ENDBRANCH  16  23
ENDBRANCH  15  19
BRANCH  15  24
ATOM     24  C   UNL     1       4.041   2.771  20.359  0.00  0.00    +0.000 C 
BRANCH  24  25
ATOM     25  N   UNL     1       4.876   1.703  19.777  0.00  0.00    +0.000 NA
ATOM     26  H   UNL     1       5.018   0.987  20.498  0.00  0.00    +0.000 HD
ATOM     27  H   UNL     1       5.812   2.084  19.615  0.00  0.00    +0.000 HD
ENDBRANCH  24  25
ENDBRANCH  15  24
ENDBRANCH   1  15
TORSDOF 6
ENDMDL
MODEL 6
REMARK VINA RESULT:      -7.1      1.650      2.176
REMARK  Name = 
REMARK  7 active torsions:
REMARK  status: ('A' for Active; 'I' for Inactive)
REMARK    1  A    between atoms: C_1  and  O_2
REMARK    2  A    between atoms: O_2  and  C_3
REMARK    3  A    between atoms: C_6  and  C_7
REMARK    4  A    between atoms: C_7  and  C_8
REMARK    5  A    between atoms: C_7  and  C_10
REMARK    6  A    between atoms: C_8  and  N_9
REMARK    7  A    between atoms: N_12  and  C_13
REMARK                            x       y       z     vdW  Elec       q    Type
REMARK                         _______ _______ _______ _____ _____    ______ ____
ROOT
ATOM      1  C   UNL     1       2.047   5.483  19.760  0.00  0.00    +0.000 C 
ATOM      2  O   UNL     1       0.928   5.135  20.138  0.00  0.00    +0.000 OA
ATOM      3  N   UNL     1       2.476   6.801  19.718  0.00  0.00    +0.000 N 
ATOM      4  H   UNL     1       3.273   6.974  19.101  0.00  0.00    +0.000 HD
ENDROOT
BRANCH   3   5
ATOM      5  C   UNL     1       1.699   7.912  20.103  0.00  0.00    +0.000 A 
ATOM      6  C   UNL     1       1.434   8.874  19.130  0.00  0.00    +0.000 A 
ATOM      7  C   UNL     1       0.589   9.947  19.411  0.00  0.00    +0.000 A 
ATOM      8  C   UNL     1       0.054  10.118  20.698  0.00  0.00    +0.000 A 
ATOM      9  C   UNL     1      -0.798  11.175  21.026  0.00  0.00    +0.000 A 
ATOM     10  N   UNL     1      -1.298  11.408  22.261  0.00  0.00    +0.000 NA
ATOM     11  C   UNL     1      -0.937  10.540  23.226  0.00  0.00    +0.000 A 
ATOM     12  C   UNL     1      -0.114   9.438  23.009  0.00  0.00    +0.000 A 
ATOM     13  C   UNL     1       0.386   9.202  21.720  0.00  0.00    +0.000 A 
ATOM     14  C   UNL     1       1.194   8.086  21.399  0.00  0.00    +0.000 A 
ENDBRANCH   3   5
BRANCH   1  15
ATOM     15  C   UNL     1       3.057   4.450  19.223  0.00  0.00    +0.000 C 
BRANCH  15  19
ATOM     16  C   UNL     1       6.544   6.264  17.336  0.00  0.00    +0.000 A 
ATOM     17  C   UNL     1       6.591   5.801  18.652  0.00  0.00    +0.000 A 
ATOM     18  C   UNL     1       5.479   5.186  19.230  0.00  0.00    +0.000 A 
ATOM     19  C   UNL     1       4.279   5.028  18.509  0.00  0.00    +0.000 A 
ATOM     20  C   UNL     1       4.241   5.497  17.187  0.00  0.00    +0.000 A 
ATOM     21  C   UNL     1       5.365   6.111  16.609  0.00  0.00    +0.000 A 
BRANCH  16  23
ATOM     22  C   UNL     1       8.062   8.069  17.562  0.00  0.00    +0.000 C 
ATOM     23  O   UNL     1       7.686   6.870  16.895  0.00  0.00    +0.000 OA
ENDBRANCH  16  23
ENDBRANCH  15  19
BRANCH  15  24
ATOM     24  C   UNL     1       3.456   3.363  20.249  0.00  0.00    +0.000 C 
BRANCH  24  25
ATOM     25  N   UNL     1       2.617   3.338  21.463  0.00  0.00    +0.000 NA
ATOM     26  H   UNL     1       2.677   2.396  21.866  0.00  0.00    +0.000 HD
ATOM     27  H   UNL     1       1.638   3.425  21.176  0.00  0.00    +0.000 HD
ENDBRANCH  24  25
ENDBRANCH  15  24
ENDBRANCH   1  15
TORSDOF 6
ENDMDL
MODEL 7
REMARK VINA RESULT:      -7.1      1.177      1.951
REMARK  Name = 
REMARK  7 active torsions:
REMARK  status: ('A' for Active; 'I' for Inactive)
REMARK    1  A    between atoms: C_1  and  O_2
REMARK    2  A    between atoms: O_2  and  C_3
REMARK    3  A    between atoms: C_6  and  C_7
REMARK    4  A    between atoms: C_7  and  C_8
REMARK    5  A    between atoms: C_7  and  C_10
REMARK    6  A    between atoms: C_8  and  N_9
REMARK    7  A    between atoms: N_12  and  C_13
REMARK                            x       y       z     vdW  Elec       q    Type
REMARK                         _______ _______ _______ _____ _____    ______ ____
ROOT
ATOM      1  C   UNL     1       2.108   4.893  19.921  0.00  0.00    +0.000 C 
ATOM      2  O   UNL     1       0.959   4.691  20.318  0.00  0.00    +0.000 OA
ATOM      3  N   UNL     1       2.660   6.153  19.755  0.00  0.00    +0.000 N 
ATOM      4  H   UNL     1       3.471   6.189  19.134  0.00  0.00    +0.000 HD
ENDROOT
BRANCH   3   5
ATOM      5  C   UNL     1       1.991   7.365  20.022  0.00  0.00    +0.000 A 
ATOM      6  C   UNL     1       1.530   7.566  21.322  0.00  0.00    +0.000 A 
ATOM      7  C   UNL     1       0.949   8.781  21.684  0.00  0.00    +0.000 A 
ATOM      8  C   UNL     1       0.751   9.791  20.729  0.00  0.00    +0.000 A 
ATOM      9  C   UNL     1       0.177  11.025  21.044  0.00  0.00    +0.000 A 
ATOM     10  N   UNL     1      -0.078  12.008  20.151  0.00  0.00    +0.000 NA
ATOM     11  C   UNL     1       0.260  11.757  18.872  0.00  0.00    +0.000 A 
ATOM     12  C   UNL     1       0.860  10.573  18.446  0.00  0.00    +0.000 A 
ATOM     13  C   UNL     1       1.130   9.569  19.387  0.00  0.00    +0.000 A 
ATOM     14  C   UNL     1       1.773   8.354  19.053  0.00  0.00    +0.000 A 
ENDBRANCH   3   5
BRANCH   1  15
ATOM     15  C   UNL     1       3.015   3.721  19.498  0.00  0.00    +0.000 C 
BRANCH  15  19
ATOM     16  C   UNL     1       6.373   4.557  16.846  0.00  0.00    +0.000 A 
ATOM     17  C   UNL     1       5.128   4.179  16.341  0.00  0.00    +0.000 A 
ATOM     18  C   UNL     1       4.051   3.954  17.199  0.00  0.00    +0.000 A 
ATOM     19  C   UNL     1       4.193   4.088  18.594  0.00  0.00    +0.000 A 
ATOM     20  C   UNL     1       5.448   4.467  19.093  0.00  0.00    +0.000 A 
ATOM     21  C   UNL     1       6.528   4.698  18.224  0.00  0.00    +0.000 A 
BRANCH  16  23
ATOM     22  C   UNL     1       6.924   4.766  14.551  0.00  0.00    +0.000 C 
ATOM     23  O   UNL     1       7.352   4.722  15.907  0.00  0.00    +0.000 OA
ENDBRANCH  16  23
ENDBRANCH  15  19
BRANCH  15  24
ATOM     24  C   UNL     1       3.455   2.807  20.667  0.00  0.00    +0.000 C 
BRANCH  24  25
ATOM     25  N   UNL     1       2.581   2.878  21.854  0.00  0.00    +0.000 NA
ATOM     26  H   UNL     1       1.779   3.474  21.618  0.00  0.00    +0.000 HD
ATOM     27  H   UNL     1       3.075   3.400  22.582  0.00  0.00    +0.000 HD
ENDBRANCH  24  25
ENDBRANCH  15  24
ENDBRANCH   1  15
TORSDOF 6
ENDMDL
MODEL 8
REMARK VINA RESULT:      -7.1      1.284      1.587
REMARK  Name = 
REMARK  7 active torsions:
REMARK  status: ('A' for Active; 'I' for Inactive)
REMARK    1  A    between atoms: C_1  and  O_2
REMARK    2  A    between atoms: O_2  and  C_3
REMARK    3  A    between atoms: C_6  and  C_7
REMARK    4  A    between atoms: C_7  and  C_8
REMARK    5  A    between atoms: C_7  and  C_10
REMARK    6  A    between atoms: C_8  and  N_9
REMARK    7  A    between atoms: N_12  and  C_13
REMARK                            x       y       z     vdW  Elec       q    Type
REMARK                         _______ _______ _______ _____ _____    ______ ____
ROOT
ATOM      1  C   UNL     1       1.926   5.371  20.046  0.00  0.00    +0.000 C 
ATOM      2  O   UNL     1       0.783   5.096  20.413  0.00  0.00    +0.000 OA
ATOM      3  N   UNL     1       2.419   6.663  19.949  0.00  0.00    +0.000 N 
ATOM      4  H   UNL     1       3.237   6.766  19.344  0.00  0.00    +0.000 HD
ENDROOT
BRANCH   3   5
ATOM      5  C   UNL     1       1.689   7.827  20.260  0.00  0.00    +0.000 A 
ATOM      6  C   UNL     1       1.527   8.769  19.245  0.00  0.00    +0.000 A 
ATOM      7  C   UNL     1       0.732   9.897  19.450  0.00  0.00    +0.000 A 
ATOM      8  C   UNL     1       0.147  10.140  20.702  0.00  0.00    +0.000 A 
ATOM      9  C   UNL     1      -0.659  11.253  20.954  0.00  0.00    +0.000 A 
ATOM     10  N   UNL     1      -1.204  11.556  22.154  0.00  0.00    +0.000 NA
ATOM     11  C   UNL     1      -0.941  10.702  23.163  0.00  0.00    +0.000 A 
ATOM     12  C   UNL     1      -0.172   9.550  23.022  0.00  0.00    +0.000 A 
ATOM     13  C   UNL     1       0.375   9.243  21.767  0.00  0.00    +0.000 A 
ATOM     14  C   UNL     1       1.133   8.074  21.523  0.00  0.00    +0.000 A 
ENDBRANCH   3   5
BRANCH   1  15
ATOM     15  C   UNL     1       2.895   4.265  19.585  0.00  0.00    +0.000 C 
BRANCH  15  19
ATOM     16  C   UNL     1       6.126   5.431  16.899  0.00  0.00    +0.000 A 
ATOM     17  C   UNL     1       4.788   5.610  16.544  0.00  0.00    +0.000 A 
ATOM     18  C   UNL     1       3.765   5.270  17.430  0.00  0.00    +0.000 A 
ATOM     19  C   UNL     1       4.052   4.726  18.697  0.00  0.00    +0.000 A 
ATOM     20  C   UNL     1       5.400   4.549  19.045  0.00  0.00    +0.000 A 
ATOM     21  C   UNL     1       6.426   4.898  18.152  0.00  0.00    +0.000 A 
BRANCH  16  23
ATOM     22  C   UNL     1       7.263   4.817  14.913  0.00  0.00    +0.000 C 
ATOM     23  O   UNL     1       7.031   5.778  15.936  0.00  0.00    +0.000 OA
ENDBRANCH  16  23
ENDBRANCH  15  19
BRANCH  15  24
ATOM     24  C   UNL     1       3.384   3.338  20.723  0.00  0.00    +0.000 C 
BRANCH  24  25
ATOM     25  N   UNL     1       2.367   3.057  21.756  0.00  0.00    +0.000 NA
ATOM     26  H   UNL     1       1.573   3.686  21.593  0.00  0.00    +0.000 HD
ATOM     27  H   UNL     1       2.742   3.356  22.660  0.00  0.00    +0.000 HD
ENDBRANCH  24  25
ENDBRANCH  15  24
ENDBRANCH   1  15
TORSDOF 6
ENDMDL
MODEL 9
REMARK VINA RESULT:      -7.1      1.180      2.187
REMARK  Name = 
REMARK  7 active torsions:
REMARK  status: ('A' for Active; 'I' for Inactive)
REMARK    1  A    between atoms: C_1  and  O_2
REMARK    2  A    between atoms: O_2  and  C_3
REMARK    3  A    between atoms: C_6  and  C_7
REMARK    4  A    between atoms: C_7  and  C_8
REMARK    5  A    between atoms: C_7  and  C_10
REMARK    6  A    between atoms: C_8  and  N_9
REMARK    7  A    between atoms: N_12  and  C_13
REMARK                            x       y       z     vdW  Elec       q    Type
REMARK                         _______ _______ _______ _____ _____    ______ ____
ROOT
ATOM      1  C   UNL     1       2.041   4.704  19.846  0.00  0.00    +0.000 C 
ATOM      2  O   UNL     1       0.887   4.548  20.246  0.00  0.00    +0.000 OA
ATOM      3  N   UNL     1       2.636   5.942  19.657  0.00  0.00    +0.000 N 
ATOM      4  H   UNL     1       3.448   5.938  19.036  0.00  0.00    +0.000 HD
ENDROOT
BRANCH   3   5
ATOM      5  C   UNL     1       2.009   7.180  19.900  0.00  0.00    +0.000 A 
ATOM      6  C   UNL     1       1.457   7.378  21.165  0.00  0.00    +0.000 A 
ATOM      7  C   UNL     1       0.910   8.614  21.510  0.00  0.00    +0.000 A 
ATOM      8  C   UNL     1       0.837   9.651  20.567  0.00  0.00    +0.000 A 
ATOM      9  C   UNL     1       0.301  10.906  20.866  0.00  0.00    +0.000 A 
ATOM     10  N   UNL     1       0.165  11.919  19.980  0.00  0.00    +0.000 NA
ATOM     11  C   UNL     1       0.590  11.676  18.725  0.00  0.00    +0.000 A 
ATOM     12  C   UNL     1       1.162  10.473  18.319  0.00  0.00    +0.000 A 
ATOM     13  C   UNL     1       1.309   9.437  19.254  0.00  0.00    +0.000 A 
ATOM     14  C   UNL     1       1.915   8.198  18.941  0.00  0.00    +0.000 A 
ENDBRANCH   3   5
BRANCH   1  15
ATOM     15  C   UNL     1       2.908   3.494  19.446  0.00  0.00    +0.000 C 
BRANCH  15  19
ATOM     16  C   UNL     1       6.146   4.539  16.718  0.00  0.00    +0.000 A 
ATOM     17  C   UNL     1       6.331   4.554  18.102  0.00  0.00    +0.000 A 
ATOM     18  C   UNL     1       5.298   4.179  18.962  0.00  0.00    +0.000 A 
ATOM     19  C   UNL     1       4.040   3.788  18.461  0.00  0.00    +0.000 A 
ATOM     20  C   UNL     1       3.864   3.777  17.069  0.00  0.00    +0.000 A 
ATOM     21  C   UNL     1       4.909   4.151  16.207  0.00  0.00    +0.000 A 
BRANCH  16  23
ATOM     22  C   UNL     1       7.091   4.880  14.572  0.00  0.00    +0.000 C 
ATOM     23  O   UNL     1       7.223   4.953  15.987  0.00  0.00    +0.000 OA
ENDBRANCH  16  23
ENDBRANCH  15  19
BRANCH  15  24
ATOM     24  C   UNL     1       3.399   2.644  20.642  0.00  0.00    +0.000 C 
BRANCH  24  25
ATOM     25  N   UNL     1       2.589   2.795  21.866  0.00  0.00    +0.000 NA
ATOM     26  H   UNL     1       3.197   3.177  22.600  0.00  0.00    +0.000 HD
ATOM     27  H   UNL     1       2.345   1.860  22.204  0.00  0.00    +0.000 HD
ENDBRANCH  24  25
ENDBRANCH  15  24
ENDBRANCH   1  15
TORSDOF 6
ENDMDL
