MODEL 1
REMARK VINA RESULT:      -6.7      0.000      0.000
REMARK  Name = 
REMARK  5 active torsions:
REMARK  status: ('A' for Active; 'I' for Inactive)
REMARK    1  A    between atoms: C_1  and  N_2
REMARK    2  A    between atoms: N_2  and  C_3
REMARK    3  A    between atoms: C_3  and  C_4
REMARK    4  A    between atoms: C_9  and  C_11
REMARK    5  A    between atoms: C_11  and  N_12
REMARK                            x       y       z     vdW  Elec       q    Type
REMARK                         _______ _______ _______ _____ _____    ______ ____
ROOT
ATOM      1  C   UNL     1       7.777   4.480  17.594  0.00  0.00    +0.000 C 
ATOM      2  N   UNL     1       6.419   4.980  17.464  0.00  0.00    +0.000 N 
ATOM      3  C   UNL     1       5.531   4.693  18.497  0.00  0.00    +0.000 C 
ATOM      4  O   UNL     1       5.888   4.041  19.486  0.00  0.00    +0.000 OA
ENDROOT
BRANCH   2   5
ATOM      5  C   UNL     1       6.121   5.817  16.300  0.00  0.00    +0.000 C 
BRANCH   5   6
ATOM      6  C   UNL     1       6.339   5.122  15.004  0.00  0.00    +0.000 A 
ATOM      7  C   UNL     1       5.709   4.115  14.300  0.00  0.00    +0.000 A 
ATOM      8  C   UNL     1       6.449   3.934  13.105  0.00  0.00    +0.000 A 
ATOM      9  C   UNL     1       7.489   4.831  13.157  0.00  0.00    +0.000 A 
ATOM     10  O   UNL     1       7.429   5.554  14.301  0.00  0.00    +0.000 OA
ENDBRANCH   5   6
ENDBRANCH   2   5
BRANCH   3  11
ATOM     11  C   UNL     1       4.089   5.221  18.430  0.00  0.00    +0.000 C 
BRANCH  11  12
ATOM     12  N   UNL     1       3.103   4.226  18.882  0.00  0.00    +0.000 NA
ATOM     13  C   UNL     1       1.869   4.829  19.402  0.00  0.00    +0.000 C 
ATOM     14  C   UNL     1       1.013   3.739  20.048  0.00  0.00    +0.000 C 
ATOM     15  C   UNL     1       0.692   2.626  19.055  0.00  0.00    +0.000 C 
ATOM     16  C   UNL     1       1.962   2.108  18.389  0.00  0.00    +0.000 C 
ATOM     17  C   UNL     1       2.814   3.249  17.827  0.00  0.00    +0.000 C 
ENDBRANCH  11  12
ENDBRANCH   3  11
TORSDOF 4
ENDMDL
MODEL 2
REMARK VINA RESULT:      -6.5      1.525      1.821
REMARK  Name = 
REMARK  5 active torsions:
REMARK  status: ('A' for Active; 'I' for Inactive)
REMARK    1  A    between atoms: C_1  and  N_2
REMARK    2  A    between atoms: N_2  and  C_3
REMARK    3  A    between atoms: C_3  and  C_4
REMARK    4  A    between atoms: C_9  and  C_11
REMARK    5  A    between atoms: C_11  and  N_12
REMARK                            x       y       z     vdW  Elec       q    Type
REMARK                         _______ _______ _______ _____ _____    ______ ____
ROOT
ATOM      1  C   UNL     1       5.954   7.238  17.257  0.00  0.00    +0.000 C 
ATOM      2  N   UNL     1       5.534   5.854  17.392  0.00  0.00    +0.000 N 
ATOM      3  C   UNL     1       4.218   5.621  17.783  0.00  0.00    +0.000 C 
ATOM      4  O   UNL     1       3.440   6.556  18.002  0.00  0.00    +0.000 OA
ENDROOT
BRANCH   2   5
ATOM      5  C   UNL     1       6.503   4.819  17.023  0.00  0.00    +0.000 C 
BRANCH   5   6
ATOM      6  C   UNL     1       6.544   4.546  15.563  0.00  0.00    +0.000 A 
ATOM      7  C   UNL     1       5.866   3.720  14.688  0.00  0.00    +0.000 A 
ATOM      8  C   UNL     1       6.407   3.963  13.401  0.00  0.00    +0.000 A 
ATOM      9  C   UNL     1       7.389   4.911  13.569  0.00  0.00    +0.000 A 
ATOM     10  O   UNL     1       7.477   5.269  14.873  0.00  0.00    +0.000 OA
ENDBRANCH   5   6
ENDBRANCH   2   5
BRANCH   3  11
ATOM     11  C   UNL     1       3.706   4.177  17.913  0.00  0.00    +0.000 C 
BRANCH  11  12
ATOM     12  N   UNL     1       2.951   3.957  19.158  0.00  0.00    +0.000 NA
ATOM     13  C   UNL     1       1.507   3.806  18.939  0.00  0.00    +0.000 C 
ATOM     14  C   UNL     1       0.793   3.811  20.291  0.00  0.00    +0.000 C 
ATOM     15  C   UNL     1       1.318   2.703  21.198  0.00  0.00    +0.000 C 
ATOM     16  C   UNL     1       2.840   2.755  21.297  0.00  0.00    +0.000 C 
ATOM     17  C   UNL     1       3.495   2.824  19.915  0.00  0.00    +0.000 C 
ENDBRANCH  11  12
ENDBRANCH   3  11
TORSDOF 4
ENDMDL
MODEL 3
REMARK VINA RESULT:      -6.4      1.175      1.760
REMARK  Name = 
REMARK  5 active torsions:
REMARK  status: ('A' for Active; 'I' for Inactive)
REMARK    1  A    between atoms: C_1  and  N_2
REMARK    2  A    between atoms: N_2  and  C_3
REMARK    3  A    between atoms: C_3  and  C_4
REMARK    4  A    between atoms: C_9  and  C_11
REMARK    5  A    between atoms: C_11  and  N_12
REMARK                            x       y       z     vdW  Elec       q    Type
REMARK                         _______ _______ _______ _____ _____    ______ ____
ROOT
ATOM      1  C   UNL     1       6.613   7.185  17.417  0.00  0.00    +0.000 C 
ATOM      2  N   UNL     1       6.289   5.794  17.683  0.00  0.00    +0.000 N 
ATOM      3  C   UNL     1       5.125   5.536  18.403  0.00  0.00    +0.000 C 
ATOM      4  O   UNL     1       4.399   6.456  18.798  0.00  0.00    +0.000 OA
ENDROOT
BRANCH   2   5
ATOM      5  C   UNL     1       7.164   4.777  17.096  0.00  0.00    +0.000 C 
BRANCH   5   6
ATOM      6  C   UNL     1       6.887   4.520  15.659  0.00  0.00    +0.000 A 
ATOM      7  C   UNL     1       5.999   3.742  14.943  0.00  0.00    +0.000 A 
ATOM      8  C   UNL     1       6.275   3.972  13.572  0.00  0.00    +0.000 A 
ATOM      9  C   UNL     1       7.320   4.864  13.534  0.00  0.00    +0.000 A 
ATOM     10  O   UNL     1       7.695   5.202  14.791  0.00  0.00    +0.000 OA
ENDBRANCH   5   6
ENDBRANCH   2   5
BRANCH   3  11
ATOM     11  C   UNL     1       4.713   4.083  18.689  0.00  0.00    +0.000 C 
BRANCH  11  12
ATOM     12  N   UNL     1       3.271   3.948  18.957  0.00  0.00    +0.000 NA
ATOM     13  C   UNL     1       2.677   2.758  18.335  0.00  0.00    +0.000 C 
ATOM     14  C   UNL     1       1.156   2.827  18.477  0.00  0.00    +0.000 C 
ATOM     15  C   UNL     1       0.740   2.934  19.941  0.00  0.00    +0.000 C 
ATOM     16  C   UNL     1       1.484   4.071  20.636  0.00  0.00    +0.000 C 
ATOM     17  C   UNL     1       2.993   3.991  20.396  0.00  0.00    +0.000 C 
ENDBRANCH  11  12
ENDBRANCH   3  11
TORSDOF 4
ENDMDL
MODEL 4
REMARK VINA RESULT:      -6.2      0.587      1.317
REMARK  Name = 
REMARK  5 active torsions:
REMARK  status: ('A' for Active; 'I' for Inactive)
REMARK    1  A    between atoms: C_1  and  N_2
REMARK    2  A    between atoms: N_2  and  C_3
REMARK    3  A    between atoms: C_3  and  C_4
REMARK    4  A    between atoms: C_9  and  C_11
REMARK    5  A    between atoms: C_11  and  N_12
REMARK                            x       y       z     vdW  Elec       q    Type
REMARK                         _______ _______ _______ _____ _____    ______ ____
ROOT
ATOM      1  C   UNL     1       7.347   4.544  17.362  0.00  0.00    +0.000 C 
ATOM      2  N   UNL     1       6.055   5.208  17.349  0.00  0.00    +0.000 N 
ATOM      3  C   UNL     1       5.335   5.226  18.541  0.00  0.00    +0.000 C 
ATOM      4  O   UNL     1       5.781   4.700  19.567  0.00  0.00    +0.000 OA
ENDROOT
BRANCH   2   5
ATOM      5  C   UNL     1       5.657   5.877  16.109  0.00  0.00    +0.000 C 
BRANCH   5   6
ATOM      6  C   UNL     1       6.029   5.121  14.886  0.00  0.00    +0.000 A 
ATOM      7  C   UNL     1       5.522   4.037  14.195  0.00  0.00    +0.000 A 
ATOM      8  C   UNL     1       6.376   3.830  13.084  0.00  0.00    +0.000 A 
ATOM      9  C   UNL     1       7.358   4.788  13.170  0.00  0.00    +0.000 A 
ATOM     10  O   UNL     1       7.155   5.573  14.255  0.00  0.00    +0.000 OA
ENDBRANCH   5   6
ENDBRANCH   2   5
BRANCH   3  11
ATOM     11  C   UNL     1       3.974   5.940  18.597  0.00  0.00    +0.000 C 
BRANCH  11  12
ATOM     12  N   UNL     1       2.852   5.002  18.768  0.00  0.00    +0.000 NA
ATOM     13  C   UNL     1       3.117   3.675  18.199  0.00  0.00    +0.000 C 
ATOM     14  C   UNL     1       1.827   2.854  18.223  0.00  0.00    +0.000 C 
ATOM     15  C   UNL     1       1.275   2.731  19.640  0.00  0.00    +0.000 C 
ATOM     16  C   UNL     1       1.154   4.103  20.298  0.00  0.00    +0.000 C 
ATOM     17  C   UNL     1       2.451   4.906  20.176  0.00  0.00    +0.000 C 
ENDBRANCH  11  12
ENDBRANCH   3  11
TORSDOF 4
ENDMDL
MODEL 5
REMARK VINA RESULT:      -6.2      1.484      1.794
REMARK  Name = 
REMARK  5 active torsions:
REMARK  status: ('A' for Active; 'I' for Inactive)
REMARK    1  A    between atoms: C_1  and  N_2
REMARK    2  A    between atoms: N_2  and  C_3
REMARK    3  A    between atoms: C_3  and  C_4
REMARK    4  A    between atoms: C_9  and  C_11
REMARK    5  A    between atoms: C_11  and  N_12
REMARK                            x       y       z     vdW  Elec       q    Type
REMARK                         _______ _______ _______ _____ _____    ______ ____
ROOT
ATOM      1  C   UNL     1       6.022   6.828  17.443  0.00  0.00    +0.000 C 
ATOM      2  N   UNL     1       5.532   5.477  17.228  0.00  0.00    +0.000 N 
ATOM      3  C   UNL     1       4.168   5.257  17.399  0.00  0.00    +0.000 C 
ATOM      4  O   UNL     1       3.406   6.177  17.720  0.00  0.00    +0.000 OA
ENDROOT
BRANCH   2   5
ATOM      5  C   UNL     1       6.498   4.479  16.764  0.00  0.00    +0.000 C 
BRANCH   5   6
ATOM      6  C   UNL     1       6.641   4.441  15.286  0.00  0.00    +0.000 A 
ATOM      7  C   UNL     1       6.025   3.772  14.246  0.00  0.00    +0.000 A 
ATOM      8  C   UNL     1       6.654   4.210  13.055  0.00  0.00    +0.000 A 
ATOM      9  C   UNL     1       7.622   5.107  13.438  0.00  0.00    +0.000 A 
ATOM     10  O   UNL     1       7.620   5.253  14.785  0.00  0.00    +0.000 OA
ENDBRANCH   5   6
ENDBRANCH   2   5
BRANCH   3  11
ATOM     11  C   UNL     1       3.586   3.855  17.156  0.00  0.00    +0.000 C 
BRANCH  11  12
ATOM     12  N   UNL     1       2.922   3.305  18.349  0.00  0.00    +0.000 NA
ATOM     13  C   UNL     1       3.604   3.654  19.602  0.00  0.00    +0.000 C 
ATOM     14  C   UNL     1       2.980   2.860  20.750  0.00  0.00    +0.000 C 
ATOM     15  C   UNL     1       1.482   3.129  20.859  0.00  0.00    +0.000 C 
ATOM     16  C   UNL     1       0.793   2.927  19.513  0.00  0.00    +0.000 C 
ATOM     17  C   UNL     1       1.506   3.686  18.391  0.00  0.00    +0.000 C 
ENDBRANCH  11  12
ENDBRANCH   3  11
TORSDOF 4
ENDMDL
MODEL 6
REMARK VINA RESULT:      -6.2      1.830      3.150
REMARK  Name = 
REMARK  5 active torsions:
REMARK  status: ('A' for Active; 'I' for Inactive)
REMARK    1  A    between atoms: C_1  and  N_2
REMARK    2  A    between atoms: N_2  and  C_3
REMARK    3  A    between atoms: C_3  and  C_4
REMARK    4  A    between atoms: C_9  and  C_11
REMARK    5  A    between atoms: C_11  and  N_12
REMARK                            x       y       z     vdW  Elec       q    Type
REMARK                         _______ _______ _______ _____ _____    ______ ____
ROOT
ATOM      1  C   UNL     1       6.176   4.035  15.305  0.00  0.00    +0.000 C 
ATOM      2  N   UNL     1       5.305   4.831  16.152  0.00  0.00    +0.000 N 
ATOM      3  C   UNL     1       4.359   4.151  16.913  0.00  0.00    +0.000 C 
ATOM      4  O   UNL     1       4.267   2.919  16.869  0.00  0.00    +0.000 OA
ENDROOT
BRANCH   2   5
ATOM      5  C   UNL     1       5.553   6.274  16.201  0.00  0.00    +0.000 C 
BRANCH   5   6
ATOM      6  C   UNL     1       6.613   6.656  17.170  0.00  0.00    +0.000 A 
ATOM      7  C   UNL     1       7.399   7.770  17.393  0.00  0.00    +0.000 A 
ATOM      8  C   UNL     1       8.219   7.468  18.509  0.00  0.00    +0.000 A 
ATOM      9  C   UNL     1       7.893   6.189  18.891  0.00  0.00    +0.000 A 
ATOM     10  O   UNL     1       6.922   5.691  18.088  0.00  0.00    +0.000 OA
ENDBRANCH   5   6
ENDBRANCH   2   5
BRANCH   3  11
ATOM     11  C   UNL     1       3.429   4.937  17.852  0.00  0.00    +0.000 C 
BRANCH  11  12
ATOM     12  N   UNL     1       2.783   4.075  18.856  0.00  0.00    +0.000 NA
ATOM     13  C   UNL     1       2.861   4.617  20.219  0.00  0.00    +0.000 C 
ATOM     14  C   UNL     1       2.371   3.558  21.207  0.00  0.00    +0.000 C 
ATOM     15  C   UNL     1       0.947   3.116  20.884  0.00  0.00    +0.000 C 
ATOM     16  C   UNL     1       0.822   2.708  19.419  0.00  0.00    +0.000 C 
ATOM     17  C   UNL     1       1.397   3.774  18.483  0.00  0.00    +0.000 C 
ENDBRANCH  11  12
ENDBRANCH   3  11
TORSDOF 4
ENDMDL
MODEL 7
REMARK VINA RESULT:      -6.1      1.247      1.497
REMARK  Name = 
REMARK  5 active torsions:
REMARK  status: ('A' for Active; 'I' for Inactive)
REMARK    1  A    between atoms: C_1  and  N_2
REMARK    2  A    between atoms: N_2  and  C_3
REMARK    3  A    between atoms: C_3  and  C_4
REMARK    4  A    between atoms: C_9  and  C_11
REMARK    5  A    between atoms: C_11  and  N_12
REMARK                            x       y       z     vdW  Elec       q    Type
REMARK                         _______ _______ _______ _____ _____    ______ ____
ROOT
ATOM      1  C   UNL     1       5.896   6.999  17.644  0.00  0.00    +0.000 C 
ATOM      2  N   UNL     1       5.983   5.612  18.067  0.00  0.00    +0.000 N 
ATOM      3  C   UNL     1       5.023   5.158  18.967  0.00  0.00    +0.000 C 
ATOM      4  O   UNL     1       4.133   5.906  19.387  0.00  0.00    +0.000 OA
ENDROOT
BRANCH   2   5
ATOM      5  C   UNL     1       7.019   4.785  17.445  0.00  0.00    +0.000 C 
BRANCH   5   6
ATOM      6  C   UNL     1       6.774   4.521  16.003  0.00  0.00    +0.000 A 
ATOM      7  C   UNL     1       5.946   3.692  15.272  0.00  0.00    +0.000 A 
ATOM      8  C   UNL     1       6.220   3.950  13.906  0.00  0.00    +0.000 A 
ATOM      9  C   UNL     1       7.205   4.908  13.885  0.00  0.00    +0.000 A 
ATOM     10  O   UNL     1       7.545   5.260  15.149  0.00  0.00    +0.000 OA
ENDBRANCH   5   6
ENDBRANCH   2   5
BRANCH   3  11
ATOM     11  C   UNL     1       5.045   3.691  19.428  0.00  0.00    +0.000 C 
BRANCH  11  12
ATOM     12  N   UNL     1       3.706   3.078  19.422  0.00  0.00    +0.000 NA
ATOM     13  C   UNL     1       2.839   3.576  20.497  0.00  0.00    +0.000 C 
ATOM     14  C   UNL     1       1.568   2.727  20.547  0.00  0.00    +0.000 C 
ATOM     15  C   UNL     1       0.834   2.748  19.210  0.00  0.00    +0.000 C 
ATOM     16  C   UNL     1       1.778   2.391  18.065  0.00  0.00    +0.000 C 
ATOM     17  C   UNL     1       3.064   3.220  18.111  0.00  0.00    +0.000 C 
ENDBRANCH  11  12
ENDBRANCH   3  11
TORSDOF 4
ENDMDL
MODEL 8
REMARK VINA RESULT:      -6.1      0.805      1.042
REMARK  Name = 
REMARK  5 active torsions:
REMARK  status: ('A' for Active; 'I' for Inactive)
REMARK    1  A    between atoms: C_1  and  N_2
REMARK    2  A    between atoms: N_2  and  C_3
REMARK    3  A    between atoms: C_3  and  C_4
REMARK    4  A    between atoms: C_9  and  C_11
REMARK    5  A    between atoms: C_11  and  N_12
REMARK                            x       y       z     vdW  Elec       q    Type
REMARK                         _______ _______ _______ _____ _____    ______ ____
ROOT
ATOM      1  C   UNL     1       7.787   4.859  18.048  0.00  0.00    +0.000 C 
ATOM      2  N   UNL     1       6.408   5.264  17.835  0.00  0.00    +0.000 N 
ATOM      3  C   UNL     1       5.492   4.963  18.839  0.00  0.00    +0.000 C 
ATOM      4  O   UNL     1       5.841   4.375  19.869  0.00  0.00    +0.000 OA
ENDROOT
BRANCH   2   5
ATOM      5  C   UNL     1       6.114   6.033  16.623  0.00  0.00    +0.000 C 
BRANCH   5   6
ATOM      6  C   UNL     1       6.204   5.227  15.379  0.00  0.00    +0.000 A 
ATOM      7  C   UNL     1       7.145   5.036  14.385  0.00  0.00    +0.000 A 
ATOM      8  C   UNL     1       6.584   4.110  13.471  0.00  0.00    +0.000 A 
ATOM      9  C   UNL     1       5.334   3.801  13.953  0.00  0.00    +0.000 A 
ATOM     10  O   UNL     1       5.098   4.471  15.106  0.00  0.00    +0.000 OA
ENDBRANCH   5   6
ENDBRANCH   2   5
BRANCH   3  11
ATOM     11  C   UNL     1       4.024   5.394  18.684  0.00  0.00    +0.000 C 
BRANCH  11  12
ATOM     12  N   UNL     1       3.082   4.296  18.959  0.00  0.00    +0.000 NA
ATOM     13  C   UNL     1       1.841   4.747  19.601  0.00  0.00    +0.000 C 
ATOM     14  C   UNL     1       1.036   3.525  20.047  0.00  0.00    +0.000 C 
ATOM     15  C   UNL     1       0.731   2.603  18.870  0.00  0.00    +0.000 C 
ATOM     16  C   UNL     1       2.003   2.265  18.099  0.00  0.00    +0.000 C 
ATOM     17  C   UNL     1       2.802   3.521  17.745  0.00  0.00    +0.000 C 
ENDBRANCH  11  12
ENDBRANCH   3  11
TORSDOF 4
ENDMDL
MODEL 9
REMARK VINA RESULT:      -6.1      2.637      5.875
REMARK  Name = 
REMARK  5 active torsions:
REMARK  status: ('A' for Active; 'I' for Inactive)
REMARK    1  A    between atoms: C_1  and  N_2
REMARK    2  A    between atoms: N_2  and  C_3
REMARK    3  A    between atoms: C_3  and  C_4
REMARK    4  A    between atoms: C_9  and  C_11
REMARK    5  A    between atoms: C_11  and  N_12
REMARK                            x       y       z     vdW  Elec       q    Type
REMARK                         _______ _______ _______ _____ _____    ______ ____
ROOT
ATOM      1  C   UNL     1       2.576   2.737  21.540  0.00  0.00    +0.000 C 
ATOM      2  N   UNL     1       2.840   3.163  20.177  0.00  0.00    +0.000 N 
ATOM      3  C   UNL     1       4.070   2.815  19.625  0.00  0.00    +0.000 C 
ATOM      4  O   UNL     1       4.901   2.167  20.272  0.00  0.00    +0.000 OA
ENDROOT
BRANCH   2   5
ATOM      5  C   UNL     1       1.757   3.848  19.467  0.00  0.00    +0.000 C 
BRANCH   5   6
ATOM      6  C   UNL     1       2.017   5.294  19.250  0.00  0.00    +0.000 A 
ATOM      7  C   UNL     1       2.371   6.089  18.177  0.00  0.00    +0.000 A 
ATOM      8  C   UNL     1       2.452   7.416  18.668  0.00  0.00    +0.000 A 
ATOM      9  C   UNL     1       2.156   7.350  20.008  0.00  0.00    +0.000 A 
ATOM     10  O   UNL     1       1.890   6.071  20.368  0.00  0.00    +0.000 OA
ENDBRANCH   5   6
ENDBRANCH   2   5
BRANCH   3  11
ATOM     11  C   UNL     1       4.394   3.212  18.176  0.00  0.00    +0.000 C 
BRANCH  11  12
ATOM     12  N   UNL     1       5.613   4.033  18.075  0.00  0.00    +0.000 NA
ATOM     13  C   UNL     1       5.774   4.668  16.762  0.00  0.00    +0.000 C 
ATOM     14  C   UNL     1       7.163   5.304  16.681  0.00  0.00    +0.000 C 
ATOM     15  C   UNL     1       7.373   6.320  17.800  0.00  0.00    +0.000 C 
ATOM     16  C   UNL     1       7.044   5.708  19.159  0.00  0.00    +0.000 C 
ATOM     17  C   UNL     1       5.676   5.023  19.156  0.00  0.00    +0.000 C 
ENDBRANCH  11  12
ENDBRANCH   3  11
TORSDOF 4
ENDMDL
