MODEL 1
REMARK VINA RESULT:      -8.4      0.000      0.000
REMARK  Name = 
REMARK  3 active torsions:
REMARK  status: ('A' for Active; 'I' for Inactive)
REMARK    1  A    between atoms: C_2  and  C_3
REMARK    2  A    between atoms: N_12  and  C_13
REMARK    3  A    between atoms: C_13  and  C_14
REMARK                            x       y       z     vdW  Elec       q    Type
REMARK                         _______ _______ _______ _____ _____    ______ ____
ROOT
ATOM      1  O   UNL     1       0.243   7.754  21.794  0.00  0.00    +0.000 OA
ATOM      2  C   UNL     1       0.946   7.895  20.792  0.00  0.00    +0.000 C 
ATOM      3  N   UNL     1       1.734   6.832  20.309  0.00  0.00    +0.000 N 
ATOM      4  C   UNL     1       1.646   5.542  20.985  0.00  0.00    +0.000 C 
ATOM      5  C   UNL     1       1.063   4.410  20.143  0.00  0.00    +0.000 C 
ATOM      6  C   UNL     1       1.419   4.321  18.658  0.00  0.00    +0.000 C 
ATOM      7  N   UNL     1       2.723   4.771  18.164  0.00  0.00    +0.000 NA
ATOM      8  C   UNL     1       2.781   6.243  18.082  0.00  0.00    +0.000 C 
ATOM      9  C   UNL     1       2.887   7.012  19.413  0.00  0.00    +0.000 C 
ENDROOT
BRANCH   2  10
ATOM     10  C   UNL     1       0.991   9.156  20.064  0.00  0.00    +0.000 A 
ATOM     11  C   UNL     1       1.084   9.387  18.705  0.00  0.00    +0.000 A 
ATOM     12  C   UNL     1       1.217  10.770  18.393  0.00  0.00    +0.000 A 
ATOM     13  C   UNL     1       1.119  11.558  19.517  0.00  0.00    +0.000 A 
ATOM     14  S   UNL     1       0.893  10.630  20.936  0.00  0.00    +0.000 S 
ENDBRANCH   2  10
BRANCH   7  15
ATOM     15  C   UNL     1       3.909   4.212  18.837  0.00  0.00    +0.000 C 
BRANCH  15  16
ATOM     16  C   UNL     1       5.258   4.747  18.402  0.00  0.00    +0.000 A 
ATOM     17  C   UNL     1       6.126   5.296  19.363  0.00  0.00    +0.000 A 
ATOM     18  C   UNL     1       7.353   5.837  18.997  0.00  0.00    +0.000 A 
ATOM     19  C   UNL     1       7.750   5.805  17.666  0.00  0.00    +0.000 A 
ATOM     20  C   UNL     1       6.946   5.200  16.687  0.00  0.00    +0.000 A 
ATOM     21  C   UNL     1       7.393   5.143  15.356  0.00  0.00    +0.000 A 
ATOM     22  C   UNL     1       6.638   4.513  14.369  0.00  0.00    +0.000 A 
ATOM     23  C   UNL     1       5.423   3.935  14.697  0.00  0.00    +0.000 A 
ATOM     24  C   UNL     1       4.959   3.998  16.013  0.00  0.00    +0.000 A 
ATOM     25  C   UNL     1       5.693   4.640  17.043  0.00  0.00    +0.000 A 
ENDBRANCH  15  16
ENDBRANCH   7  15
TORSDOF 3
ENDMDL
MODEL 2
REMARK VINA RESULT:      -8.3      2.558      7.133
REMARK  Name = 
REMARK  3 active torsions:
REMARK  status: ('A' for Active; 'I' for Inactive)
REMARK    1  A    between atoms: C_2  and  C_3
REMARK    2  A    between atoms: N_12  and  C_13
REMARK    3  A    between atoms: C_13  and  C_14
REMARK                            x       y       z     vdW  Elec       q    Type
REMARK                         _______ _______ _______ _____ _____    ______ ____
ROOT
ATOM      1  O   UNL     1       2.954   2.401  17.272  0.00  0.00    +0.000 OA
ATOM      2  C   UNL     1       3.366   3.538  17.509  0.00  0.00    +0.000 C 
ATOM      3  N   UNL     1       2.616   4.425  18.305  0.00  0.00    +0.000 N 
ATOM      4  C   UNL     1       1.371   3.943  18.895  0.00  0.00    +0.000 C 
ATOM      5  C   UNL     1       1.365   3.868  20.419  0.00  0.00    +0.000 C 
ATOM      6  C   UNL     1       2.062   4.965  21.226  0.00  0.00    +0.000 C 
ATOM      7  N   UNL     1       2.122   6.344  20.734  0.00  0.00    +0.000 NA
ATOM      8  C   UNL     1       3.140   6.487  19.675  0.00  0.00    +0.000 C 
ATOM      9  C   UNL     1       2.802   5.884  18.298  0.00  0.00    +0.000 C 
ENDROOT
BRANCH   2  10
ATOM     10  C   UNL     1       4.641   4.010  16.986  0.00  0.00    +0.000 A 
ATOM     11  C   UNL     1       5.017   4.275  15.682  0.00  0.00    +0.000 A 
ATOM     12  C   UNL     1       6.395   4.612  15.568  0.00  0.00    +0.000 A 
ATOM     13  C   UNL     1       7.004   4.694  16.800  0.00  0.00    +0.000 A 
ATOM     14  S   UNL     1       5.922   4.341  18.077  0.00  0.00    +0.000 S 
ENDBRANCH   2  10
BRANCH   7  15
ATOM     15  C   UNL     1       0.839   6.960  20.349  0.00  0.00    +0.000 C 
BRANCH  15  16
ATOM     16  C   UNL     1       0.526   8.317  20.947  0.00  0.00    +0.000 A 
ATOM     17  C   UNL     1       0.032   8.395  22.261  0.00  0.00    +0.000 A 
ATOM     18  C   UNL     1      -0.308   9.618  22.829  0.00  0.00    +0.000 A 
ATOM     19  C   UNL     1      -0.124  10.789  22.104  0.00  0.00    +0.000 A 
ATOM     20  C   UNL     1       0.435  10.761  20.817  0.00  0.00    +0.000 A 
ATOM     21  C   UNL     1       0.651  11.964  20.125  0.00  0.00    +0.000 A 
ATOM     22  C   UNL     1       1.243  11.974  18.863  0.00  0.00    +0.000 A 
ATOM     23  C   UNL     1       1.624  10.780  18.274  0.00  0.00    +0.000 A 
ATOM     24  C   UNL     1       1.401   9.575  18.944  0.00  0.00    +0.000 A 
ATOM     25  C   UNL     1       0.792   9.523  20.225  0.00  0.00    +0.000 A 
ENDBRANCH  15  16
ENDBRANCH   7  15
TORSDOF 3
ENDMDL
MODEL 3
REMARK VINA RESULT:      -8.2      2.714      7.606
REMARK  Name = 
REMARK  3 active torsions:
REMARK  status: ('A' for Active; 'I' for Inactive)
REMARK    1  A    between atoms: C_2  and  C_3
REMARK    2  A    between atoms: N_12  and  C_13
REMARK    3  A    between atoms: C_13  and  C_14
REMARK                            x       y       z     vdW  Elec       q    Type
REMARK                         _______ _______ _______ _____ _____    ______ ____
ROOT
ATOM      1  O   UNL     1       3.216   2.608  17.066  0.00  0.00    +0.000 OA
ATOM      2  C   UNL     1       3.656   3.750  17.206  0.00  0.00    +0.000 C 
ATOM      3  N   UNL     1       2.897   4.740  17.860  0.00  0.00    +0.000 N 
ATOM      4  C   UNL     1       1.606   4.361  18.426  0.00  0.00    +0.000 C 
ATOM      5  C   UNL     1       1.516   4.449  19.947  0.00  0.00    +0.000 C 
ATOM      6  C   UNL     1       2.209   5.604  20.673  0.00  0.00    +0.000 C 
ATOM      7  N   UNL     1       2.345   6.921  20.045  0.00  0.00    +0.000 NA
ATOM      8  C   UNL     1       3.422   6.919  19.036  0.00  0.00    +0.000 C 
ATOM      9  C   UNL     1       3.137   6.184  17.712  0.00  0.00    +0.000 C 
ENDROOT
BRANCH   2  10
ATOM     10  C   UNL     1       4.974   4.125  16.710  0.00  0.00    +0.000 A 
ATOM     11  C   UNL     1       5.408   4.311  15.411  0.00  0.00    +0.000 A 
ATOM     12  C   UNL     1       6.806   4.563  15.332  0.00  0.00    +0.000 A 
ATOM     13  C   UNL     1       7.378   4.662  16.580  0.00  0.00    +0.000 A 
ATOM     14  S   UNL     1       6.235   4.428  17.831  0.00  0.00    +0.000 S 
ENDBRANCH   2  10
BRANCH   7  15
ATOM     15  C   UNL     1       1.108   7.531  19.525  0.00  0.00    +0.000 C 
BRANCH  15  16
ATOM     16  C   UNL     1       1.005   9.041  19.607  0.00  0.00    +0.000 A 
ATOM     17  C   UNL     1       1.446   9.823  18.525  0.00  0.00    +0.000 A 
ATOM     18  C   UNL     1       1.408  11.211  18.579  0.00  0.00    +0.000 A 
ATOM     19  C   UNL     1       0.893  11.842  19.705  0.00  0.00    +0.000 A 
ATOM     20  C   UNL     1       0.374  11.098  20.776  0.00  0.00    +0.000 A 
ATOM     21  C   UNL     1      -0.181  11.763  21.882  0.00  0.00    +0.000 A 
ATOM     22  C   UNL     1      -0.742  11.053  22.942  0.00  0.00    +0.000 A 
ATOM     23  C   UNL     1      -0.752   9.669  22.914  0.00  0.00    +0.000 A 
ATOM     24  C   UNL     1      -0.189   8.995  21.828  0.00  0.00    +0.000 A 
ATOM     25  C   UNL     1       0.401   9.681  20.735  0.00  0.00    +0.000 A 
ENDBRANCH  15  16
ENDBRANCH   7  15
TORSDOF 3
ENDMDL
MODEL 4
REMARK VINA RESULT:      -8.2      2.879      7.612
REMARK  Name = 
REMARK  3 active torsions:
REMARK  status: ('A' for Active; 'I' for Inactive)
REMARK    1  A    between atoms: C_2  and  C_3
REMARK    2  A    between atoms: N_12  and  C_13
REMARK    3  A    between atoms: C_13  and  C_14
REMARK                            x       y       z     vdW  Elec       q    Type
REMARK                         _______ _______ _______ _____ _____    ______ ____
ROOT
ATOM      1  O   UNL     1       3.080   2.803  16.893  0.00  0.00    +0.000 OA
ATOM      2  C   UNL     1       3.630   3.863  17.196  0.00  0.00    +0.000 C 
ATOM      3  N   UNL     1       2.929   4.863  17.898  0.00  0.00    +0.000 N 
ATOM      4  C   UNL     1       1.559   4.586  18.315  0.00  0.00    +0.000 C 
ATOM      5  C   UNL     1       1.342   4.526  19.824  0.00  0.00    +0.000 C 
ATOM      6  C   UNL     1       2.091   5.508  20.728  0.00  0.00    +0.000 C 
ATOM      7  N   UNL     1       2.427   6.856  20.266  0.00  0.00    +0.000 NA
ATOM      8  C   UNL     1       3.584   6.830  19.350  0.00  0.00    +0.000 C 
ATOM      9  C   UNL     1       3.340   6.275  17.933  0.00  0.00    +0.000 C 
ENDROOT
BRANCH   2  10
ATOM     10  C   UNL     1       5.020   4.127  16.849  0.00  0.00    +0.000 A 
ATOM     11  C   UNL     1       6.131   4.217  17.666  0.00  0.00    +0.000 A 
ATOM     12  C   UNL     1       7.302   4.605  16.955  0.00  0.00    +0.000 A 
ATOM     13  C   UNL     1       7.069   4.699  15.602  0.00  0.00    +0.000 A 
ATOM     14  S   UNL     1       5.445   4.346  15.203  0.00  0.00    +0.000 S 
ENDBRANCH   2  10
BRANCH   7  15
ATOM     15  C   UNL     1       1.318   7.662  19.725  0.00  0.00    +0.000 C 
BRANCH  15  16
ATOM     16  C   UNL     1       0.715   8.702  20.647  0.00  0.00    +0.000 A 
ATOM     17  C   UNL     1       0.944   8.612  22.032  0.00  0.00    +0.000 A 
ATOM     18  C   UNL     1       0.373   9.522  22.914  0.00  0.00    +0.000 A 
ATOM     19  C   UNL     1      -0.408  10.561  22.422  0.00  0.00    +0.000 A 
ATOM     20  C   UNL     1      -0.601  10.729  21.042  0.00  0.00    +0.000 A 
ATOM     21  C   UNL     1      -1.358  11.814  20.572  0.00  0.00    +0.000 A 
ATOM     22  C   UNL     1      -1.533  12.033  19.206  0.00  0.00    +0.000 A 
ATOM     23  C   UNL     1      -0.956  11.168  18.292  0.00  0.00    +0.000 A 
ATOM     24  C   UNL     1      -0.213  10.076  18.747  0.00  0.00    +0.000 A 
ATOM     25  C   UNL     1      -0.022   9.813  20.128  0.00  0.00    +0.000 A 
ENDBRANCH  15  16
ENDBRANCH   7  15
TORSDOF 3
ENDMDL
MODEL 5
REMARK VINA RESULT:      -7.9      3.118      5.250
REMARK  Name = 
REMARK  3 active torsions:
REMARK  status: ('A' for Active; 'I' for Inactive)
REMARK    1  A    between atoms: C_2  and  C_3
REMARK    2  A    between atoms: N_12  and  C_13
REMARK    3  A    between atoms: C_13  and  C_14
REMARK                            x       y       z     vdW  Elec       q    Type
REMARK                         _______ _______ _______ _____ _____    ______ ____
ROOT
ATOM      1  O   UNL     1      -0.722  13.405  17.989  0.00  0.00    +0.000 OA
ATOM      2  C   UNL     1      -1.039  12.216  18.068  0.00  0.00    +0.000 C 
ATOM      3  N   UNL     1      -0.168  11.276  18.652  0.00  0.00    +0.000 N 
ATOM      4  C   UNL     1       1.088  11.755  19.219  0.00  0.00    +0.000 C 
ATOM      5  C   UNL     1       1.219  11.591  20.731  0.00  0.00    +0.000 C 
ATOM      6  C   UNL     1       0.665  10.330  21.398  0.00  0.00    +0.000 C 
ATOM      7  N   UNL     1       0.654   9.044  20.695  0.00  0.00    +0.000 NA
ATOM      8  C   UNL     1      -0.439   8.991  19.705  0.00  0.00    +0.000 C 
ATOM      9  C   UNL     1      -0.259   9.826  18.422  0.00  0.00    +0.000 C 
ENDROOT
BRANCH   2  10
ATOM     10  C   UNL     1      -2.321  11.734  17.570  0.00  0.00    +0.000 A 
ATOM     11  C   UNL     1      -2.654  11.243  16.322  0.00  0.00    +0.000 A 
ATOM     12  C   UNL     1      -4.047  10.980  16.192  0.00  0.00    +0.000 A 
ATOM     13  C   UNL     1      -4.717  11.183  17.377  0.00  0.00    +0.000 A 
ATOM     14  S   UNL     1      -3.672  11.709  18.624  0.00  0.00    +0.000 S 
ENDBRANCH   2  10
BRANCH   7  15
ATOM     15  C   UNL     1       1.936   8.597  20.122  0.00  0.00    +0.000 C 
BRANCH  15  16
ATOM     16  C   UNL     1       2.115   7.105  19.929  0.00  0.00    +0.000 A 
ATOM     17  C   UNL     1       1.426   6.212  20.770  0.00  0.00    +0.000 A 
ATOM     18  C   UNL     1       1.598   4.838  20.653  0.00  0.00    +0.000 A 
ATOM     19  C   UNL     1       2.435   4.331  19.667  0.00  0.00    +0.000 A 
ATOM     20  C   UNL     1       3.083   5.184  18.760  0.00  0.00    +0.000 A 
ATOM     21  C   UNL     1       3.888   4.640  17.745  0.00  0.00    +0.000 A 
ATOM     22  C   UNL     1       4.511   5.457  16.804  0.00  0.00    +0.000 A 
ATOM     23  C   UNL     1       4.342   6.830  16.866  0.00  0.00    +0.000 A 
ATOM     24  C   UNL     1       3.558   7.385  17.880  0.00  0.00    +0.000 A 
ATOM     25  C   UNL     1       2.916   6.588  18.862  0.00  0.00    +0.000 A 
ENDBRANCH  15  16
ENDBRANCH   7  15
TORSDOF 3
ENDMDL
MODEL 6
REMARK VINA RESULT:      -7.8      0.850      2.314
REMARK  Name = 
REMARK  3 active torsions:
REMARK  status: ('A' for Active; 'I' for Inactive)
REMARK    1  A    between atoms: C_2  and  C_3
REMARK    2  A    between atoms: N_12  and  C_13
REMARK    3  A    between atoms: C_13  and  C_14
REMARK                            x       y       z     vdW  Elec       q    Type
REMARK                         _______ _______ _______ _____ _____    ______ ____
ROOT
ATOM      1  O   UNL     1       1.357   7.570  21.822  0.00  0.00    +0.000 OA
ATOM      2  C   UNL     1       1.581   7.499  20.613  0.00  0.00    +0.000 C 
ATOM      3  N   UNL     1       2.097   6.319  20.043  0.00  0.00    +0.000 N 
ATOM      4  C   UNL     1       2.296   5.161  20.909  0.00  0.00    +0.000 C 
ATOM      5  C   UNL     1       1.417   3.956  20.590  0.00  0.00    +0.000 C 
ATOM      6  C   UNL     1       1.125   3.608  19.129  0.00  0.00    +0.000 C 
ATOM      7  N   UNL     1       2.107   3.878  18.075  0.00  0.00    +0.000 NA
ATOM      8  C   UNL     1       2.126   5.311  17.722  0.00  0.00    +0.000 C 
ATOM      9  C   UNL     1       2.775   6.271  18.738  0.00  0.00    +0.000 C 
ENDROOT
BRANCH   2  10
ATOM     10  C   UNL     1       1.321   8.623  19.722  0.00  0.00    +0.000 A 
ATOM     11  C   UNL     1       1.766   8.849  18.433  0.00  0.00    +0.000 A 
ATOM     12  C   UNL     1       1.382  10.128  17.940  0.00  0.00    +0.000 A 
ATOM     13  C   UNL     1       0.571  10.796  18.828  0.00  0.00    +0.000 A 
ATOM     14  S   UNL     1       0.299   9.892  20.254  0.00  0.00    +0.000 S 
ENDBRANCH   2  10
BRANCH   7  15
ATOM     15  C   UNL     1       3.465   3.348  18.292  0.00  0.00    +0.000 C 
BRANCH  15  16
ATOM     16  C   UNL     1       4.556   3.869  17.378  0.00  0.00    +0.000 A 
ATOM     17  C   UNL     1       4.431   3.700  15.988  0.00  0.00    +0.000 A 
ATOM     18  C   UNL     1       5.430   4.126  15.120  0.00  0.00    +0.000 A 
ATOM     19  C   UNL     1       6.557   4.761  15.627  0.00  0.00    +0.000 A 
ATOM     20  C   UNL     1       6.687   5.014  17.001  0.00  0.00    +0.000 A 
ATOM     21  C   UNL     1       7.817   5.698  17.479  0.00  0.00    +0.000 A 
ATOM     22  C   UNL     1       7.956   6.002  18.832  0.00  0.00    +0.000 A 
ATOM     23  C   UNL     1       6.969   5.623  19.727  0.00  0.00    +0.000 A 
ATOM     24  C   UNL     1       5.848   4.929  19.267  0.00  0.00    +0.000 A 
ATOM     25  C   UNL     1       5.675   4.592  17.900  0.00  0.00    +0.000 A 
ENDBRANCH  15  16
ENDBRANCH   7  15
TORSDOF 3
ENDMDL
MODEL 7
REMARK VINA RESULT:      -7.7      2.817      5.224
REMARK  Name = 
REMARK  3 active torsions:
REMARK  status: ('A' for Active; 'I' for Inactive)
REMARK    1  A    between atoms: C_2  and  C_3
REMARK    2  A    between atoms: N_12  and  C_13
REMARK    3  A    between atoms: C_13  and  C_14
REMARK                            x       y       z     vdW  Elec       q    Type
REMARK                         _______ _______ _______ _____ _____    ______ ____
ROOT
ATOM      1  O   UNL     1      -2.584  12.127  19.276  0.00  0.00    +0.000 OA
ATOM      2  C   UNL     1      -1.785  11.788  20.150  0.00  0.00    +0.000 C 
ATOM      3  N   UNL     1      -0.964  10.657  19.977  0.00  0.00    +0.000 N 
ATOM      4  C   UNL     1      -1.036   9.936  18.711  0.00  0.00    +0.000 C 
ATOM      5  C   UNL     1       0.238   9.971  17.872  0.00  0.00    +0.000 C 
ATOM      6  C   UNL     1       1.597   9.885  18.571  0.00  0.00    +0.000 C 
ATOM      7  N   UNL     1       1.764   9.120  19.809  0.00  0.00    +0.000 NA
ATOM      8  C   UNL     1       1.225   9.860  20.967  0.00  0.00    +0.000 C 
ATOM      9  C   UNL     1      -0.309   9.946  21.086  0.00  0.00    +0.000 C 
ENDROOT
BRANCH   2  10
ATOM     10  C   UNL     1      -1.649  12.540  21.391  0.00  0.00    +0.000 A 
ATOM     11  C   UNL     1      -2.417  12.492  22.540  0.00  0.00    +0.000 A 
ATOM     12  C   UNL     1      -2.030  13.472  23.497  0.00  0.00    +0.000 A 
ATOM     13  C   UNL     1      -0.914  14.168  23.091  0.00  0.00    +0.000 A 
ATOM     14  S   UNL     1      -0.359  13.656  21.557  0.00  0.00    +0.000 S 
ENDBRANCH   2  10
BRANCH   7  15
ATOM     15  C   UNL     1       1.298   7.722  19.786  0.00  0.00    +0.000 C 
BRANCH  15  16
ATOM     16  C   UNL     1       2.220   6.705  19.145  0.00  0.00    +0.000 A 
ATOM     17  C   UNL     1       3.179   7.134  18.210  0.00  0.00    +0.000 A 
ATOM     18  C   UNL     1       4.014   6.226  17.569  0.00  0.00    +0.000 A 
ATOM     19  C   UNL     1       3.927   4.875  17.879  0.00  0.00    +0.000 A 
ATOM     20  C   UNL     1       3.035   4.414  18.859  0.00  0.00    +0.000 A 
ATOM     21  C   UNL     1       3.002   3.047  19.183  0.00  0.00    +0.000 A 
ATOM     22  C   UNL     1       2.157   2.563  20.181  0.00  0.00    +0.000 A 
ATOM     23  C   UNL     1       1.331   3.439  20.866  0.00  0.00    +0.000 A 
ATOM     24  C   UNL     1       1.343   4.797  20.542  0.00  0.00    +0.000 A 
ATOM     25  C   UNL     1       2.180   5.326  19.526  0.00  0.00    +0.000 A 
ENDBRANCH  15  16
ENDBRANCH   7  15
TORSDOF 3
ENDMDL
MODEL 8
REMARK VINA RESULT:      -7.6      2.718      7.532
REMARK  Name = 
REMARK  3 active torsions:
REMARK  status: ('A' for Active; 'I' for Inactive)
REMARK    1  A    between atoms: C_2  and  C_3
REMARK    2  A    between atoms: N_12  and  C_13
REMARK    3  A    between atoms: C_13  and  C_14
REMARK                            x       y       z     vdW  Elec       q    Type
REMARK                         _______ _______ _______ _____ _____    ______ ____
ROOT
ATOM      1  O   UNL     1       3.128   3.285  16.918  0.00  0.00    +0.000 OA
ATOM      2  C   UNL     1       3.513   4.372  17.352  0.00  0.00    +0.000 C 
ATOM      3  N   UNL     1       2.667   5.171  18.146  0.00  0.00    +0.000 N 
ATOM      4  C   UNL     1       1.350   4.649  18.497  0.00  0.00    +0.000 C 
ATOM      5  C   UNL     1       1.134   4.382  19.983  0.00  0.00    +0.000 C 
ATOM      6  C   UNL     1       1.723   5.351  21.011  0.00  0.00    +0.000 C 
ATOM      7  N   UNL     1       1.859   6.779  20.714  0.00  0.00    +0.000 NA
ATOM      8  C   UNL     1       3.014   7.029  19.829  0.00  0.00    +0.000 C 
ATOM      9  C   UNL     1       2.864   6.614  18.353  0.00  0.00    +0.000 C 
ENDROOT
BRANCH   2  10
ATOM     10  C   UNL     1       4.851   4.875  17.071  0.00  0.00    +0.000 A 
ATOM     11  C   UNL     1       5.358   5.434  15.913  0.00  0.00    +0.000 A 
ATOM     12  C   UNL     1       6.755   5.696  15.999  0.00  0.00    +0.000 A 
ATOM     13  C   UNL     1       7.249   5.423  17.255  0.00  0.00    +0.000 A 
ATOM     14  S   UNL     1       6.038   4.832  18.308  0.00  0.00    +0.000 S 
ENDBRANCH   2  10
BRANCH   7  15
ATOM     15  C   UNL     1       0.647   7.471  20.242  0.00  0.00    +0.000 C 
BRANCH  15  16
ATOM     16  C   UNL     1       0.174   8.656  21.059  0.00  0.00    +0.000 A 
ATOM     17  C   UNL     1       0.273   8.611  22.462  0.00  0.00    +0.000 A 
ATOM     18  C   UNL     1      -0.190   9.660  23.248  0.00  0.00    +0.000 A 
ATOM     19  C   UNL     1      -0.727  10.789  22.643  0.00  0.00    +0.000 A 
ATOM     20  C   UNL     1      -0.777  10.905  21.245  0.00  0.00    +0.000 A 
ATOM     21  C   UNL     1      -1.285  12.077  20.661  0.00  0.00    +0.000 A 
ATOM     22  C   UNL     1      -1.309  12.241  19.277  0.00  0.00    +0.000 A 
ATOM     23  C   UNL     1      -0.830  11.233  18.457  0.00  0.00    +0.000 A 
ATOM     24  C   UNL     1      -0.337  10.055  19.025  0.00  0.00    +0.000 A 
ATOM     25  C   UNL     1      -0.305   9.847  20.428  0.00  0.00    +0.000 A 
ENDBRANCH  15  16
ENDBRANCH   7  15
TORSDOF 3
ENDMDL
MODEL 9
REMARK VINA RESULT:      -7.6      3.270      7.971
REMARK  Name = 
REMARK  3 active torsions:
REMARK  status: ('A' for Active; 'I' for Inactive)
REMARK    1  A    between atoms: C_2  and  C_3
REMARK    2  A    between atoms: N_12  and  C_13
REMARK    3  A    between atoms: C_13  and  C_14
REMARK                            x       y       z     vdW  Elec       q    Type
REMARK                         _______ _______ _______ _____ _____    ______ ____
ROOT
ATOM      1  O   UNL     1       3.004   4.503  20.774  0.00  0.00    +0.000 OA
ATOM      2  C   UNL     1       3.252   5.235  19.814  0.00  0.00    +0.000 C 
ATOM      3  N   UNL     1       2.384   6.289  19.468  0.00  0.00    +0.000 N 
ATOM      4  C   UNL     1       1.221   6.534  20.315  0.00  0.00    +0.000 C 
ATOM      5  C   UNL     1       1.226   7.871  21.050  0.00  0.00    +0.000 C 
ATOM      6  C   UNL     1       1.763   9.115  20.338  0.00  0.00    +0.000 C 
ATOM      7  N   UNL     1       1.626   9.276  18.889  0.00  0.00    +0.000 NA
ATOM      8  C   UNL     1       2.613   8.448  18.168  0.00  0.00    +0.000 C 
ATOM      9  C   UNL     1       2.362   6.928  18.144  0.00  0.00    +0.000 C 
ENDROOT
BRANCH   2  10
ATOM     10  C   UNL     1       4.447   5.048  19.002  0.00  0.00    +0.000 A 
ATOM     11  C   UNL     1       5.715   5.573  19.164  0.00  0.00    +0.000 A 
ATOM     12  C   UNL     1       6.585   5.243  18.087  0.00  0.00    +0.000 A 
ATOM     13  C   UNL     1       5.984   4.392  17.188  0.00  0.00    +0.000 A 
ATOM     14  S   UNL     1       4.376   4.018  17.633  0.00  0.00    +0.000 S 
ENDBRANCH   2  10
BRANCH   7  15
ATOM     15  C   UNL     1       0.269   9.119  18.335  0.00  0.00    +0.000 C 
BRANCH  15  16
ATOM     16  C   UNL     1      -0.742  10.190  18.690  0.00  0.00    +0.000 A 
ATOM     17  C   UNL     1      -0.528  10.993  19.825  0.00  0.00    +0.000 A 
ATOM     18  C   UNL     1      -1.454  11.956  20.208  0.00  0.00    +0.000 A 
ATOM     19  C   UNL     1      -2.594  12.158  19.441  0.00  0.00    +0.000 A 
ATOM     20  C   UNL     1      -2.810  11.429  18.261  0.00  0.00    +0.000 A 
ATOM     21  C   UNL     1      -3.950  11.687  17.481  0.00  0.00    +0.000 A 
ATOM     22  C   UNL     1      -4.172  11.010  16.283  0.00  0.00    +0.000 A 
ATOM     23  C   UNL     1      -3.258  10.063  15.850  0.00  0.00    +0.000 A 
ATOM     24  C   UNL     1      -2.129   9.786  16.623  0.00  0.00    +0.000 A 
ATOM     25  C   UNL     1      -1.873  10.446  17.853  0.00  0.00    +0.000 A 
ENDBRANCH  15  16
ENDBRANCH   7  15
TORSDOF 3
ENDMDL
