MODEL 1
REMARK VINA RESULT:      -8.0      0.000      0.000
REMARK  Name = 
REMARK  12 active torsions:
REMARK  status: ('A' for Active; 'I' for Inactive)
REMARK    1  A    between atoms: C_1  and  O_2
REMARK    2  A    between atoms: O_2  and  C_3
REMARK    3  A    between atoms: C_6  and  C_7
REMARK    4  A    between atoms: C_9  and  O_10
REMARK    5  A    between atoms: O_10  and  C_11
REMARK    6  A    between atoms: C_11  and  C_12
REMARK    7  A    between atoms: C_12  and  C_13
REMARK    8  A    between atoms: C_13  and  N_14
REMARK    9  A    between atoms: C_21  and  C_22
REMARK   10  A    between atoms: C_27  and  N_28
REMARK   11  A    between atoms: C_33  and  O_34
REMARK   12  A    between atoms: O_34  and  C_35
REMARK                            x       y       z     vdW  Elec       q    Type
REMARK                         _______ _______ _______ _____ _____    ______ ____
ROOT
ATOM      1  C   UNL     1       2.524   7.628  18.628  0.00  0.00    +0.000 A 
ATOM      2  C   UNL     1       2.137   8.852  18.053  0.00  0.00    +0.000 A 
ATOM      3  C   UNL     1       1.402   9.837  18.744  0.00  0.00    +0.000 A 
ATOM      4  C   UNL     1       0.896   9.534  20.036  0.00  0.00    +0.000 A 
ATOM      5  C   UNL     1       0.025  10.099  21.036  0.00  0.00    +0.000 A 
ATOM      6  C   UNL     1       0.212   9.341  22.175  0.00  0.00    +0.000 A 
ATOM      7  O   UNL     1       0.995   8.272  21.918  0.00  0.00    +0.000 OA
ATOM      8  C   UNL     1       1.376   8.358  20.614  0.00  0.00    +0.000 A 
ATOM      9  C   UNL     1       2.168   7.402  19.967  0.00  0.00    +0.000 A 
ENDROOT
BRANCH   1  13
ATOM     10  C   UNL     1       4.870   4.621  16.570  0.00  0.00    +0.000 A 
ATOM     11  C   UNL     1       5.161   5.985  16.415  0.00  0.00    +0.000 A 
ATOM     12  C   UNL     1       4.393   6.962  17.058  0.00  0.00    +0.000 A 
ATOM     13  C   UNL     1       3.281   6.623  17.841  0.00  0.00    +0.000 A 
ATOM     14  C   UNL     1       2.941   5.257  17.881  0.00  0.00    +0.000 A 
ATOM     15  C   UNL     1       3.713   4.255  17.267  0.00  0.00    +0.000 A 
BRANCH  10  17
ATOM     16  C   UNL     1       6.124   3.911  14.701  0.00  0.00    +0.000 C 
ATOM     17  O   UNL     1       5.684   3.663  16.037  0.00  0.00    +0.000 OA
ENDBRANCH  10  17
BRANCH  15  18
ATOM     18  O   UNL     1       3.202   3.006  17.497  0.00  0.00    +0.000 OA
ATOM     19  C   UNL     1       1.944   2.880  18.138  0.00  0.00    +0.000 C 
ENDBRANCH  15  18
ENDBRANCH   1  13
BRANCH   5  20
ATOM     20  C   UNL     1      -0.882  11.296  20.967  0.00  0.00    +0.000 A 
ATOM     21  C   UNL     1      -1.750  11.571  19.929  0.00  0.00    +0.000 A 
ATOM     22  C   UNL     1      -2.325  12.874  20.033  0.00  0.00    +0.000 A 
ATOM     23  C   UNL     1      -1.936  13.516  21.187  0.00  0.00    +0.000 A 
ATOM     24  S   UNL     1      -0.947  12.524  22.163  0.00  0.00    +0.000 S 
ENDBRANCH   5  20
BRANCH   6  25
ATOM     25  N   UNL     1      -0.246   9.439  23.436  0.00  0.00    +0.000 N 
ATOM     26  H   UNL     1      -0.494  10.364  23.771  0.00  0.00    +0.000 HD
ATOM     27  H   UNL     1       0.219   8.871  24.135  0.00  0.00    +0.000 HD
ENDBRANCH   6  25
BRANCH   3  28
ATOM     28  O   UNL     1       1.288  11.030  18.027  0.00  0.00    +0.000 OA
BRANCH  28  29
ATOM     29  C   UNL     1       1.878  12.174  18.651  0.00  0.00    +0.000 C 
BRANCH  29  30
ATOM     30  C   UNL     1       1.152  13.484  18.379  0.00  0.00    +0.000 C 
BRANCH  30  31
ATOM     31  C   UNL     1       1.716  14.578  19.311  0.00  0.00    +0.000 C 
BRANCH  31  32
ATOM     32  N   UNL     1       1.102  15.913  19.123  0.00  0.00    +0.000 NA
ATOM     33  C   UNL     1       1.829  16.709  18.125  0.00  0.00    +0.000 C 
ATOM     34  C   UNL     1       1.208  18.093  17.933  0.00  0.00    +0.000 C 
ATOM     35  C   UNL     1      -0.256  17.980  17.534  0.00  0.00    +0.000 C 
ATOM     36  C   UNL     1      -1.004  17.147  18.565  0.00  0.00    +0.000 C 
ATOM     37  C   UNL     1      -0.328  15.791  18.793  0.00  0.00    +0.000 C 
ENDBRANCH  31  32
ENDBRANCH  30  31
ENDBRANCH  29  30
ENDBRANCH  28  29
ENDBRANCH   3  28
TORSDOF 10
ENDMDL
MODEL 2
REMARK VINA RESULT:      -8.0      3.374      7.242
REMARK  Name = 
REMARK  12 active torsions:
REMARK  status: ('A' for Active; 'I' for Inactive)
REMARK    1  A    between atoms: C_1  and  O_2
REMARK    2  A    between atoms: O_2  and  C_3
REMARK    3  A    between atoms: C_6  and  C_7
REMARK    4  A    between atoms: C_9  and  O_10
REMARK    5  A    between atoms: O_10  and  C_11
REMARK    6  A    between atoms: C_11  and  C_12
REMARK    7  A    between atoms: C_12  and  C_13
REMARK    8  A    between atoms: C_13  and  N_14
REMARK    9  A    between atoms: C_21  and  C_22
REMARK   10  A    between atoms: C_27  and  N_28
REMARK   11  A    between atoms: C_33  and  O_34
REMARK   12  A    between atoms: O_34  and  C_35
REMARK                            x       y       z     vdW  Elec       q    Type
REMARK                         _______ _______ _______ _____ _____    ______ ____
ROOT
ATOM      1  C   UNL     1       3.475   7.177  17.942  0.00  0.00    +0.000 A 
ATOM      2  C   UNL     1       3.034   6.781  19.218  0.00  0.00    +0.000 A 
ATOM      3  C   UNL     1       2.044   7.473  19.946  0.00  0.00    +0.000 A 
ATOM      4  C   UNL     1       1.565   8.712  19.446  0.00  0.00    +0.000 A 
ATOM      5  C   UNL     1       0.720   9.808  19.849  0.00  0.00    +0.000 A 
ATOM      6  C   UNL     1       0.509  10.563  18.712  0.00  0.00    +0.000 A 
ATOM      7  O   UNL     1       1.272  10.119  17.691  0.00  0.00    +0.000 OA
ATOM      8  C   UNL     1       1.948   9.027  18.141  0.00  0.00    +0.000 A 
ATOM      9  C   UNL     1       2.874   8.310  17.374  0.00  0.00    +0.000 A 
ENDROOT
BRANCH   1  13
ATOM     10  C   UNL     1       6.737   5.187  15.898  0.00  0.00    +0.000 A 
ATOM     11  C   UNL     1       5.621   5.648  15.184  0.00  0.00    +0.000 A 
ATOM     12  C   UNL     1       4.554   6.270  15.840  0.00  0.00    +0.000 A 
ATOM     13  C   UNL     1       4.535   6.416  17.234  0.00  0.00    +0.000 A 
ATOM     14  C   UNL     1       5.610   5.838  17.935  0.00  0.00    +0.000 A 
ATOM     15  C   UNL     1       6.707   5.233  17.297  0.00  0.00    +0.000 A 
BRANCH  10  17
ATOM     16  C   UNL     1       7.791   4.779  13.826  0.00  0.00    +0.000 C 
ATOM     17  O   UNL     1       7.828   4.682  15.251  0.00  0.00    +0.000 OA
ENDBRANCH  10  17
BRANCH  15  18
ATOM     18  O   UNL     1       7.643   4.797  18.196  0.00  0.00    +0.000 OA
ATOM     19  C   UNL     1       8.004   5.634  19.281  0.00  0.00    +0.000 C 
ENDBRANCH  15  18
ENDBRANCH   1  13
BRANCH   5  20
ATOM     20  C   UNL     1       0.099  10.113  21.183  0.00  0.00    +0.000 A 
ATOM     21  C   UNL     1      -0.158   9.179  22.167  0.00  0.00    +0.000 A 
ATOM     22  C   UNL     1      -0.940   9.717  23.234  0.00  0.00    +0.000 A 
ATOM     23  C   UNL     1      -1.184  11.060  23.065  0.00  0.00    +0.000 A 
ATOM     24  S   UNL     1      -0.415  11.675  21.671  0.00  0.00    +0.000 S 
ENDBRANCH   5  20
BRANCH   6  25
ATOM     25  N   UNL     1      -0.257  11.637  18.444  0.00  0.00    +0.000 N 
ATOM     26  H   UNL     1      -1.263  11.516  18.497  0.00  0.00    +0.000 HD
ATOM     27  H   UNL     1       0.037  12.224  17.672  0.00  0.00    +0.000 HD
ENDBRANCH   6  25
BRANCH   3  28
ATOM     28  O   UNL     1       1.651   6.795  21.103  0.00  0.00    +0.000 OA
BRANCH  28  29
ATOM     29  C   UNL     1       1.856   5.380  21.078  0.00  0.00    +0.000 C 
BRANCH  29  30
ATOM     30  C   UNL     1       0.692   4.585  20.504  0.00  0.00    +0.000 C 
BRANCH  30  31
ATOM     31  C   UNL     1       1.049   3.083  20.516  0.00  0.00    +0.000 C 
BRANCH  31  32
ATOM     32  N   UNL     1       1.762   2.617  19.305  0.00  0.00    +0.000 NA
ATOM     33  C   UNL     1       1.749   3.632  18.243  0.00  0.00    +0.000 C 
ATOM     34  C   UNL     1       2.475   3.154  16.985  0.00  0.00    +0.000 C 
ATOM     35  C   UNL     1       3.910   2.760  17.302  0.00  0.00    +0.000 C 
ATOM     36  C   UNL     1       3.920   1.715  18.409  0.00  0.00    +0.000 C 
ATOM     37  C   UNL     1       3.131   2.185  19.635  0.00  0.00    +0.000 C 
ENDBRANCH  31  32
ENDBRANCH  30  31
ENDBRANCH  29  30
ENDBRANCH  28  29
ENDBRANCH   3  28
TORSDOF 10
ENDMDL
MODEL 3
REMARK VINA RESULT:      -7.8      0.769      1.103
REMARK  Name = 
REMARK  12 active torsions:
REMARK  status: ('A' for Active; 'I' for Inactive)
REMARK    1  A    between atoms: C_1  and  O_2
REMARK    2  A    between atoms: O_2  and  C_3
REMARK    3  A    between atoms: C_6  and  C_7
REMARK    4  A    between atoms: C_9  and  O_10
REMARK    5  A    between atoms: O_10  and  C_11
REMARK    6  A    between atoms: C_11  and  C_12
REMARK    7  A    between atoms: C_12  and  C_13
REMARK    8  A    between atoms: C_13  and  N_14
REMARK    9  A    between atoms: C_21  and  C_22
REMARK   10  A    between atoms: C_27  and  N_28
REMARK   11  A    between atoms: C_33  and  O_34
REMARK   12  A    between atoms: O_34  and  C_35
REMARK                            x       y       z     vdW  Elec       q    Type
REMARK                         _______ _______ _______ _____ _____    ______ ____
ROOT
ATOM      1  C   UNL     1       2.472   7.607  18.633  0.00  0.00    +0.000 A 
ATOM      2  C   UNL     1       2.097   8.840  18.067  0.00  0.00    +0.000 A 
ATOM      3  C   UNL     1       1.379   9.830  18.770  0.00  0.00    +0.000 A 
ATOM      4  C   UNL     1       0.876   9.525  20.062  0.00  0.00    +0.000 A 
ATOM      5  C   UNL     1       0.019  10.094  21.071  0.00  0.00    +0.000 A 
ATOM      6  C   UNL     1       0.203   9.327  22.204  0.00  0.00    +0.000 A 
ATOM      7  O   UNL     1       0.970   8.250  21.935  0.00  0.00    +0.000 OA
ATOM      8  C   UNL     1       1.344   8.339  20.630  0.00  0.00    +0.000 A 
ATOM      9  C   UNL     1       2.121   7.378  19.972  0.00  0.00    +0.000 A 
ENDROOT
BRANCH   1  13
ATOM     10  C   UNL     1       4.770   4.587  16.541  0.00  0.00    +0.000 A 
ATOM     11  C   UNL     1       5.066   5.949  16.381  0.00  0.00    +0.000 A 
ATOM     12  C   UNL     1       4.313   6.931  17.034  0.00  0.00    +0.000 A 
ATOM     13  C   UNL     1       3.211   6.598  17.834  0.00  0.00    +0.000 A 
ATOM     14  C   UNL     1       2.865   5.234  17.881  0.00  0.00    +0.000 A 
ATOM     15  C   UNL     1       3.622   4.227  17.256  0.00  0.00    +0.000 A 
BRANCH  10  17
ATOM     16  C   UNL     1       6.138   3.950  14.726  0.00  0.00    +0.000 C 
ATOM     17  O   UNL     1       5.570   3.624  15.996  0.00  0.00    +0.000 OA
ENDBRANCH  10  17
BRANCH  15  18
ATOM     18  O   UNL     1       3.108   2.982  17.494  0.00  0.00    +0.000 OA
ATOM     19  C   UNL     1       3.133   2.463  18.813  0.00  0.00    +0.000 C 
ENDBRANCH  15  18
ENDBRANCH   1  13
BRANCH   5  20
ATOM     20  C   UNL     1      -0.873  11.303  21.015  0.00  0.00    +0.000 A 
ATOM     21  C   UNL     1      -1.711  11.619  19.964  0.00  0.00    +0.000 A 
ATOM     22  C   UNL     1      -2.274  12.925  20.093  0.00  0.00    +0.000 A 
ATOM     23  C   UNL     1      -1.910  13.527  21.275  0.00  0.00    +0.000 A 
ATOM     24  S   UNL     1      -0.957  12.495  22.245  0.00  0.00    +0.000 S 
ENDBRANCH   5  20
BRANCH   6  25
ATOM     25  N   UNL     1      -0.247   9.422  23.468  0.00  0.00    +0.000 N 
ATOM     26  H   UNL     1       0.251  10.048  24.093  0.00  0.00    +0.000 HD
ATOM     27  H   UNL     1      -0.541   8.560  23.914  0.00  0.00    +0.000 HD
ENDBRANCH   6  25
BRANCH   3  28
ATOM     28  O   UNL     1       1.276  11.029  18.060  0.00  0.00    +0.000 OA
BRANCH  28  29
ATOM     29  C   UNL     1       2.403  11.901  18.173  0.00  0.00    +0.000 C 
BRANCH  29  30
ATOM     30  C   UNL     1       2.196  13.080  19.113  0.00  0.00    +0.000 C 
BRANCH  30  31
ATOM     31  C   UNL     1       2.703  14.368  18.430  0.00  0.00    +0.000 C 
BRANCH  31  32
ATOM     32  N   UNL     1       1.819  15.542  18.611  0.00  0.00    +0.000 NA
ATOM     33  C   UNL     1       0.416  15.143  18.785  0.00  0.00    +0.000 C 
ATOM     34  C   UNL     1      -0.506  16.351  18.962  0.00  0.00    +0.000 C 
ATOM     35  C   UNL     1      -0.063  17.202  20.143  0.00  0.00    +0.000 C 
ATOM     36  C   UNL     1       1.393  17.606  19.964  0.00  0.00    +0.000 C 
ATOM     37  C   UNL     1       2.290  16.388  19.721  0.00  0.00    +0.000 C 
ENDBRANCH  31  32
ENDBRANCH  30  31
ENDBRANCH  29  30
ENDBRANCH  28  29
ENDBRANCH   3  28
TORSDOF 10
ENDMDL
MODEL 4
REMARK VINA RESULT:      -7.8      1.119      1.938
REMARK  Name = 
REMARK  12 active torsions:
REMARK  status: ('A' for Active; 'I' for Inactive)
REMARK    1  A    between atoms: C_1  and  O_2
REMARK    2  A    between atoms: O_2  and  C_3
REMARK    3  A    between atoms: C_6  and  C_7
REMARK    4  A    between atoms: C_9  and  O_10
REMARK    5  A    between atoms: O_10  and  C_11
REMARK    6  A    between atoms: C_11  and  C_12
REMARK    7  A    between atoms: C_12  and  C_13
REMARK    8  A    between atoms: C_13  and  N_14
REMARK    9  A    between atoms: C_21  and  C_22
REMARK   10  A    between atoms: C_27  and  N_28
REMARK   11  A    between atoms: C_33  and  O_34
REMARK   12  A    between atoms: O_34  and  C_35
REMARK                            x       y       z     vdW  Elec       q    Type
REMARK                         _______ _______ _______ _____ _____    ______ ____
ROOT
ATOM      1  C   UNL     1       2.822   7.301  18.612  0.00  0.00    +0.000 A 
ATOM      2  C   UNL     1       2.564   8.547  18.012  0.00  0.00    +0.000 A 
ATOM      3  C   UNL     1       1.748   9.537  18.598  0.00  0.00    +0.000 A 
ATOM      4  C   UNL     1       1.029   9.220  19.781  0.00  0.00    +0.000 A 
ATOM      5  C   UNL     1       0.019   9.786  20.639  0.00  0.00    +0.000 A 
ATOM      6  C   UNL     1      -0.002   8.999  21.773  0.00  0.00    +0.000 A 
ATOM      7  O   UNL     1       0.788   7.915  21.621  0.00  0.00    +0.000 OA
ATOM      8  C   UNL     1       1.380   8.019  20.400  0.00  0.00    +0.000 A 
ATOM      9  C   UNL     1       2.246   7.056  19.867  0.00  0.00    +0.000 A 
ENDROOT
BRANCH   1  13
ATOM     10  C   UNL     1       5.255   4.489  16.384  0.00  0.00    +0.000 A 
ATOM     11  C   UNL     1       3.995   4.113  16.875  0.00  0.00    +0.000 A 
ATOM     12  C   UNL     1       3.215   5.008  17.615  0.00  0.00    +0.000 A 
ATOM     13  C   UNL     1       3.675   6.293  17.934  0.00  0.00    +0.000 A 
ATOM     14  C   UNL     1       4.990   6.600  17.532  0.00  0.00    +0.000 A 
ATOM     15  C   UNL     1       5.782   5.730  16.764  0.00  0.00    +0.000 A 
BRANCH  10  17
ATOM     16  C   UNL     1       5.985   4.028  14.188  0.00  0.00    +0.000 C 
ATOM     17  O   UNL     1       5.969   3.660  15.568  0.00  0.00    +0.000 OA
ENDBRANCH  10  17
BRANCH  15  18
ATOM     18  O   UNL     1       6.997   6.281  16.459  0.00  0.00    +0.000 OA
ATOM     19  C   UNL     1       7.559   7.244  17.334  0.00  0.00    +0.000 C 
ENDBRANCH  15  18
ENDBRANCH   1  13
BRANCH   5  20
ATOM     20  C   UNL     1      -0.836  11.009  20.453  0.00  0.00    +0.000 A 
ATOM     21  C   UNL     1      -0.981  12.020  21.381  0.00  0.00    +0.000 A 
ATOM     22  C   UNL     1      -2.013  12.941  21.023  0.00  0.00    +0.000 A 
ATOM     23  C   UNL     1      -2.563  12.644  19.797  0.00  0.00    +0.000 A 
ATOM     24  S   UNL     1      -1.791  11.312  19.060  0.00  0.00    +0.000 S 
ENDBRANCH   5  20
BRANCH   6  25
ATOM     25  N   UNL     1      -0.659   9.082  22.944  0.00  0.00    +0.000 N 
ATOM     26  H   UNL     1      -0.924  10.008  23.265  0.00  0.00    +0.000 HD
ATOM     27  H   UNL     1      -0.339   8.475  23.690  0.00  0.00    +0.000 HD
ENDBRANCH   6  25
BRANCH   3  28
ATOM     28  O   UNL     1       1.781  10.747  17.903  0.00  0.00    +0.000 OA
BRANCH  28  29
ATOM     29  C   UNL     1       2.141  11.889  18.685  0.00  0.00    +0.000 C 
BRANCH  29  30
ATOM     30  C   UNL     1       2.202  13.194  17.905  0.00  0.00    +0.000 C 
BRANCH  30  31
ATOM     31  C   UNL     1       2.736  14.311  18.827  0.00  0.00    +0.000 C 
BRANCH  31  32
ATOM     32  N   UNL     1       1.798  15.441  19.021  0.00  0.00    +0.000 NA
ATOM     33  C   UNL     1       2.115  16.568  18.134  0.00  0.00    +0.000 C 
ATOM     34  C   UNL     1       1.157  17.743  18.335  0.00  0.00    +0.000 C 
ATOM     35  C   UNL     1      -0.285  17.309  18.121  0.00  0.00    +0.000 C 
ATOM     36  C   UNL     1      -0.608  16.135  19.034  0.00  0.00    +0.000 C 
ATOM     37  C   UNL     1       0.403  14.996  18.866  0.00  0.00    +0.000 C 
ENDBRANCH  31  32
ENDBRANCH  30  31
ENDBRANCH  29  30
ENDBRANCH  28  29
ENDBRANCH   3  28
TORSDOF 10
ENDMDL
MODEL 5
REMARK VINA RESULT:      -7.8      1.113      2.081
REMARK  Name = 
REMARK  12 active torsions:
REMARK  status: ('A' for Active; 'I' for Inactive)
REMARK    1  A    between atoms: C_1  and  O_2
REMARK    2  A    between atoms: O_2  and  C_3
REMARK    3  A    between atoms: C_6  and  C_7
REMARK    4  A    between atoms: C_9  and  O_10
REMARK    5  A    between atoms: O_10  and  C_11
REMARK    6  A    between atoms: C_11  and  C_12
REMARK    7  A    between atoms: C_12  and  C_13
REMARK    8  A    between atoms: C_13  and  N_14
REMARK    9  A    between atoms: C_21  and  C_22
REMARK   10  A    between atoms: C_27  and  N_28
REMARK   11  A    between atoms: C_33  and  O_34
REMARK   12  A    between atoms: O_34  and  C_35
REMARK                            x       y       z     vdW  Elec       q    Type
REMARK                         _______ _______ _______ _____ _____    ______ ____
ROOT
ATOM      1  C   UNL     1       2.933   7.264  18.540  0.00  0.00    +0.000 A 
ATOM      2  C   UNL     1       2.620   8.485  17.916  0.00  0.00    +0.000 A 
ATOM      3  C   UNL     1       1.764   9.451  18.485  0.00  0.00    +0.000 A 
ATOM      4  C   UNL     1       1.064   9.129  19.678  0.00  0.00    +0.000 A 
ATOM      5  C   UNL     1       0.034   9.670  20.528  0.00  0.00    +0.000 A 
ATOM      6  C   UNL     1       0.051   8.906  21.679  0.00  0.00    +0.000 A 
ATOM      7  O   UNL     1       0.886   7.854  21.545  0.00  0.00    +0.000 OA
ATOM      8  C   UNL     1       1.468   7.957  20.320  0.00  0.00    +0.000 A 
ATOM      9  C   UNL     1       2.373   7.022  19.803  0.00  0.00    +0.000 A 
ENDROOT
BRANCH   1  13
ATOM     10  C   UNL     1       5.490   4.524  16.363  0.00  0.00    +0.000 A 
ATOM     11  C   UNL     1       4.217   4.124  16.797  0.00  0.00    +0.000 A 
ATOM     12  C   UNL     1       3.396   4.995  17.521  0.00  0.00    +0.000 A 
ATOM     13  C   UNL     1       3.826   6.279  17.879  0.00  0.00    +0.000 A 
ATOM     14  C   UNL     1       5.151   6.611  17.536  0.00  0.00    +0.000 A 
ATOM     15  C   UNL     1       5.985   5.764  16.785  0.00  0.00    +0.000 A 
BRANCH  10  17
ATOM     16  C   UNL     1       6.137   3.975  14.161  0.00  0.00    +0.000 C 
ATOM     17  O   UNL     1       6.247   3.719  15.562  0.00  0.00    +0.000 OA
ENDBRANCH  10  17
BRANCH  15  18
ATOM     18  O   UNL     1       7.203   6.337  16.539  0.00  0.00    +0.000 OA
ATOM     19  C   UNL     1       7.676   7.358  17.400  0.00  0.00    +0.000 C 
ENDBRANCH  15  18
ENDBRANCH   1  13
BRANCH   5  20
ATOM     20  C   UNL     1      -0.874  10.850  20.320  0.00  0.00    +0.000 A 
ATOM     21  C   UNL     1      -1.714  11.020  19.239  0.00  0.00    +0.000 A 
ATOM     22  C   UNL     1      -2.294  12.325  19.202  0.00  0.00    +0.000 A 
ATOM     23  C   UNL     1      -1.939  13.075  20.299  0.00  0.00    +0.000 A 
ATOM     24  S   UNL     1      -0.975  12.186  21.391  0.00  0.00    +0.000 S 
ENDBRANCH   5  20
BRANCH   6  25
ATOM     25  N   UNL     1      -0.605   8.986  22.851  0.00  0.00    +0.000 N 
ATOM     26  H   UNL     1      -0.565   9.870  23.348  0.00  0.00    +0.000 HD
ATOM     27  H   UNL     1      -0.545   8.179  23.462  0.00  0.00    +0.000 HD
ENDBRANCH   6  25
BRANCH   3  28
ATOM     28  O   UNL     1       1.743  10.647  17.764  0.00  0.00    +0.000 OA
BRANCH  28  29
ATOM     29  C   UNL     1       1.841  11.835  18.554  0.00  0.00    +0.000 C 
BRANCH  29  30
ATOM     30  C   UNL     1       2.882  12.833  18.066  0.00  0.00    +0.000 C 
BRANCH  30  31
ATOM     31  C   UNL     1       2.797  14.114  18.923  0.00  0.00    +0.000 C 
BRANCH  31  32
ATOM     32  N   UNL     1       1.876  15.144  18.390  0.00  0.00    +0.000 NA
ATOM     33  C   UNL     1       0.710  15.334  19.262  0.00  0.00    +0.000 C 
ATOM     34  C   UNL     1      -0.251  16.388  18.713  0.00  0.00    +0.000 C 
ATOM     35  C   UNL     1       0.461  17.717  18.509  0.00  0.00    +0.000 C 
ATOM     36  C   UNL     1       1.673  17.516  17.612  0.00  0.00    +0.000 C 
ATOM     37  C   UNL     1       2.590  16.408  18.144  0.00  0.00    +0.000 C 
ENDBRANCH  31  32
ENDBRANCH  30  31
ENDBRANCH  29  30
ENDBRANCH  28  29
ENDBRANCH   3  28
TORSDOF 10
ENDMDL
MODEL 6
REMARK VINA RESULT:      -7.7      1.591      2.155
REMARK  Name = 
REMARK  12 active torsions:
REMARK  status: ('A' for Active; 'I' for Inactive)
REMARK    1  A    between atoms: C_1  and  O_2
REMARK    2  A    between atoms: O_2  and  C_3
REMARK    3  A    between atoms: C_6  and  C_7
REMARK    4  A    between atoms: C_9  and  O_10
REMARK    5  A    between atoms: O_10  and  C_11
REMARK    6  A    between atoms: C_11  and  C_12
REMARK    7  A    between atoms: C_12  and  C_13
REMARK    8  A    between atoms: C_13  and  N_14
REMARK    9  A    between atoms: C_21  and  C_22
REMARK   10  A    between atoms: C_27  and  N_28
REMARK   11  A    between atoms: C_33  and  O_34
REMARK   12  A    between atoms: O_34  and  C_35
REMARK                            x       y       z     vdW  Elec       q    Type
REMARK                         _______ _______ _______ _____ _____    ______ ____
ROOT
ATOM      1  C   UNL     1       2.423   7.680  18.695  0.00  0.00    +0.000 A 
ATOM      2  C   UNL     1       2.058   8.912  18.124  0.00  0.00    +0.000 A 
ATOM      3  C   UNL     1       1.348   9.911  18.823  0.00  0.00    +0.000 A 
ATOM      4  C   UNL     1       0.845   9.616  20.117  0.00  0.00    +0.000 A 
ATOM      5  C   UNL     1      -0.007  10.197  21.125  0.00  0.00    +0.000 A 
ATOM      6  C   UNL     1       0.172   9.432  22.261  0.00  0.00    +0.000 A 
ATOM      7  O   UNL     1       0.931   8.348  21.996  0.00  0.00    +0.000 OA
ATOM      8  C   UNL     1       1.304   8.429  20.690  0.00  0.00    +0.000 A 
ATOM      9  C   UNL     1       2.073   7.459  20.035  0.00  0.00    +0.000 A 
ENDROOT
BRANCH   1  13
ATOM     10  C   UNL     1       4.689   4.626  16.616  0.00  0.00    +0.000 A 
ATOM     11  C   UNL     1       5.022   5.982  16.478  0.00  0.00    +0.000 A 
ATOM     12  C   UNL     1       4.281   6.975  17.127  0.00  0.00    +0.000 A 
ATOM     13  C   UNL     1       3.154   6.661  17.900  0.00  0.00    +0.000 A 
ATOM     14  C   UNL     1       2.772   5.306  17.922  0.00  0.00    +0.000 A 
ATOM     15  C   UNL     1       3.517   4.287  17.302  0.00  0.00    +0.000 A 
BRANCH  10  17
ATOM     16  C   UNL     1       6.429   4.098  15.111  0.00  0.00    +0.000 C 
ATOM     17  O   UNL     1       5.476   3.649  16.076  0.00  0.00    +0.000 OA
ENDBRANCH  10  17
BRANCH  15  18
ATOM     18  O   UNL     1       2.967   3.053  17.514  0.00  0.00    +0.000 OA
ATOM     19  C   UNL     1       1.800   2.942  18.312  0.00  0.00    +0.000 C 
ENDBRANCH  15  18
ENDBRANCH   1  13
BRANCH   5  20
ATOM     20  C   UNL     1      -0.890  11.412  21.064  0.00  0.00    +0.000 A 
ATOM     21  C   UNL     1      -1.757  11.708  20.032  0.00  0.00    +0.000 A 
ATOM     22  C   UNL     1      -2.305  13.023  20.144  0.00  0.00    +0.000 A 
ATOM     23  C   UNL     1      -1.898  13.652  21.297  0.00  0.00    +0.000 A 
ATOM     24  S   UNL     1      -0.924  12.637  22.265  0.00  0.00    +0.000 S 
ENDBRANCH   5  20
BRANCH   6  25
ATOM     25  N   UNL     1      -0.275   9.537  23.525  0.00  0.00    +0.000 N 
ATOM     26  H   UNL     1      -0.948   8.845  23.840  0.00  0.00    +0.000 HD
ATOM     27  H   UNL     1      -0.474  10.472  23.862  0.00  0.00    +0.000 HD
ENDBRANCH   6  25
BRANCH   3  28
ATOM     28  O   UNL     1       1.254  11.108  18.109  0.00  0.00    +0.000 OA
BRANCH  28  29
ATOM     29  C   UNL     1       2.400  11.959  18.194  0.00  0.00    +0.000 C 
BRANCH  29  30
ATOM     30  C   UNL     1       2.168  13.252  18.962  0.00  0.00    +0.000 C 
BRANCH  30  31
ATOM     31  C   UNL     1       2.772  14.430  18.167  0.00  0.00    +0.000 C 
BRANCH  31  32
ATOM     32  N   UNL     1       3.985  15.019  18.779  0.00  0.00    +0.000 NA
ATOM     33  C   UNL     1       5.157  14.879  17.904  0.00  0.00    +0.000 C 
ATOM     34  C   UNL     1       6.416  15.476  18.533  0.00  0.00    +0.000 C 
ATOM     35  C   UNL     1       6.206  16.942  18.881  0.00  0.00    +0.000 C 
ATOM     36  C   UNL     1       4.986  17.085  19.780  0.00  0.00    +0.000 C 
ATOM     37  C   UNL     1       3.750  16.421  19.163  0.00  0.00    +0.000 C 
ENDBRANCH  31  32
ENDBRANCH  30  31
ENDBRANCH  29  30
ENDBRANCH  28  29
ENDBRANCH   3  28
TORSDOF 10
ENDMDL
MODEL 7
REMARK VINA RESULT:      -7.6      3.151      7.412
REMARK  Name = 
REMARK  12 active torsions:
REMARK  status: ('A' for Active; 'I' for Inactive)
REMARK    1  A    between atoms: C_1  and  O_2
REMARK    2  A    between atoms: O_2  and  C_3
REMARK    3  A    between atoms: C_6  and  C_7
REMARK    4  A    between atoms: C_9  and  O_10
REMARK    5  A    between atoms: O_10  and  C_11
REMARK    6  A    between atoms: C_11  and  C_12
REMARK    7  A    between atoms: C_12  and  C_13
REMARK    8  A    between atoms: C_13  and  N_14
REMARK    9  A    between atoms: C_21  and  C_22
REMARK   10  A    between atoms: C_27  and  N_28
REMARK   11  A    between atoms: C_33  and  O_34
REMARK   12  A    between atoms: O_34  and  C_35
REMARK                            x       y       z     vdW  Elec       q    Type
REMARK                         _______ _______ _______ _____ _____    ______ ____
ROOT
ATOM      1  C   UNL     1       3.225   7.307  18.102  0.00  0.00    +0.000 A 
ATOM      2  C   UNL     1       2.745   7.003  19.389  0.00  0.00    +0.000 A 
ATOM      3  C   UNL     1       1.793   7.790  20.068  0.00  0.00    +0.000 A 
ATOM      4  C   UNL     1       1.398   9.031  19.501  0.00  0.00    +0.000 A 
ATOM      5  C   UNL     1       0.619  10.196  19.837  0.00  0.00    +0.000 A 
ATOM      6  C   UNL     1       0.469  10.905  18.662  0.00  0.00    +0.000 A 
ATOM      7  O   UNL     1       1.214  10.364  17.675  0.00  0.00    +0.000 OA
ATOM      8  C   UNL     1       1.815   9.256  18.188  0.00  0.00    +0.000 A 
ATOM      9  C   UNL     1       2.703   8.445  17.470  0.00  0.00    +0.000 A 
ENDROOT
BRANCH   1  13
ATOM     10  C   UNL     1       6.164   4.954  15.954  0.00  0.00    +0.000 A 
ATOM     11  C   UNL     1       4.882   4.442  16.205  0.00  0.00    +0.000 A 
ATOM     12  C   UNL     1       3.937   5.186  16.918  0.00  0.00    +0.000 A 
ATOM     13  C   UNL     1       4.243   6.447  17.447  0.00  0.00    +0.000 A 
ATOM     14  C   UNL     1       5.572   6.884  17.285  0.00  0.00    +0.000 A 
ATOM     15  C   UNL     1       6.532   6.168  16.548  0.00  0.00    +0.000 A 
BRANCH  10  17
ATOM     16  C   UNL     1       6.643   4.103  13.806  0.00  0.00    +0.000 C 
ATOM     17  O   UNL     1       7.050   4.280  15.164  0.00  0.00    +0.000 OA
ENDBRANCH  10  17
BRANCH  15  18
ATOM     18  O   UNL     1       7.729   6.829  16.493  0.00  0.00    +0.000 OA
ATOM     19  C   UNL     1       7.995   7.860  17.429  0.00  0.00    +0.000 C 
ENDBRANCH  15  18
ENDBRANCH   1  13
BRANCH   5  20
ATOM     20  C   UNL     1       0.004  10.605  21.146  0.00  0.00    +0.000 A 
ATOM     21  C   UNL     1      -0.390   9.733  22.141  0.00  0.00    +0.000 A 
ATOM     22  C   UNL     1      -1.131  10.385  23.173  0.00  0.00    +0.000 A 
ATOM     23  C   UNL     1      -1.206  11.744  22.970  0.00  0.00    +0.000 A 
ATOM     24  S   UNL     1      -0.332  12.228  21.586  0.00  0.00    +0.000 S 
ENDBRANCH   5  20
BRANCH   6  25
ATOM     25  N   UNL     1      -0.225  12.009  18.331  0.00  0.00    +0.000 N 
ATOM     26  H   UNL     1       0.200  12.906  18.542  0.00  0.00    +0.000 HD
ATOM     27  H   UNL     1      -1.224  11.988  18.502  0.00  0.00    +0.000 HD
ENDBRANCH   6  25
BRANCH   3  28
ATOM     28  O   UNL     1       1.345   7.197  21.251  0.00  0.00    +0.000 OA
BRANCH  28  29
ATOM     29  C   UNL     1       1.558   5.786  21.342  0.00  0.00    +0.000 C 
BRANCH  29  30
ATOM     30  C   UNL     1       0.571   4.947  20.543  0.00  0.00    +0.000 C 
BRANCH  30  31
ATOM     31  C   UNL     1       0.998   3.465  20.606  0.00  0.00    +0.000 C 
BRANCH  31  32
ATOM     32  N   UNL     1       2.129   3.118  19.715  0.00  0.00    +0.000 NA
ATOM     33  C   UNL     1       3.256   2.546  20.464  0.00  0.00    +0.000 C 
ATOM     34  C   UNL     1       4.432   2.196  19.552  0.00  0.00    +0.000 C 
ATOM     35  C   UNL     1       4.000   1.232  18.457  0.00  0.00    +0.000 C 
ATOM     36  C   UNL     1       2.827   1.824  17.688  0.00  0.00    +0.000 C 
ATOM     37  C   UNL     1       1.686   2.231  18.626  0.00  0.00    +0.000 C 
ENDBRANCH  31  32
ENDBRANCH  30  31
ENDBRANCH  29  30
ENDBRANCH  28  29
ENDBRANCH   3  28
TORSDOF 10
ENDMDL
MODEL 8
REMARK VINA RESULT:      -7.6      0.970      1.289
REMARK  Name = 
REMARK  12 active torsions:
REMARK  status: ('A' for Active; 'I' for Inactive)
REMARK    1  A    between atoms: C_1  and  O_2
REMARK    2  A    between atoms: O_2  and  C_3
REMARK    3  A    between atoms: C_6  and  C_7
REMARK    4  A    between atoms: C_9  and  O_10
REMARK    5  A    between atoms: O_10  and  C_11
REMARK    6  A    between atoms: C_11  and  C_12
REMARK    7  A    between atoms: C_12  and  C_13
REMARK    8  A    between atoms: C_13  and  N_14
REMARK    9  A    between atoms: C_21  and  C_22
REMARK   10  A    between atoms: C_27  and  N_28
REMARK   11  A    between atoms: C_33  and  O_34
REMARK   12  A    between atoms: O_34  and  C_35
REMARK                            x       y       z     vdW  Elec       q    Type
REMARK                         _______ _______ _______ _____ _____    ______ ____
ROOT
ATOM      1  C   UNL     1       2.365   7.750  18.724  0.00  0.00    +0.000 A 
ATOM      2  C   UNL     1       2.028   8.991  18.154  0.00  0.00    +0.000 A 
ATOM      3  C   UNL     1       1.305   9.989  18.838  0.00  0.00    +0.000 A 
ATOM      4  C   UNL     1       0.758   9.687  20.113  0.00  0.00    +0.000 A 
ATOM      5  C   UNL     1      -0.121  10.266  21.098  0.00  0.00    +0.000 A 
ATOM      6  C   UNL     1       0.016   9.490  22.232  0.00  0.00    +0.000 A 
ATOM      7  O   UNL     1       0.773   8.402  21.982  0.00  0.00    +0.000 OA
ATOM      8  C   UNL     1       1.189   8.491  20.689  0.00  0.00    +0.000 A 
ATOM      9  C   UNL     1       1.970   7.520  20.051  0.00  0.00    +0.000 A 
ENDROOT
BRANCH   1  13
ATOM     10  C   UNL     1       4.690   4.713  16.686  0.00  0.00    +0.000 A 
ATOM     11  C   UNL     1       4.963   6.075  16.489  0.00  0.00    +0.000 A 
ATOM     12  C   UNL     1       4.201   7.061  17.125  0.00  0.00    +0.000 A 
ATOM     13  C   UNL     1       3.113   6.732  17.944  0.00  0.00    +0.000 A 
ATOM     14  C   UNL     1       2.788   5.364  18.028  0.00  0.00    +0.000 A 
ATOM     15  C   UNL     1       3.554   4.354  17.421  0.00  0.00    +0.000 A 
BRANCH  10  17
ATOM     16  C   UNL     1       6.354   4.183  15.098  0.00  0.00    +0.000 C 
ATOM     17  O   UNL     1       5.499   3.749  16.157  0.00  0.00    +0.000 OA
ENDBRANCH  10  17
BRANCH  15  18
ATOM     18  O   UNL     1       3.061   3.107  17.695  0.00  0.00    +0.000 OA
ATOM     19  C   UNL     1       1.733   2.977  18.171  0.00  0.00    +0.000 C 
ENDBRANCH  15  18
ENDBRANCH   1  13
BRANCH   5  20
ATOM     20  C   UNL     1      -0.991  11.490  21.020  0.00  0.00    +0.000 A 
ATOM     21  C   UNL     1      -1.046  12.481  21.979  0.00  0.00    +0.000 A 
ATOM     22  C   UNL     1      -2.108  13.406  21.742  0.00  0.00    +0.000 A 
ATOM     23  C   UNL     1      -2.774  13.134  20.569  0.00  0.00    +0.000 A 
ATOM     24  S   UNL     1      -2.075  11.819  19.733  0.00  0.00    +0.000 S 
ENDBRANCH   5  20
BRANCH   6  25
ATOM     25  N   UNL     1      -0.471   9.587  23.483  0.00  0.00    +0.000 N 
ATOM     26  H   UNL     1       0.180   9.847  24.217  0.00  0.00    +0.000 HD
ATOM     27  H   UNL     1      -1.137   8.878  23.769  0.00  0.00    +0.000 HD
ENDBRANCH   6  25
BRANCH   3  28
ATOM     28  O   UNL     1       1.243  11.193  18.132  0.00  0.00    +0.000 OA
BRANCH  28  29
ATOM     29  C   UNL     1       2.266  12.140  18.454  0.00  0.00    +0.000 C 
BRANCH  29  30
ATOM     30  C   UNL     1       1.792  13.317  19.294  0.00  0.00    +0.000 C 
BRANCH  30  31
ATOM     31  C   UNL     1       0.617  14.014  18.573  0.00  0.00    +0.000 C 
BRANCH  31  32
ATOM     32  N   UNL     1      -0.022  15.096  19.356  0.00  0.00    +0.000 NA
ATOM     33  C   UNL     1       0.774  15.454  20.538  0.00  0.00    +0.000 C 
ATOM     34  C   UNL     1       0.115  16.564  21.357  0.00  0.00    +0.000 C 
ATOM     35  C   UNL     1      -0.123  17.801  20.504  0.00  0.00    +0.000 C 
ATOM     36  C   UNL     1      -0.940  17.425  19.276  0.00  0.00    +0.000 C 
ATOM     37  C   UNL     1      -0.298  16.266  18.505  0.00  0.00    +0.000 C 
ENDBRANCH  31  32
ENDBRANCH  30  31
ENDBRANCH  29  30
ENDBRANCH  28  29
ENDBRANCH   3  28
TORSDOF 10
ENDMDL
MODEL 9
REMARK VINA RESULT:      -7.5      1.849      2.968
REMARK  Name = 
REMARK  12 active torsions:
REMARK  status: ('A' for Active; 'I' for Inactive)
REMARK    1  A    between atoms: C_1  and  O_2
REMARK    2  A    between atoms: O_2  and  C_3
REMARK    3  A    between atoms: C_6  and  C_7
REMARK    4  A    between atoms: C_9  and  O_10
REMARK    5  A    between atoms: O_10  and  C_11
REMARK    6  A    between atoms: C_11  and  C_12
REMARK    7  A    between atoms: C_12  and  C_13
REMARK    8  A    between atoms: C_13  and  N_14
REMARK    9  A    between atoms: C_21  and  C_22
REMARK   10  A    between atoms: C_27  and  N_28
REMARK   11  A    between atoms: C_33  and  O_34
REMARK   12  A    between atoms: O_34  and  C_35
REMARK                            x       y       z     vdW  Elec       q    Type
REMARK                         _______ _______ _______ _____ _____    ______ ____
ROOT
ATOM      1  C   UNL     1       2.945   7.238  18.531  0.00  0.00    +0.000 A 
ATOM      2  C   UNL     1       2.634   8.460  17.907  0.00  0.00    +0.000 A 
ATOM      3  C   UNL     1       1.779   9.427  18.476  0.00  0.00    +0.000 A 
ATOM      4  C   UNL     1       1.076   9.105  19.666  0.00  0.00    +0.000 A 
ATOM      5  C   UNL     1       0.045   9.646  20.515  0.00  0.00    +0.000 A 
ATOM      6  C   UNL     1       0.059   8.882  21.665  0.00  0.00    +0.000 A 
ATOM      7  O   UNL     1       0.892   7.829  21.532  0.00  0.00    +0.000 OA
ATOM      8  C   UNL     1       1.477   7.932  20.308  0.00  0.00    +0.000 A 
ATOM      9  C   UNL     1       2.382   6.995  19.793  0.00  0.00    +0.000 A 
ENDROOT
BRANCH   1  13
ATOM     10  C   UNL     1       5.498   4.493  16.356  0.00  0.00    +0.000 A 
ATOM     11  C   UNL     1       4.232   4.089  16.805  0.00  0.00    +0.000 A 
ATOM     12  C   UNL     1       3.412   4.962  17.528  0.00  0.00    +0.000 A 
ATOM     13  C   UNL     1       3.838   6.252  17.871  0.00  0.00    +0.000 A 
ATOM     14  C   UNL     1       5.158   6.588  17.513  0.00  0.00    +0.000 A 
ATOM     15  C   UNL     1       5.990   5.740  16.763  0.00  0.00    +0.000 A 
BRANCH  10  17
ATOM     16  C   UNL     1       6.164   3.958  14.156  0.00  0.00    +0.000 C 
ATOM     17  O   UNL     1       6.253   3.685  15.556  0.00  0.00    +0.000 OA
ENDBRANCH  10  17
BRANCH  15  18
ATOM     18  O   UNL     1       7.202   6.317  16.500  0.00  0.00    +0.000 OA
ATOM     19  C   UNL     1       7.680   7.344  17.353  0.00  0.00    +0.000 C 
ENDBRANCH  15  18
ENDBRANCH   1  13
BRANCH   5  20
ATOM     20  C   UNL     1      -0.860  10.828  20.306  0.00  0.00    +0.000 A 
ATOM     21  C   UNL     1      -1.668  11.020  19.204  0.00  0.00    +0.000 A 
ATOM     22  C   UNL     1      -2.252  12.323  19.179  0.00  0.00    +0.000 A 
ATOM     23  C   UNL     1      -1.933  13.050  20.302  0.00  0.00    +0.000 A 
ATOM     24  S   UNL     1      -0.999  12.139  21.403  0.00  0.00    +0.000 S 
ENDBRANCH   5  20
BRANCH   6  25
ATOM     25  N   UNL     1      -0.599   8.962  22.836  0.00  0.00    +0.000 N 
ATOM     26  H   UNL     1      -0.228   8.429  23.616  0.00  0.00    +0.000 HD
ATOM     27  H   UNL     1      -1.612   8.954  22.791  0.00  0.00    +0.000 HD
ENDBRANCH   6  25
BRANCH   3  28
ATOM     28  O   UNL     1       1.761  10.623  17.755  0.00  0.00    +0.000 OA
BRANCH  28  29
ATOM     29  C   UNL     1       1.967  11.805  18.534  0.00  0.00    +0.000 C 
BRANCH  29  30
ATOM     30  C   UNL     1       2.840  12.857  17.864  0.00  0.00    +0.000 C 
BRANCH  30  31
ATOM     31  C   UNL     1       2.459  14.251  18.407  0.00  0.00    +0.000 C 
BRANCH  31  32
ATOM     32  N   UNL     1       3.596  15.017  18.967  0.00  0.00    +0.000 NA
ATOM     33  C   UNL     1       3.974  14.531  20.301  0.00  0.00    +0.000 C 
ATOM     34  C   UNL     1       5.140  15.323  20.891  0.00  0.00    +0.000 C 
ATOM     35  C   UNL     1       6.348  15.281  19.967  0.00  0.00    +0.000 C 
ATOM     36  C   UNL     1       5.951  15.778  18.584  0.00  0.00    +0.000 C 
ATOM     37  C   UNL     1       4.738  15.016  18.038  0.00  0.00    +0.000 C 
ENDBRANCH  31  32
ENDBRANCH  30  31
ENDBRANCH  29  30
ENDBRANCH  28  29
ENDBRANCH   3  28
TORSDOF 10
ENDMDL
