MODEL 1
REMARK VINA RESULT:      -8.4      0.000      0.000
REMARK  Name = 
REMARK  8 active torsions:
REMARK  status: ('A' for Active; 'I' for Inactive)
REMARK    1  A    between atoms: C_1  and  O_2
REMARK    2  A    between atoms: O_2  and  C_3
REMARK    3  A    between atoms: C_5  and  N_6
REMARK    4  A    between atoms: N_6  and  S_7
REMARK    5  A    between atoms: S_7  and  C_10
REMARK    6  A    between atoms: N_22  and  C_23
REMARK    7  A    between atoms: C_24  and  O_25
REMARK    8  A    between atoms: O_25  and  C_26
REMARK                            x       y       z     vdW  Elec       q    Type
REMARK                         _______ _______ _______ _____ _____    ______ ____
ROOT
ATOM      1  S   UNL     1       0.901   8.879  21.168  0.00  0.00    +0.000 S 
ATOM      2  O   UNL     1       1.821   9.342  22.186  0.00  0.00    +0.000 OA
ATOM      3  O   UNL     1      -0.489   8.616  21.482  0.00  0.00    +0.000 OA
ENDROOT
BRANCH   1   4
ATOM      4  C   UNL     1       1.569   7.388  20.453  0.00  0.00    +0.000 A 
ATOM      5  C   UNL     1       1.324   6.150  21.048  0.00  0.00    +0.000 A 
ATOM      6  C   UNL     1       1.913   4.985  20.535  0.00  0.00    +0.000 A 
ATOM      7  C   UNL     1       2.749   5.102  19.409  0.00  0.00    +0.000 A 
ATOM      8  C   UNL     1       3.004   6.333  18.802  0.00  0.00    +0.000 A 
ATOM      9  C   UNL     1       2.424   7.498  19.347  0.00  0.00    +0.000 A 
ATOM     10  C   UNL     1       3.861   6.094  17.685  0.00  0.00    +0.000 A 
ATOM     11  C   UNL     1       4.427   6.933  16.700  0.00  0.00    +0.000 A 
ATOM     12  C   UNL     1       5.239   6.385  15.703  0.00  0.00    +0.000 A 
ATOM     13  C   UNL     1       5.496   5.019  15.676  0.00  0.00    +0.000 A 
ATOM     14  C   UNL     1       4.952   4.167  16.642  0.00  0.00    +0.000 A 
ATOM     15  C   UNL     1       4.131   4.725  17.639  0.00  0.00    +0.000 A 
ATOM     16  N   UNL     1       3.470   4.151  18.708  0.00  0.00    +0.000 N 
ATOM     17  C   UNL     1       3.528   2.752  19.078  0.00  0.00    +0.000 C 
ENDBRANCH   1   4
BRANCH   1  18
ATOM     18  N   UNL     1       0.875   9.970  19.875  0.00  0.00    +0.000 N 
ATOM     19  H   UNL     1       1.471   9.622  19.123  0.00  0.00    +0.000 HD
BRANCH  18  22
ATOM     20  C   UNL     1      -2.276  10.317  17.960  0.00  0.00    +0.000 A 
ATOM     21  C   UNL     1      -1.020   9.886  18.387  0.00  0.00    +0.000 A 
ATOM     22  C   UNL     1      -0.381  10.513  19.458  0.00  0.00    +0.000 A 
ATOM     23  C   UNL     1      -0.970  11.617  20.099  0.00  0.00    +0.000 A 
ATOM     24  C   UNL     1      -2.217  12.068  19.652  0.00  0.00    +0.000 A 
ATOM     25  C   UNL     1      -2.864  11.420  18.591  0.00  0.00    +0.000 A 
ATOM     26 CL   UNL     1      -4.429  11.994  18.126  0.00  0.00    +0.000 Cl
BRANCH  20  28
ATOM     27  C   UNL     1      -2.682  10.245  15.633  0.00  0.00    +0.000 C 
ATOM     28  O   UNL     1      -2.958   9.723  16.930  0.00  0.00    +0.000 OA
ENDBRANCH  20  28
BRANCH  23  29
ATOM     29  O   UNL     1      -0.281  12.154  21.157  0.00  0.00    +0.000 OA
ATOM     30  C   UNL     1      -0.910  12.090  22.434  0.00  0.00    +0.000 C 
ENDBRANCH  23  29
ENDBRANCH  18  22
ENDBRANCH   1  18
TORSDOF 5
ENDMDL
MODEL 2
REMARK VINA RESULT:      -8.2      1.269      2.761
REMARK  Name = 
REMARK  8 active torsions:
REMARK  status: ('A' for Active; 'I' for Inactive)
REMARK    1  A    between atoms: C_1  and  O_2
REMARK    2  A    between atoms: O_2  and  C_3
REMARK    3  A    between atoms: C_5  and  N_6
REMARK    4  A    between atoms: N_6  and  S_7
REMARK    5  A    between atoms: S_7  and  C_10
REMARK    6  A    between atoms: N_22  and  C_23
REMARK    7  A    between atoms: C_24  and  O_25
REMARK    8  A    between atoms: O_25  and  C_26
REMARK                            x       y       z     vdW  Elec       q    Type
REMARK                         _______ _______ _______ _____ _____    ______ ____
ROOT
ATOM      1  S   UNL     1       0.504   9.840  20.542  0.00  0.00    +0.000 S 
ATOM      2  O   UNL     1       1.293  10.512  21.555  0.00  0.00    +0.000 OA
ATOM      3  O   UNL     1      -0.779   9.250  20.865  0.00  0.00    +0.000 OA
ENDROOT
BRANCH   1   4
ATOM      4  C   UNL     1       1.508   8.555  19.821  0.00  0.00    +0.000 A 
ATOM      5  C   UNL     1       2.153   8.765  18.601  0.00  0.00    +0.000 A 
ATOM      6  C   UNL     1       2.877   7.731  17.991  0.00  0.00    +0.000 A 
ATOM      7  C   UNL     1       2.936   6.485  18.644  0.00  0.00    +0.000 A 
ATOM      8  C   UNL     1       2.297   6.259  19.864  0.00  0.00    +0.000 A 
ATOM      9  C   UNL     1       1.552   7.303  20.450  0.00  0.00    +0.000 A 
ATOM     10  C   UNL     1       2.577   4.913  20.254  0.00  0.00    +0.000 A 
ATOM     11  C   UNL     1       2.227   4.139  21.382  0.00  0.00    +0.000 A 
ATOM     12  C   UNL     1       2.674   2.818  21.484  0.00  0.00    +0.000 A 
ATOM     13  C   UNL     1       3.457   2.260  20.480  0.00  0.00    +0.000 A 
ATOM     14  C   UNL     1       3.814   3.005  19.350  0.00  0.00    +0.000 A 
ATOM     15  C   UNL     1       3.365   4.335  19.257  0.00  0.00    +0.000 A 
ATOM     16  N   UNL     1       3.545   5.297  18.282  0.00  0.00    +0.000 N 
ATOM     17  C   UNL     1       4.251   5.103  17.033  0.00  0.00    +0.000 C 
ENDBRANCH   1   4
BRANCH   1  18
ATOM     18  N   UNL     1       0.207  10.892  19.251  0.00  0.00    +0.000 N 
ATOM     19  H   UNL     1       0.902  10.739  18.519  0.00  0.00    +0.000 HD
BRANCH  18  22
ATOM     20  C   UNL     1      -2.835  10.363  17.207  0.00  0.00    +0.000 A 
ATOM     21  C   UNL     1      -1.524  10.307  17.679  0.00  0.00    +0.000 A 
ATOM     22  C   UNL     1      -1.138  11.055  18.792  0.00  0.00    +0.000 A 
ATOM     23  C   UNL     1      -2.050  11.912  19.432  0.00  0.00    +0.000 A 
ATOM     24  C   UNL     1      -3.358  11.990  18.941  0.00  0.00    +0.000 A 
ATOM     25  C   UNL     1      -3.746  11.219  17.837  0.00  0.00    +0.000 A 
ATOM     26 CL   UNL     1      -5.393  11.321  17.317  0.00  0.00    +0.000 Cl
BRANCH  20  28
ATOM     27  C   UNL     1      -2.947  10.169  14.853  0.00  0.00    +0.000 C 
ATOM     28  O   UNL     1      -3.273   9.631  16.132  0.00  0.00    +0.000 OA
ENDBRANCH  20  28
BRANCH  23  29
ATOM     29  O   UNL     1      -1.589  12.590  20.532  0.00  0.00    +0.000 OA
ATOM     30  C   UNL     1      -1.326  13.982  20.367  0.00  0.00    +0.000 C 
ENDBRANCH  23  29
ENDBRANCH  18  22
ENDBRANCH   1  18
TORSDOF 5
ENDMDL
MODEL 3
REMARK VINA RESULT:      -7.9      4.027      8.556
REMARK  Name = 
REMARK  8 active torsions:
REMARK  status: ('A' for Active; 'I' for Inactive)
REMARK    1  A    between atoms: C_1  and  O_2
REMARK    2  A    between atoms: O_2  and  C_3
REMARK    3  A    between atoms: C_5  and  N_6
REMARK    4  A    between atoms: N_6  and  S_7
REMARK    5  A    between atoms: S_7  and  C_10
REMARK    6  A    between atoms: N_22  and  C_23
REMARK    7  A    between atoms: C_24  and  O_25
REMARK    8  A    between atoms: O_25  and  C_26
REMARK                            x       y       z     vdW  Elec       q    Type
REMARK                         _______ _______ _______ _____ _____    ______ ____
ROOT
ATOM      1  S   UNL     1       2.161   5.440  19.754  0.00  0.00    +0.000 S 
ATOM      2  O   UNL     1       1.771   4.776  18.528  0.00  0.00    +0.000 OA
ATOM      3  O   UNL     1       1.643   5.007  21.036  0.00  0.00    +0.000 OA
ENDROOT
BRANCH   1   4
ATOM      4  C   UNL     1       1.776   7.174  19.592  0.00  0.00    +0.000 A 
ATOM      5  C   UNL     1       2.229   7.896  18.487  0.00  0.00    +0.000 A 
ATOM      6  C   UNL     1       1.998   9.276  18.395  0.00  0.00    +0.000 A 
ATOM      7  C   UNL     1       1.297   9.904  19.441  0.00  0.00    +0.000 A 
ATOM      8  C   UNL     1       0.837   9.197  20.553  0.00  0.00    +0.000 A 
ATOM      9  C   UNL     1       1.101   7.815  20.641  0.00  0.00    +0.000 A 
ATOM     10  C   UNL     1       0.154  10.122  21.401  0.00  0.00    +0.000 A 
ATOM     11  C   UNL     1      -0.527   9.988  22.630  0.00  0.00    +0.000 A 
ATOM     12  C   UNL     1      -1.117  11.109  23.223  0.00  0.00    +0.000 A 
ATOM     13  C   UNL     1      -1.034  12.355  22.612  0.00  0.00    +0.000 A 
ATOM     14  C   UNL     1      -0.361  12.514  21.396  0.00  0.00    +0.000 A 
ATOM     15  C   UNL     1       0.225  11.382  20.803  0.00  0.00    +0.000 A 
ATOM     16  N   UNL     1       0.944  11.229  19.634  0.00  0.00    +0.000 N 
ATOM     17  C   UNL     1       1.312  12.298  18.729  0.00  0.00    +0.000 C 
ENDBRANCH   1   4
BRANCH   1  18
ATOM     18  N   UNL     1       3.845   5.414  19.913  0.00  0.00    +0.000 N 
ATOM     19  H   UNL     1       4.104   4.846  20.720  0.00  0.00    +0.000 HD
BRANCH  18  22
ATOM     20  C   UNL     1       6.120   6.208  17.100  0.00  0.00    +0.000 A 
ATOM     21  C   UNL     1       5.276   6.333  18.204  0.00  0.00    +0.000 A 
ATOM     22  C   UNL     1       4.643   5.212  18.743  0.00  0.00    +0.000 A 
ATOM     23  C   UNL     1       4.807   3.944  18.158  0.00  0.00    +0.000 A 
ATOM     24  C   UNL     1       5.630   3.823  17.033  0.00  0.00    +0.000 A 
ATOM     25  C   UNL     1       6.282   4.949  16.510  0.00  0.00    +0.000 A 
ATOM     26 CL   UNL     1       7.330   4.720  15.152  0.00  0.00    +0.000 Cl
BRANCH  20  28
ATOM     27  C   UNL     1       7.620   8.003  17.440  0.00  0.00    +0.000 C 
ATOM     28  O   UNL     1       6.785   7.272  16.546  0.00  0.00    +0.000 OA
ENDBRANCH  20  28
BRANCH  23  29
ATOM     29  O   UNL     1       4.165   2.897  18.769  0.00  0.00    +0.000 OA
ATOM     30  C   UNL     1       3.555   1.930  17.917  0.00  0.00    +0.000 C 
ENDBRANCH  23  29
ENDBRANCH  18  22
ENDBRANCH   1  18
TORSDOF 5
ENDMDL
MODEL 4
REMARK VINA RESULT:      -7.8      1.029      2.639
REMARK  Name = 
REMARK  8 active torsions:
REMARK  status: ('A' for Active; 'I' for Inactive)
REMARK    1  A    between atoms: C_1  and  O_2
REMARK    2  A    between atoms: O_2  and  C_3
REMARK    3  A    between atoms: C_5  and  N_6
REMARK    4  A    between atoms: N_6  and  S_7
REMARK    5  A    between atoms: S_7  and  C_10
REMARK    6  A    between atoms: N_22  and  C_23
REMARK    7  A    between atoms: C_24  and  O_25
REMARK    8  A    between atoms: O_25  and  C_26
REMARK                            x       y       z     vdW  Elec       q    Type
REMARK                         _______ _______ _______ _____ _____    ______ ____
ROOT
ATOM      1  S   UNL     1       0.835   8.489  21.238  0.00  0.00    +0.000 S 
ATOM      2  O   UNL     1       1.776   9.013  22.206  0.00  0.00    +0.000 OA
ATOM      3  O   UNL     1      -0.506   8.105  21.632  0.00  0.00    +0.000 OA
ENDROOT
BRANCH   1   4
ATOM      4  C   UNL     1       1.577   7.070  20.454  0.00  0.00    +0.000 A 
ATOM      5  C   UNL     1       1.399   5.794  20.991  0.00  0.00    +0.000 A 
ATOM      6  C   UNL     1       2.046   4.687  20.424  0.00  0.00    +0.000 A 
ATOM      7  C   UNL     1       2.870   4.899  19.304  0.00  0.00    +0.000 A 
ATOM      8  C   UNL     1       3.059   6.168  18.755  0.00  0.00    +0.000 A 
ATOM      9  C   UNL     1       2.421   7.274  19.353  0.00  0.00    +0.000 A 
ATOM     10  C   UNL     1       3.923   6.026  17.626  0.00  0.00    +0.000 A 
ATOM     11  C   UNL     1       4.441   6.938  16.681  0.00  0.00    +0.000 A 
ATOM     12  C   UNL     1       5.277   6.480  15.658  0.00  0.00    +0.000 A 
ATOM     13  C   UNL     1       5.605   5.132  15.567  0.00  0.00    +0.000 A 
ATOM     14  C   UNL     1       5.109   4.209  16.494  0.00  0.00    +0.000 A 
ATOM     15  C   UNL     1       4.264   4.676  17.517  0.00  0.00    +0.000 A 
ATOM     16  N   UNL     1       3.637   4.020  18.559  0.00  0.00    +0.000 N 
ATOM     17  C   UNL     1       3.769   2.611  18.863  0.00  0.00    +0.000 C 
ENDBRANCH   1   4
BRANCH   1  18
ATOM     18  N   UNL     1       0.637   9.592  19.971  0.00  0.00    +0.000 N 
ATOM     19  H   UNL     1       0.757   9.112  19.078  0.00  0.00    +0.000 HD
BRANCH  18  22
ATOM     20  C   UNL     1      -1.664  12.147  21.347  0.00  0.00    +0.000 A 
ATOM     21  C   UNL     1      -0.658  11.187  21.231  0.00  0.00    +0.000 A 
ATOM     22  C   UNL     1      -0.455  10.514  20.026  0.00  0.00    +0.000 A 
ATOM     23  C   UNL     1      -1.287  10.757  18.919  0.00  0.00    +0.000 A 
ATOM     24  C   UNL     1      -2.315  11.699  19.044  0.00  0.00    +0.000 A 
ATOM     25  C   UNL     1      -2.499  12.389  20.250  0.00  0.00    +0.000 A 
ATOM     26 CL   UNL     1      -3.752  13.580  20.318  0.00  0.00    +0.000 Cl
BRANCH  20  28
ATOM     27  C   UNL     1      -2.774  12.234  23.433  0.00  0.00    +0.000 C 
ATOM     28  O   UNL     1      -1.891  12.854  22.500  0.00  0.00    +0.000 OA
ENDBRANCH  20  28
BRANCH  23  29
ATOM     29  O   UNL     1      -0.999  10.067  17.769  0.00  0.00    +0.000 OA
ATOM     30  C   UNL     1      -2.063   9.901  16.834  0.00  0.00    +0.000 C 
ENDBRANCH  23  29
ENDBRANCH  18  22
ENDBRANCH   1  18
TORSDOF 5
ENDMDL
MODEL 5
REMARK VINA RESULT:      -7.8      3.963      8.602
REMARK  Name = 
REMARK  8 active torsions:
REMARK  status: ('A' for Active; 'I' for Inactive)
REMARK    1  A    between atoms: C_1  and  O_2
REMARK    2  A    between atoms: O_2  and  C_3
REMARK    3  A    between atoms: C_5  and  N_6
REMARK    4  A    between atoms: N_6  and  S_7
REMARK    5  A    between atoms: S_7  and  C_10
REMARK    6  A    between atoms: N_22  and  C_23
REMARK    7  A    between atoms: C_24  and  O_25
REMARK    8  A    between atoms: O_25  and  C_26
REMARK                            x       y       z     vdW  Elec       q    Type
REMARK                         _______ _______ _______ _____ _____    ______ ____
ROOT
ATOM      1  S   UNL     1       2.373   5.939  19.763  0.00  0.00    +0.000 S 
ATOM      2  O   UNL     1       1.471   5.235  20.651  0.00  0.00    +0.000 OA
ATOM      3  O   UNL     1       3.794   6.007  20.041  0.00  0.00    +0.000 OA
ENDROOT
BRANCH   1   4
ATOM      4  C   UNL     1       1.790   7.616  19.596  0.00  0.00    +0.000 A 
ATOM      5  C   UNL     1       2.112   8.365  18.463  0.00  0.00    +0.000 A 
ATOM      6  C   UNL     1       1.724   9.708  18.365  0.00  0.00    +0.000 A 
ATOM      7  C   UNL     1       1.001  10.273  19.432  0.00  0.00    +0.000 A 
ATOM      8  C   UNL     1       0.671   9.538  20.572  0.00  0.00    +0.000 A 
ATOM      9  C   UNL     1       1.092   8.195  20.666  0.00  0.00    +0.000 A 
ATOM     10  C   UNL     1      -0.075  10.395  21.437  0.00  0.00    +0.000 A 
ATOM     11  C   UNL     1      -0.685  10.208  22.697  0.00  0.00    +0.000 A 
ATOM     12  C   UNL     1      -1.371  11.265  23.301  0.00  0.00    +0.000 A 
ATOM     13  C   UNL     1      -1.454  12.502  22.672  0.00  0.00    +0.000 A 
ATOM     14  C   UNL     1      -0.856  12.714  21.425  0.00  0.00    +0.000 A 
ATOM     15  C   UNL     1      -0.171  11.645  20.821  0.00  0.00    +0.000 A 
ATOM     16  N   UNL     1       0.510  11.553  19.623  0.00  0.00    +0.000 N 
ATOM     17  C   UNL     1       0.717  12.641  18.690  0.00  0.00    +0.000 C 
ENDBRANCH   1   4
BRANCH   1  18
ATOM     18  N   UNL     1       2.247   5.311  18.197  0.00  0.00    +0.000 N 
ATOM     19  H   UNL     1       1.512   5.804  17.689  0.00  0.00    +0.000 HD
BRANCH  18  22
ATOM     20  C   UNL     1       5.482   6.007  16.533  0.00  0.00    +0.000 A 
ATOM     21  C   UNL     1       4.266   6.169  17.199  0.00  0.00    +0.000 A 
ATOM     22  C   UNL     1       3.446   5.070  17.454  0.00  0.00    +0.000 A 
ATOM     23  C   UNL     1       3.806   3.786  17.009  0.00  0.00    +0.000 A 
ATOM     24  C   UNL     1       5.012   3.628  16.316  0.00  0.00    +0.000 A 
ATOM     25  C   UNL     1       5.843   4.731  16.083  0.00  0.00    +0.000 A 
ATOM     26 CL   UNL     1       7.346   4.456  15.271  0.00  0.00    +0.000 Cl
BRANCH  20  28
ATOM     27  C   UNL     1       7.215   7.395  17.346  0.00  0.00    +0.000 C 
ATOM     28  O   UNL     1       6.337   7.049  16.278  0.00  0.00    +0.000 OA
ENDBRANCH  20  28
BRANCH  23  29
ATOM     29  O   UNL     1       2.950   2.762  17.326  0.00  0.00    +0.000 OA
ATOM     30  C   UNL     1       3.458   1.738  18.178  0.00  0.00    +0.000 C 
ENDBRANCH  23  29
ENDBRANCH  18  22
ENDBRANCH   1  18
TORSDOF 5
ENDMDL
MODEL 6
REMARK VINA RESULT:      -7.8      1.552      3.809
REMARK  Name = 
REMARK  8 active torsions:
REMARK  status: ('A' for Active; 'I' for Inactive)
REMARK    1  A    between atoms: C_1  and  O_2
REMARK    2  A    between atoms: O_2  and  C_3
REMARK    3  A    between atoms: C_5  and  N_6
REMARK    4  A    between atoms: N_6  and  S_7
REMARK    5  A    between atoms: S_7  and  C_10
REMARK    6  A    between atoms: N_22  and  C_23
REMARK    7  A    between atoms: C_24  and  O_25
REMARK    8  A    between atoms: O_25  and  C_26
REMARK                            x       y       z     vdW  Elec       q    Type
REMARK                         _______ _______ _______ _____ _____    ______ ____
ROOT
ATOM      1  S   UNL     1       0.523  10.188  19.662  0.00  0.00    +0.000 S 
ATOM      2  O   UNL     1       1.364  11.319  19.997  0.00  0.00    +0.000 OA
ATOM      3  O   UNL     1      -0.424   9.652  20.618  0.00  0.00    +0.000 OA
ENDROOT
BRANCH   1   4
ATOM      4  C   UNL     1       1.579   8.842  19.158  0.00  0.00    +0.000 A 
ATOM      5  C   UNL     1       2.352   8.948  18.001  0.00  0.00    +0.000 A 
ATOM      6  C   UNL     1       3.122   7.863  17.557  0.00  0.00    +0.000 A 
ATOM      7  C   UNL     1       3.095   6.675  18.312  0.00  0.00    +0.000 A 
ATOM      8  C   UNL     1       2.327   6.553  19.471  0.00  0.00    +0.000 A 
ATOM      9  C   UNL     1       1.539   7.646  19.888  0.00  0.00    +0.000 A 
ATOM     10  C   UNL     1       2.546   5.243  19.998  0.00  0.00    +0.000 A 
ATOM     11  C   UNL     1       2.069   4.566  21.141  0.00  0.00    +0.000 A 
ATOM     12  C   UNL     1       2.485   3.256  21.397  0.00  0.00    +0.000 A 
ATOM     13  C   UNL     1       3.361   2.613  20.531  0.00  0.00    +0.000 A 
ATOM     14  C   UNL     1       3.845   3.260  19.388  0.00  0.00    +0.000 A 
ATOM     15  C   UNL     1       3.427   4.580  19.140  0.00  0.00    +0.000 A 
ATOM     16  N   UNL     1       3.722   5.457  18.115  0.00  0.00    +0.000 N 
ATOM     17  C   UNL     1       4.553   5.157  16.967  0.00  0.00    +0.000 C 
ENDBRANCH   1   4
BRANCH   1  18
ATOM     18  N   UNL     1      -0.380  10.533  18.273  0.00  0.00    +0.000 N 
ATOM     19  H   UNL     1      -0.234   9.799  17.579  0.00  0.00    +0.000 HD
BRANCH  18  22
ATOM     20  C   UNL     1      -3.283  12.390  19.630  0.00  0.00    +0.000 A 
ATOM     21  C   UNL     1      -1.999  11.871  19.455  0.00  0.00    +0.000 A 
ATOM     22  C   UNL     1      -1.734  10.969  18.424  0.00  0.00    +0.000 A 
ATOM     23  C   UNL     1      -2.762  10.531  17.570  0.00  0.00    +0.000 A 
ATOM     24  C   UNL     1      -4.055  11.030  17.764  0.00  0.00    +0.000 A 
ATOM     25  C   UNL     1      -4.311  11.953  18.786  0.00  0.00    +0.000 A 
ATOM     26 CL   UNL     1      -5.920  12.572  18.935  0.00  0.00    +0.000 Cl
BRANCH  20  28
ATOM     27  C   UNL     1      -3.777  12.748  21.914  0.00  0.00    +0.000 C 
ATOM     28  O   UNL     1      -3.593  13.296  20.611  0.00  0.00    +0.000 OA
ENDBRANCH  20  28
BRANCH  23  29
ATOM     29  O   UNL     1      -2.404   9.662  16.571  0.00  0.00    +0.000 OA
ATOM     30  C   UNL     1      -2.813   9.999  15.247  0.00  0.00    +0.000 C 
ENDBRANCH  23  29
ENDBRANCH  18  22
ENDBRANCH   1  18
TORSDOF 5
ENDMDL
MODEL 7
REMARK VINA RESULT:      -7.8      1.480      2.919
REMARK  Name = 
REMARK  8 active torsions:
REMARK  status: ('A' for Active; 'I' for Inactive)
REMARK    1  A    between atoms: C_1  and  O_2
REMARK    2  A    between atoms: O_2  and  C_3
REMARK    3  A    between atoms: C_5  and  N_6
REMARK    4  A    between atoms: N_6  and  S_7
REMARK    5  A    between atoms: S_7  and  C_10
REMARK    6  A    between atoms: N_22  and  C_23
REMARK    7  A    between atoms: C_24  and  O_25
REMARK    8  A    between atoms: O_25  and  C_26
REMARK                            x       y       z     vdW  Elec       q    Type
REMARK                         _______ _______ _______ _____ _____    ______ ____
ROOT
ATOM      1  S   UNL     1       0.958   8.436  21.176  0.00  0.00    +0.000 S 
ATOM      2  O   UNL     1       1.860   8.853  22.231  0.00  0.00    +0.000 OA
ATOM      3  O   UNL     1      -0.435   8.151  21.454  0.00  0.00    +0.000 OA
ENDROOT
BRANCH   1   4
ATOM      4  C   UNL     1       1.646   6.985  20.400  0.00  0.00    +0.000 A 
ATOM      5  C   UNL     1       1.417   5.720  20.943  0.00  0.00    +0.000 A 
ATOM      6  C   UNL     1       2.022   4.586  20.383  0.00  0.00    +0.000 A 
ATOM      7  C   UNL     1       2.856   4.760  19.264  0.00  0.00    +0.000 A 
ATOM      8  C   UNL     1       3.095   6.018  18.709  0.00  0.00    +0.000 A 
ATOM      9  C   UNL     1       2.499   7.151  19.300  0.00  0.00    +0.000 A 
ATOM     10  C   UNL     1       3.955   5.837  17.582  0.00  0.00    +0.000 A 
ATOM     11  C   UNL     1       4.510   6.723  16.634  0.00  0.00    +0.000 A 
ATOM     12  C   UNL     1       5.329   6.228  15.615  0.00  0.00    +0.000 A 
ATOM     13  C   UNL     1       5.605   4.868  15.532  0.00  0.00    +0.000 A 
ATOM     14  C   UNL     1       5.071   3.969  16.462  0.00  0.00    +0.000 A 
ATOM     15  C   UNL     1       4.243   4.474  17.481  0.00  0.00    +0.000 A 
ATOM     16  N   UNL     1       3.589   3.848  18.524  0.00  0.00    +0.000 N 
ATOM     17  C   UNL     1       3.666   2.436  18.836  0.00  0.00    +0.000 C 
ENDBRANCH   1   4
BRANCH   1  18
ATOM     18  N   UNL     1       0.948   9.589  19.937  0.00  0.00    +0.000 N 
ATOM     19  H   UNL     1       0.771   9.129  19.044  0.00  0.00    +0.000 HD
BRANCH  18  22
ATOM     20  C   UNL     1       0.232  13.001  21.187  0.00  0.00    +0.000 A 
ATOM     21  C   UNL     1       0.831  11.758  20.983  0.00  0.00    +0.000 A 
ATOM     22  C   UNL     1       0.238  10.814  20.144  0.00  0.00    +0.000 A 
ATOM     23  C   UNL     1      -0.995  11.078  19.523  0.00  0.00    +0.000 A 
ATOM     24  C   UNL     1      -1.611  12.314  19.751  0.00  0.00    +0.000 A 
ATOM     25  C   UNL     1      -0.999  13.268  20.576  0.00  0.00    +0.000 A 
ATOM     26 CL   UNL     1      -1.787  14.796  20.770  0.00  0.00    +0.000 Cl
BRANCH  20  28
ATOM     27  C   UNL     1       1.930  14.626  21.442  0.00  0.00    +0.000 C 
ATOM     28  O   UNL     1       0.784  13.973  21.982  0.00  0.00    +0.000 OA
ENDBRANCH  20  28
BRANCH  23  29
ATOM     29  O   UNL     1      -1.492  10.102  18.698  0.00  0.00    +0.000 OA
ATOM     30  C   UNL     1      -1.953  10.517  17.415  0.00  0.00    +0.000 C 
ENDBRANCH  23  29
ENDBRANCH  18  22
ENDBRANCH   1  18
TORSDOF 5
ENDMDL
MODEL 8
REMARK VINA RESULT:      -7.6      3.032      4.416
REMARK  Name = 
REMARK  8 active torsions:
REMARK  status: ('A' for Active; 'I' for Inactive)
REMARK    1  A    between atoms: C_1  and  O_2
REMARK    2  A    between atoms: O_2  and  C_3
REMARK    3  A    between atoms: C_5  and  N_6
REMARK    4  A    between atoms: N_6  and  S_7
REMARK    5  A    between atoms: S_7  and  C_10
REMARK    6  A    between atoms: N_22  and  C_23
REMARK    7  A    between atoms: C_24  and  O_25
REMARK    8  A    between atoms: O_25  and  C_26
REMARK                            x       y       z     vdW  Elec       q    Type
REMARK                         _______ _______ _______ _____ _____    ______ ____
ROOT
ATOM      1  S   UNL     1       0.607  10.247  19.760  0.00  0.00    +0.000 S 
ATOM      2  O   UNL     1       1.288  10.923  20.845  0.00  0.00    +0.000 OA
ATOM      3  O   UNL     1      -0.741   9.742  19.924  0.00  0.00    +0.000 OA
ENDROOT
BRANCH   1   4
ATOM      4  C   UNL     1       1.621   8.877  19.237  0.00  0.00    +0.000 A 
ATOM      5  C   UNL     1       2.375   8.965  18.066  0.00  0.00    +0.000 A 
ATOM      6  C   UNL     1       3.111   7.863  17.608  0.00  0.00    +0.000 A 
ATOM      7  C   UNL     1       3.068   6.676  18.362  0.00  0.00    +0.000 A 
ATOM      8  C   UNL     1       2.319   6.570  19.535  0.00  0.00    +0.000 A 
ATOM      9  C   UNL     1       1.565   7.681  19.967  0.00  0.00    +0.000 A 
ATOM     10  C   UNL     1       2.516   5.255  20.057  0.00  0.00    +0.000 A 
ATOM     11  C   UNL     1       2.043   4.589  21.208  0.00  0.00    +0.000 A 
ATOM     12  C   UNL     1       2.431   3.269  21.456  0.00  0.00    +0.000 A 
ATOM     13  C   UNL     1       3.277   2.606  20.573  0.00  0.00    +0.000 A 
ATOM     14  C   UNL     1       3.755   3.242  19.423  0.00  0.00    +0.000 A 
ATOM     15  C   UNL     1       3.365   4.572  19.183  0.00  0.00    +0.000 A 
ATOM     16  N   UNL     1       3.663   5.443  18.153  0.00  0.00    +0.000 N 
ATOM     17  C   UNL     1       4.466   5.125  16.991  0.00  0.00    +0.000 C 
ENDBRANCH   1   4
BRANCH   1  18
ATOM     18  N   UNL     1       0.553  11.252  18.399  0.00  0.00    +0.000 N 
ATOM     19  H   UNL     1      -0.258  11.011  17.829  0.00  0.00    +0.000 HD
BRANCH  18  22
ATOM     20  C   UNL     1       2.367  14.481  18.390  0.00  0.00    +0.000 A 
ATOM     21  C   UNL     1       2.074  13.119  18.306  0.00  0.00    +0.000 A 
ATOM     22  C   UNL     1       0.786  12.653  18.569  0.00  0.00    +0.000 A 
ATOM     23  C   UNL     1      -0.232  13.538  18.966  0.00  0.00    +0.000 A 
ATOM     24  C   UNL     1       0.069  14.901  19.079  0.00  0.00    +0.000 A 
ATOM     25  C   UNL     1       1.359  15.366  18.791  0.00  0.00    +0.000 A 
ATOM     26 CL   UNL     1       1.647  17.069  18.895  0.00  0.00    +0.000 Cl
BRANCH  20  28
ATOM     27  C   UNL     1       4.550  14.913  19.187  0.00  0.00    +0.000 C 
ATOM     28  O   UNL     1       3.609  14.995  18.119  0.00  0.00    +0.000 OA
ENDBRANCH  20  28
BRANCH  23  29
ATOM     29  O   UNL     1      -1.472  12.995  19.181  0.00  0.00    +0.000 OA
ATOM     30  C   UNL     1      -1.989  13.075  20.507  0.00  0.00    +0.000 C 
ENDBRANCH  23  29
ENDBRANCH  18  22
ENDBRANCH   1  18
TORSDOF 5
ENDMDL
MODEL 9
REMARK VINA RESULT:      -7.5      1.342      1.573
REMARK  Name = 
REMARK  8 active torsions:
REMARK  status: ('A' for Active; 'I' for Inactive)
REMARK    1  A    between atoms: C_1  and  O_2
REMARK    2  A    between atoms: O_2  and  C_3
REMARK    3  A    between atoms: C_5  and  N_6
REMARK    4  A    between atoms: N_6  and  S_7
REMARK    5  A    between atoms: S_7  and  C_10
REMARK    6  A    between atoms: N_22  and  C_23
REMARK    7  A    between atoms: C_24  and  O_25
REMARK    8  A    between atoms: O_25  and  C_26
REMARK                            x       y       z     vdW  Elec       q    Type
REMARK                         _______ _______ _______ _____ _____    ______ ____
ROOT
ATOM      1  S   UNL     1       0.944   8.682  21.189  0.00  0.00    +0.000 S 
ATOM      2  O   UNL     1       1.868   9.089  22.227  0.00  0.00    +0.000 OA
ATOM      3  O   UNL     1      -0.451   8.427  21.488  0.00  0.00    +0.000 OA
ENDROOT
BRANCH   1   4
ATOM      4  C   UNL     1       1.592   7.212  20.415  0.00  0.00    +0.000 A 
ATOM      5  C   UNL     1       1.320   5.953  20.954  0.00  0.00    +0.000 A 
ATOM      6  C   UNL     1       1.892   4.801  20.396  0.00  0.00    +0.000 A 
ATOM      7  C   UNL     1       2.739   4.952  19.282  0.00  0.00    +0.000 A 
ATOM      8  C   UNL     1       3.022   6.202  18.732  0.00  0.00    +0.000 A 
ATOM      9  C   UNL     1       2.458   7.353  19.321  0.00  0.00    +0.000 A 
ATOM     10  C   UNL     1       3.884   5.996  17.611  0.00  0.00    +0.000 A 
ATOM     11  C   UNL     1       4.473   6.867  16.668  0.00  0.00    +0.000 A 
ATOM     12  C   UNL     1       5.283   6.347  15.654  0.00  0.00    +0.000 A 
ATOM     13  C   UNL     1       5.517   4.979  15.571  0.00  0.00    +0.000 A 
ATOM     14  C   UNL     1       4.949   4.096  16.495  0.00  0.00    +0.000 A 
ATOM     15  C   UNL     1       4.130   4.625  17.509  0.00  0.00    +0.000 A 
ATOM     16  N   UNL     1       3.449   4.019  18.547  0.00  0.00    +0.000 N 
ATOM     17  C   UNL     1       3.479   2.604  18.856  0.00  0.00    +0.000 C 
ENDBRANCH   1   4
BRANCH   1  18
ATOM     18  N   UNL     1       0.939   9.825  19.941  0.00  0.00    +0.000 N 
ATOM     19  H   UNL     1       0.937   9.347  19.039  0.00  0.00    +0.000 HD
BRANCH  18  22
ATOM     20  C   UNL     1      -2.165  11.820  19.624  0.00  0.00    +0.000 A 
ATOM     21  C   UNL     1      -1.226  10.794  19.513  0.00  0.00    +0.000 A 
ATOM     22  C   UNL     1       0.057  10.947  20.040  0.00  0.00    +0.000 A 
ATOM     23  C   UNL     1       0.443  12.151  20.653  0.00  0.00    +0.000 A 
ATOM     24  C   UNL     1      -0.490  13.191  20.739  0.00  0.00    +0.000 A 
ATOM     25  C   UNL     1      -1.785  13.024  20.229  0.00  0.00    +0.000 A 
ATOM     26 CL   UNL     1      -2.905  14.329  20.419  0.00  0.00    +0.000 Cl
BRANCH  20  28
ATOM     27  C   UNL     1      -3.559  11.541  17.735  0.00  0.00    +0.000 C 
ATOM     28  O   UNL     1      -3.446  11.713  19.145  0.00  0.00    +0.000 OA
ENDBRANCH  20  28
BRANCH  23  29
ATOM     29  O   UNL     1       1.715  12.203  21.163  0.00  0.00    +0.000 OA
ATOM     30  C   UNL     1       2.506  13.334  20.805  0.00  0.00    +0.000 C 
ENDBRANCH  23  29
ENDBRANCH  18  22
ENDBRANCH   1  18
TORSDOF 5
ENDMDL
