MODEL 1
REMARK VINA RESULT:      -8.3      0.000      0.000
REMARK  Name = 
REMARK  9 active torsions:
REMARK  status: ('A' for Active; 'I' for Inactive)
REMARK    1  A    between atoms: C_1  and  C_2
REMARK    2  A    between atoms: C_2  and  C_3
REMARK    3  A    between atoms: C_2  and  C_4
REMARK    4  A    between atoms: C_2  and  C_5
REMARK    5  A    between atoms: N_7  and  C_8
REMARK    6  A    between atoms: C_8  and  C_9
REMARK    7  A    between atoms: C_8  and  C_13
REMARK    8  A    between atoms: N_11  and  O_12
REMARK    9  A    between atoms: C_16  and  C_17
REMARK                            x       y       z     vdW  Elec       q    Type
REMARK                         _______ _______ _______ _____ _____    ______ ____
ROOT
ATOM      1  C   UNL     1       3.074   5.672  17.793  0.00  0.00    +0.000 C 
ENDROOT
BRANCH   1   2
ATOM      2  C   UNL     1       2.450   6.749  18.661  0.00  0.00    +0.000 A 
ATOM      3  C   UNL     1       2.145   6.475  19.997  0.00  0.00    +0.000 A 
ATOM      4  C   UNL     1       1.518   7.437  20.791  0.00  0.00    +0.000 A 
ATOM      5  C   UNL     1       1.183   8.711  20.293  0.00  0.00    +0.000 A 
ATOM      6  C   UNL     1       1.516   8.979  18.954  0.00  0.00    +0.000 A 
ATOM      7  C   UNL     1       2.140   8.018  18.151  0.00  0.00    +0.000 A 
BRANCH   5   8
ATOM      8  C   UNL     1       0.490   9.701  21.150  0.00  0.00    +0.000 A 
ATOM      9  C   UNL     1      -0.115   9.312  22.363  0.00  0.00    +0.000 A 
ATOM     10  C   UNL     1      -0.828  10.217  23.156  0.00  0.00    +0.000 A 
ATOM     11  C   UNL     1      -0.934  11.543  22.759  0.00  0.00    +0.000 A 
ATOM     12  C   UNL     1      -0.324  11.951  21.581  0.00  0.00    +0.000 A 
ATOM     13  F   UNL     1      -0.420  13.233  21.201  0.00  0.00    +0.000 F 
ATOM     14  C   UNL     1       0.377  11.052  20.779  0.00  0.00    +0.000 A 
ENDBRANCH   5   8
ENDBRANCH   1   2
BRANCH   1  17
ATOM     15  C   UNL     1       5.482   6.074  17.426  0.00  0.00    +0.000 C 
ATOM     16  O   UNL     1       5.242   6.735  16.418  0.00  0.00    +0.000 OA
ATOM     17  N   UNL     1       4.475   5.480  18.150  0.00  0.00    +0.000 N 
ATOM     18  H   UNL     1       4.664   5.054  19.049  0.00  0.00    +0.000 HD
BRANCH  15  20
ATOM     19  C   UNL     1       6.867   5.486  19.436  0.00  0.00    +0.000 C 
ATOM     20  C   UNL     1       6.916   5.821  17.934  0.00  0.00    +0.000 C 
ATOM     21  C   UNL     1       7.763   7.088  17.744  0.00  0.00    +0.000 C 
ATOM     22  C   UNL     1       7.558   4.644  17.187  0.00  0.00    +0.000 C 
ENDBRANCH  15  20
ENDBRANCH   1  17
BRANCH   1  23
ATOM     23  C   UNL     1       2.301   4.346  17.919  0.00  0.00    +0.000 C 
ATOM     24  O   UNL     1       1.184   4.159  17.420  0.00  0.00    +0.000 OA
ATOM     25  N   UNL     1       2.979   3.350  18.594  0.00  0.00    +0.000 N 
ATOM     26  H   UNL     1       3.688   3.552  19.290  0.00  0.00    +0.000 HD
BRANCH  25  27
ATOM     27  O   UNL     1       2.272   2.136  18.766  0.00  0.00    +0.000 OA
ATOM     28  H   UNL     1       2.272   1.755  17.860  0.00  0.00    +0.000 HD
ENDBRANCH  25  27
ENDBRANCH   1  23
TORSDOF 6
ENDMDL
MODEL 2
REMARK VINA RESULT:      -8.3      4.482      7.215
REMARK  Name = 
REMARK  9 active torsions:
REMARK  status: ('A' for Active; 'I' for Inactive)
REMARK    1  A    between atoms: C_1  and  C_2
REMARK    2  A    between atoms: C_2  and  C_3
REMARK    3  A    between atoms: C_2  and  C_4
REMARK    4  A    between atoms: C_2  and  C_5
REMARK    5  A    between atoms: N_7  and  C_8
REMARK    6  A    between atoms: C_8  and  C_9
REMARK    7  A    between atoms: C_8  and  C_13
REMARK    8  A    between atoms: N_11  and  O_12
REMARK    9  A    between atoms: C_16  and  C_17
REMARK                            x       y       z     vdW  Elec       q    Type
REMARK                         _______ _______ _______ _____ _____    ______ ____
ROOT
ATOM      1  C   UNL     1       6.484   4.998  17.325  0.00  0.00    +0.000 C 
ENDROOT
BRANCH   1   2
ATOM      2  C   UNL     1       7.120   6.306  17.758  0.00  0.00    +0.000 A 
ATOM      3  C   UNL     1       6.810   7.488  17.082  0.00  0.00    +0.000 A 
ATOM      4  C   UNL     1       7.431   8.688  17.433  0.00  0.00    +0.000 A 
ATOM      5  C   UNL     1       8.373   8.761  18.476  0.00  0.00    +0.000 A 
ATOM      6  C   UNL     1       8.660   7.568  19.161  0.00  0.00    +0.000 A 
ATOM      7  C   UNL     1       8.044   6.361  18.812  0.00  0.00    +0.000 A 
BRANCH   5   8
ATOM      8  C   UNL     1       9.041  10.043  18.806  0.00  0.00    +0.000 A 
ATOM      9  C   UNL     1       9.350  10.376  20.141  0.00  0.00    +0.000 A 
ATOM     10  C   UNL     1       9.923  11.606  20.481  0.00  0.00    +0.000 A 
ATOM     11  C   UNL     1      10.218  12.525  19.484  0.00  0.00    +0.000 A 
ATOM     12  C   UNL     1       9.944  12.206  18.162  0.00  0.00    +0.000 A 
ATOM     13  F   UNL     1      10.235  13.091  17.198  0.00  0.00    +0.000 F 
ATOM     14  C   UNL     1       9.362  10.987  17.817  0.00  0.00    +0.000 A 
ENDBRANCH   5   8
ENDBRANCH   1   2
BRANCH   1  17
ATOM     15  C   UNL     1       4.435   4.364  18.548  0.00  0.00    +0.000 C 
ATOM     16  O   UNL     1       5.082   3.639  19.302  0.00  0.00    +0.000 OA
ATOM     17  N   UNL     1       5.039   5.047  17.519  0.00  0.00    +0.000 N 
ATOM     18  H   UNL     1       4.530   5.744  16.989  0.00  0.00    +0.000 HD
BRANCH  15  20
ATOM     19  C   UNL     1       2.522   5.954  18.214  0.00  0.00    +0.000 C 
ATOM     20  C   UNL     1       2.907   4.533  18.664  0.00  0.00    +0.000 C 
ATOM     21  C   UNL     1       2.476   4.349  20.126  0.00  0.00    +0.000 C 
ATOM     22  C   UNL     1       2.179   3.519  17.771  0.00  0.00    +0.000 C 
ENDBRANCH  15  20
ENDBRANCH   1  17
BRANCH   1  23
ATOM     23  C   UNL     1       6.818   4.683  15.855  0.00  0.00    +0.000 C 
ATOM     24  O   UNL     1       7.726   5.244  15.227  0.00  0.00    +0.000 OA
ATOM     25  N   UNL     1       6.053   3.679  15.296  0.00  0.00    +0.000 N 
ATOM     26  H   UNL     1       5.119   3.460  15.626  0.00  0.00    +0.000 HD
BRANCH  25  27
ATOM     27  O   UNL     1       6.306   3.403  13.931  0.00  0.00    +0.000 OA
ATOM     28  H   UNL     1       5.631   3.949  13.470  0.00  0.00    +0.000 HD
ENDBRANCH  25  27
ENDBRANCH   1  23
TORSDOF 6
ENDMDL
MODEL 3
REMARK VINA RESULT:      -8.2      4.389      7.252
REMARK  Name = 
REMARK  9 active torsions:
REMARK  status: ('A' for Active; 'I' for Inactive)
REMARK    1  A    between atoms: C_1  and  C_2
REMARK    2  A    between atoms: C_2  and  C_3
REMARK    3  A    between atoms: C_2  and  C_4
REMARK    4  A    between atoms: C_2  and  C_5
REMARK    5  A    between atoms: N_7  and  C_8
REMARK    6  A    between atoms: C_8  and  C_9
REMARK    7  A    between atoms: C_8  and  C_13
REMARK    8  A    between atoms: N_11  and  O_12
REMARK    9  A    between atoms: C_16  and  C_17
REMARK                            x       y       z     vdW  Elec       q    Type
REMARK                         _______ _______ _______ _____ _____    ______ ____
ROOT
ATOM      1  C   UNL     1       6.431   4.878  17.372  0.00  0.00    +0.000 C 
ENDROOT
BRANCH   1   2
ATOM      2  C   UNL     1       7.070   6.194  17.775  0.00  0.00    +0.000 A 
ATOM      3  C   UNL     1       6.786   7.355  17.053  0.00  0.00    +0.000 A 
ATOM      4  C   UNL     1       7.410   8.561  17.377  0.00  0.00    +0.000 A 
ATOM      5  C   UNL     1       8.330   8.661  18.439  0.00  0.00    +0.000 A 
ATOM      6  C   UNL     1       8.590   7.489  19.170  0.00  0.00    +0.000 A 
ATOM      7  C   UNL     1       7.971   6.276  18.847  0.00  0.00    +0.000 A 
BRANCH   5   8
ATOM      8  C   UNL     1       9.002   9.947  18.740  0.00  0.00    +0.000 A 
ATOM      9  C   UNL     1       9.409  10.813  17.704  0.00  0.00    +0.000 A 
ATOM     10  C   UNL     1      10.099  12.001  17.963  0.00  0.00    +0.000 A 
ATOM     11  C   UNL     1      10.382  12.360  19.273  0.00  0.00    +0.000 A 
ATOM     12  C   UNL     1       9.969  11.533  20.309  0.00  0.00    +0.000 A 
ATOM     13  F   UNL     1      10.235  11.883  21.575  0.00  0.00    +0.000 F 
ATOM     14  C   UNL     1       9.291  10.341  20.058  0.00  0.00    +0.000 A 
ENDBRANCH   5   8
ENDBRANCH   1   2
BRANCH   1  17
ATOM     15  C   UNL     1       4.381   4.303  18.620  0.00  0.00    +0.000 C 
ATOM     16  O   UNL     1       5.027   3.616  19.410  0.00  0.00    +0.000 OA
ATOM     17  N   UNL     1       4.986   4.936  17.561  0.00  0.00    +0.000 N 
ATOM     18  H   UNL     1       4.478   5.605  16.997  0.00  0.00    +0.000 HD
BRANCH  15  20
ATOM     19  C   UNL     1       2.482   5.921  18.343  0.00  0.00    +0.000 C 
ATOM     20  C   UNL     1       2.852   4.476  18.726  0.00  0.00    +0.000 C 
ATOM     21  C   UNL     1       2.401   4.222  20.171  0.00  0.00    +0.000 C 
ATOM     22  C   UNL     1       2.129   3.514  17.773  0.00  0.00    +0.000 C 
ENDBRANCH  15  20
ENDBRANCH   1  17
BRANCH   1  23
ATOM     23  C   UNL     1       6.768   4.527  15.911  0.00  0.00    +0.000 C 
ATOM     24  O   UNL     1       7.763   4.963  15.317  0.00  0.00    +0.000 OA
ATOM     25  N   UNL     1       5.895   3.636  15.319  0.00  0.00    +0.000 N 
ATOM     26  H   UNL     1       4.930   3.543  15.618  0.00  0.00    +0.000 HD
BRANCH  25  27
ATOM     27  O   UNL     1       6.154   3.333  13.961  0.00  0.00    +0.000 OA
ATOM     28  H   UNL     1       5.324   3.614  13.515  0.00  0.00    +0.000 HD
ENDBRANCH  25  27
ENDBRANCH   1  23
TORSDOF 6
ENDMDL
MODEL 4
REMARK VINA RESULT:      -8.2      4.131      7.205
REMARK  Name = 
REMARK  9 active torsions:
REMARK  status: ('A' for Active; 'I' for Inactive)
REMARK    1  A    between atoms: C_1  and  C_2
REMARK    2  A    between atoms: C_2  and  C_3
REMARK    3  A    between atoms: C_2  and  C_4
REMARK    4  A    between atoms: C_2  and  C_5
REMARK    5  A    between atoms: N_7  and  C_8
REMARK    6  A    between atoms: C_8  and  C_9
REMARK    7  A    between atoms: C_8  and  C_13
REMARK    8  A    between atoms: N_11  and  O_12
REMARK    9  A    between atoms: C_16  and  C_17
REMARK                            x       y       z     vdW  Elec       q    Type
REMARK                         _______ _______ _______ _____ _____    ______ ____
ROOT
ATOM      1  C   UNL     1       6.318   5.063  17.599  0.00  0.00    +0.000 C 
ENDROOT
BRANCH   1   2
ATOM      2  C   UNL     1       7.067   6.356  17.862  0.00  0.00    +0.000 A 
ATOM      3  C   UNL     1       8.005   6.418  18.895  0.00  0.00    +0.000 A 
ATOM      4  C   UNL     1       8.660   7.617  19.185  0.00  0.00    +0.000 A 
ATOM      5  C   UNL     1       8.417   8.794  18.452  0.00  0.00    +0.000 A 
ATOM      6  C   UNL     1       7.488   8.710  17.402  0.00  0.00    +0.000 A 
ATOM      7  C   UNL     1       6.824   7.513  17.108  0.00  0.00    +0.000 A 
BRANCH   5   8
ATOM      8  C   UNL     1       9.103  10.060  18.802  0.00  0.00    +0.000 A 
ATOM      9  C   UNL     1       9.619  10.906  17.798  0.00  0.00    +0.000 A 
ATOM     10  C   UNL     1      10.325  12.073  18.109  0.00  0.00    +0.000 A 
ATOM     11  C   UNL     1      10.512  12.431  19.436  0.00  0.00    +0.000 A 
ATOM     12  C   UNL     1       9.990  11.624  20.438  0.00  0.00    +0.000 A 
ATOM     13  F   UNL     1      10.165  11.973  21.720  0.00  0.00    +0.000 F 
ATOM     14  C   UNL     1       9.297  10.453  20.137  0.00  0.00    +0.000 A 
ENDBRANCH   5   8
ENDBRANCH   1   2
BRANCH   1  17
ATOM     15  C   UNL     1       4.118   4.860  18.701  0.00  0.00    +0.000 C 
ATOM     16  O   UNL     1       4.613   4.212  19.621  0.00  0.00    +0.000 OA
ATOM     17  N   UNL     1       4.878   5.292  17.640  0.00  0.00    +0.000 N 
ATOM     18  H   UNL     1       4.498   5.937  16.958  0.00  0.00    +0.000 HD
BRANCH  15  20
ATOM     19  C   UNL     1       2.002   5.031  20.040  0.00  0.00    +0.000 C 
ATOM     20  C   UNL     1       2.616   5.202  18.638  0.00  0.00    +0.000 C 
ATOM     21  C   UNL     1       1.907   4.242  17.672  0.00  0.00    +0.000 C 
ATOM     22  C   UNL     1       2.408   6.653  18.183  0.00  0.00    +0.000 C 
ENDBRANCH  15  20
ENDBRANCH   1  17
BRANCH   1  23
ATOM     23  C   UNL     1       6.726   4.456  16.243  0.00  0.00    +0.000 C 
ATOM     24  O   UNL     1       7.886   4.472  15.811  0.00  0.00    +0.000 OA
ATOM     25  N   UNL     1       5.698   3.837  15.559  0.00  0.00    +0.000 N 
ATOM     26  H   UNL     1       4.727   4.100  15.687  0.00  0.00    +0.000 HD
BRANCH  25  27
ATOM     27  O   UNL     1       6.036   3.313  14.288  0.00  0.00    +0.000 OA
ATOM     28  H   UNL     1       5.247   3.536  13.746  0.00  0.00    +0.000 HD
ENDBRANCH  25  27
ENDBRANCH   1  23
TORSDOF 6
ENDMDL
MODEL 5
REMARK VINA RESULT:      -8.2      0.862      1.291
REMARK  Name = 
REMARK  9 active torsions:
REMARK  status: ('A' for Active; 'I' for Inactive)
REMARK    1  A    between atoms: C_1  and  C_2
REMARK    2  A    between atoms: C_2  and  C_3
REMARK    3  A    between atoms: C_2  and  C_4
REMARK    4  A    between atoms: C_2  and  C_5
REMARK    5  A    between atoms: N_7  and  C_8
REMARK    6  A    between atoms: C_8  and  C_9
REMARK    7  A    between atoms: C_8  and  C_13
REMARK    8  A    between atoms: N_11  and  O_12
REMARK    9  A    between atoms: C_16  and  C_17
REMARK                            x       y       z     vdW  Elec       q    Type
REMARK                         _______ _______ _______ _____ _____    ______ ____
ROOT
ATOM      1  C   UNL     1       3.062   5.736  17.774  0.00  0.00    +0.000 C 
ENDROOT
BRANCH   1   2
ATOM      2  C   UNL     1       2.467   6.910  18.530  0.00  0.00    +0.000 A 
ATOM      3  C   UNL     1       2.200   6.794  19.896  0.00  0.00    +0.000 A 
ATOM      4  C   UNL     1       1.600   7.846  20.592  0.00  0.00    +0.000 A 
ATOM      5  C   UNL     1       1.255   9.055  19.959  0.00  0.00    +0.000 A 
ATOM      6  C   UNL     1       1.550   9.165  18.590  0.00  0.00    +0.000 A 
ATOM      7  C   UNL     1       2.147   8.113  17.885  0.00  0.00    +0.000 A 
BRANCH   5   8
ATOM      8  C   UNL     1       0.590  10.143  20.715  0.00  0.00    +0.000 A 
ATOM      9  C   UNL     1       0.826  11.496  20.395  0.00  0.00    +0.000 A 
ATOM     10  C   UNL     1       0.258  12.539  21.135  0.00  0.00    +0.000 A 
ATOM     11  C   UNL     1      -0.578  12.247  22.204  0.00  0.00    +0.000 A 
ATOM     12  C   UNL     1      -0.841  10.921  22.519  0.00  0.00    +0.000 A 
ATOM     13  F   UNL     1      -1.654  10.639  23.547  0.00  0.00    +0.000 F 
ATOM     14  C   UNL     1      -0.269   9.877  21.794  0.00  0.00    +0.000 A 
ENDBRANCH   5   8
ENDBRANCH   1   2
BRANCH   1  17
ATOM     15  C   UNL     1       5.477   6.106  17.420  0.00  0.00    +0.000 C 
ATOM     16  O   UNL     1       5.252   6.739  16.390  0.00  0.00    +0.000 OA
ATOM     17  N   UNL     1       4.458   5.544  18.152  0.00  0.00    +0.000 N 
ATOM     18  H   UNL     1       4.634   5.144  19.065  0.00  0.00    +0.000 HD
BRANCH  15  20
ATOM     19  C   UNL     1       6.830   5.502  19.446  0.00  0.00    +0.000 C 
ATOM     20  C   UNL     1       6.904   5.859  17.950  0.00  0.00    +0.000 C 
ATOM     21  C   UNL     1       7.743   7.135  17.792  0.00  0.00    +0.000 C 
ATOM     22  C   UNL     1       7.569   4.697  17.198  0.00  0.00    +0.000 C 
ENDBRANCH  15  20
ENDBRANCH   1  17
BRANCH   1  23
ATOM     23  C   UNL     1       2.255   4.450  18.031  0.00  0.00    +0.000 C 
ATOM     24  O   UNL     1       1.179   4.197  17.472  0.00  0.00    +0.000 OA
ATOM     25  N   UNL     1       2.853   3.562  18.903  0.00  0.00    +0.000 N 
ATOM     26  H   UNL     1       3.506   3.861  19.618  0.00  0.00    +0.000 HD
BRANCH  25  27
ATOM     27  O   UNL     1       2.110   2.393  19.193  0.00  0.00    +0.000 OA
ATOM     28  H   UNL     1       1.279   2.533  18.688  0.00  0.00    +0.000 HD
ENDBRANCH  25  27
ENDBRANCH   1  23
TORSDOF 6
ENDMDL
MODEL 6
REMARK VINA RESULT:      -8.1      0.256      1.316
REMARK  Name = 
REMARK  9 active torsions:
REMARK  status: ('A' for Active; 'I' for Inactive)
REMARK    1  A    between atoms: C_1  and  C_2
REMARK    2  A    between atoms: C_2  and  C_3
REMARK    3  A    between atoms: C_2  and  C_4
REMARK    4  A    between atoms: C_2  and  C_5
REMARK    5  A    between atoms: N_7  and  C_8
REMARK    6  A    between atoms: C_8  and  C_9
REMARK    7  A    between atoms: C_8  and  C_13
REMARK    8  A    between atoms: N_11  and  O_12
REMARK    9  A    between atoms: C_16  and  C_17
REMARK                            x       y       z     vdW  Elec       q    Type
REMARK                         _______ _______ _______ _____ _____    ______ ____
ROOT
ATOM      1  C   UNL     1       3.161   5.493  17.767  0.00  0.00    +0.000 C 
ENDROOT
BRANCH   1   2
ATOM      2  C   UNL     1       2.438   6.505  18.637  0.00  0.00    +0.000 A 
ATOM      3  C   UNL     1       2.138   7.771  18.129  0.00  0.00    +0.000 A 
ATOM      4  C   UNL     1       1.526   8.731  18.936  0.00  0.00    +0.000 A 
ATOM      5  C   UNL     1       1.176   8.465  20.274  0.00  0.00    +0.000 A 
ATOM      6  C   UNL     1       1.464   7.181  20.765  0.00  0.00    +0.000 A 
ATOM      7  C   UNL     1       2.083   6.215  19.962  0.00  0.00    +0.000 A 
BRANCH   5   8
ATOM      8  C   UNL     1       0.555   9.514  21.117  0.00  0.00    +0.000 A 
ATOM      9  C   UNL     1      -0.078   9.184  22.334  0.00  0.00    +0.000 A 
ATOM     10  C   UNL     1      -0.724  10.148  23.114  0.00  0.00    +0.000 A 
ATOM     11  C   UNL     1      -0.733  11.473  22.702  0.00  0.00    +0.000 A 
ATOM     12  C   UNL     1      -0.093  11.822  21.520  0.00  0.00    +0.000 A 
ATOM     13  F   UNL     1      -0.094  13.103  21.125  0.00  0.00    +0.000 F 
ATOM     14  C   UNL     1       0.542  10.864  20.731  0.00  0.00    +0.000 A 
ENDBRANCH   5   8
ENDBRANCH   1   2
BRANCH   1  17
ATOM     15  C   UNL     1       5.566   5.956  17.456  0.00  0.00    +0.000 C 
ATOM     16  O   UNL     1       5.338   6.550  16.404  0.00  0.00    +0.000 OA
ATOM     17  N   UNL     1       4.554   5.370  18.180  0.00  0.00    +0.000 N 
ATOM     18  H   UNL     1       4.726   5.003  19.108  0.00  0.00    +0.000 HD
BRANCH  15  20
ATOM     19  C   UNL     1       7.674   4.601  17.314  0.00  0.00    +0.000 C 
ATOM     20  C   UNL     1       6.989   5.783  18.024  0.00  0.00    +0.000 C 
ATOM     21  C   UNL     1       6.913   5.474  19.526  0.00  0.00    +0.000 C 
ATOM     22  C   UNL     1       7.824   7.049  17.790  0.00  0.00    +0.000 C 
ENDBRANCH  15  20
ENDBRANCH   1  17
BRANCH   1  23
ATOM     23  C   UNL     1       2.462   4.121  17.822  0.00  0.00    +0.000 C 
ATOM     24  O   UNL     1       1.312   3.925  17.407  0.00  0.00    +0.000 OA
ATOM     25  N   UNL     1       3.243   3.100  18.327  0.00  0.00    +0.000 N 
ATOM     26  H   UNL     1       4.004   3.269  18.974  0.00  0.00    +0.000 HD
BRANCH  25  27
ATOM     27  O   UNL     1       2.609   1.839  18.433  0.00  0.00    +0.000 OA
ATOM     28  H   UNL     1       1.669   2.052  18.241  0.00  0.00    +0.000 HD
ENDBRANCH  25  27
ENDBRANCH   1  23
TORSDOF 6
ENDMDL
MODEL 7
REMARK VINA RESULT:      -8.1      4.206      7.215
REMARK  Name = 
REMARK  9 active torsions:
REMARK  status: ('A' for Active; 'I' for Inactive)
REMARK    1  A    between atoms: C_1  and  C_2
REMARK    2  A    between atoms: C_2  and  C_3
REMARK    3  A    between atoms: C_2  and  C_4
REMARK    4  A    between atoms: C_2  and  C_5
REMARK    5  A    between atoms: N_7  and  C_8
REMARK    6  A    between atoms: C_8  and  C_9
REMARK    7  A    between atoms: C_8  and  C_13
REMARK    8  A    between atoms: N_11  and  O_12
REMARK    9  A    between atoms: C_16  and  C_17
REMARK                            x       y       z     vdW  Elec       q    Type
REMARK                         _______ _______ _______ _____ _____    ______ ____
ROOT
ATOM      1  C   UNL     1       6.249   5.250  17.547  0.00  0.00    +0.000 C 
ENDROOT
BRANCH   1   2
ATOM      2  C   UNL     1       7.032   6.518  17.837  0.00  0.00    +0.000 A 
ATOM      3  C   UNL     1       7.992   6.526  18.851  0.00  0.00    +0.000 A 
ATOM      4  C   UNL     1       8.679   7.699  19.167  0.00  0.00    +0.000 A 
ATOM      5  C   UNL     1       8.447   8.905  18.477  0.00  0.00    +0.000 A 
ATOM      6  C   UNL     1       7.495   8.877  17.445  0.00  0.00    +0.000 A 
ATOM      7  C   UNL     1       6.799   7.704  17.126  0.00  0.00    +0.000 A 
BRANCH   5   8
ATOM      8  C   UNL     1       9.169  10.144  18.855  0.00  0.00    +0.000 A 
ATOM      9  C   UNL     1       9.377  10.477  20.210  0.00  0.00    +0.000 A 
ATOM     10  C   UNL     1       9.999  11.670  20.588  0.00  0.00    +0.000 A 
ATOM     11  C   UNL     1      10.447  12.552  19.614  0.00  0.00    +0.000 A 
ATOM     12  C   UNL     1      10.274  12.230  18.275  0.00  0.00    +0.000 A 
ATOM     13  F   UNL     1      10.713  13.077  17.334  0.00  0.00    +0.000 F 
ATOM     14  C   UNL     1       9.643  11.048  17.890  0.00  0.00    +0.000 A 
ENDBRANCH   5   8
ENDBRANCH   1   2
BRANCH   1  17
ATOM     15  C   UNL     1       4.062   4.879  18.631  0.00  0.00    +0.000 C 
ATOM     16  O   UNL     1       4.554   4.047  19.391  0.00  0.00    +0.000 OA
ATOM     17  N   UNL     1       4.817   5.500  17.664  0.00  0.00    +0.000 N 
ATOM     18  H   UNL     1       4.443   6.278  17.134  0.00  0.00    +0.000 HD
BRANCH  15  20
ATOM     19  C   UNL     1       2.407   6.712  18.178  0.00  0.00    +0.000 C 
ATOM     20  C   UNL     1       2.569   5.262  18.670  0.00  0.00    +0.000 C 
ATOM     21  C   UNL     1       2.050   5.174  20.112  0.00  0.00    +0.000 C 
ATOM     22  C   UNL     1       1.747   4.339  17.759  0.00  0.00    +0.000 C 
ENDBRANCH  15  20
ENDBRANCH   1  17
BRANCH   1  23
ATOM     23  C   UNL     1       6.586   4.703  16.148  0.00  0.00    +0.000 C 
ATOM     24  O   UNL     1       7.743   4.513  15.751  0.00  0.00    +0.000 OA
ATOM     25  N   UNL     1       5.486   4.385  15.376  0.00  0.00    +0.000 N 
ATOM     26  H   UNL     1       4.586   4.835  15.504  0.00  0.00    +0.000 HD
BRANCH  25  27
ATOM     27  O   UNL     1       5.766   3.925  14.067  0.00  0.00    +0.000 OA
ATOM     28  H   UNL     1       6.294   4.663  13.687  0.00  0.00    +0.000 HD
ENDBRANCH  25  27
ENDBRANCH   1  23
TORSDOF 6
ENDMDL
MODEL 8
REMARK VINA RESULT:      -8.0      0.672      1.175
REMARK  Name = 
REMARK  9 active torsions:
REMARK  status: ('A' for Active; 'I' for Inactive)
REMARK    1  A    between atoms: C_1  and  C_2
REMARK    2  A    between atoms: C_2  and  C_3
REMARK    3  A    between atoms: C_2  and  C_4
REMARK    4  A    between atoms: C_2  and  C_5
REMARK    5  A    between atoms: N_7  and  C_8
REMARK    6  A    between atoms: C_8  and  C_9
REMARK    7  A    between atoms: C_8  and  C_13
REMARK    8  A    between atoms: N_11  and  O_12
REMARK    9  A    between atoms: C_16  and  C_17
REMARK                            x       y       z     vdW  Elec       q    Type
REMARK                         _______ _______ _______ _____ _____    ______ ____
ROOT
ATOM      1  C   UNL     1       3.119   5.367  18.179  0.00  0.00    +0.000 C 
ENDROOT
BRANCH   1   2
ATOM      2  C   UNL     1       2.494   6.502  18.970  0.00  0.00    +0.000 A 
ATOM      3  C   UNL     1       2.105   6.295  20.295  0.00  0.00    +0.000 A 
ATOM      4  C   UNL     1       1.477   7.313  21.016  0.00  0.00    +0.000 A 
ATOM      5  C   UNL     1       1.225   8.578  20.451  0.00  0.00    +0.000 A 
ATOM      6  C   UNL     1       1.641   8.779  19.125  0.00  0.00    +0.000 A 
ATOM      7  C   UNL     1       2.267   7.761  18.395  0.00  0.00    +0.000 A 
BRANCH   5   8
ATOM      8  C   UNL     1       0.528   9.629  21.230  0.00  0.00    +0.000 A 
ATOM      9  C   UNL     1      -0.160   9.314  22.420  0.00  0.00    +0.000 A 
ATOM     10  C   UNL     1      -0.876  10.278  23.136  0.00  0.00    +0.000 A 
ATOM     11  C   UNL     1      -0.902  11.590  22.685  0.00  0.00    +0.000 A 
ATOM     12  C   UNL     1      -0.211  11.926  21.529  0.00  0.00    +0.000 A 
ATOM     13  F   UNL     1      -0.229  13.195  21.097  0.00  0.00    +0.000 F 
ATOM     14  C   UNL     1       0.495  10.968  20.803  0.00  0.00    +0.000 A 
ENDBRANCH   5   8
ENDBRANCH   1   2
BRANCH   1  17
ATOM     15  C   UNL     1       5.421   5.951  17.507  0.00  0.00    +0.000 C 
ATOM     16  O   UNL     1       5.009   6.492  16.482  0.00  0.00    +0.000 OA
ATOM     17  N   UNL     1       4.562   5.337  18.388  0.00  0.00    +0.000 N 
ATOM     18  H   UNL     1       4.887   5.015  19.290  0.00  0.00    +0.000 HD
BRANCH  15  20
ATOM     19  C   UNL     1       7.564   4.707  17.100  0.00  0.00    +0.000 C 
ATOM     20  C   UNL     1       6.919   5.878  17.865  0.00  0.00    +0.000 C 
ATOM     21  C   UNL     1       7.079   5.626  19.371  0.00  0.00    +0.000 C 
ATOM     22  C   UNL     1       7.635   7.178  17.472  0.00  0.00    +0.000 C 
ENDBRANCH  15  20
ENDBRANCH   1  17
BRANCH   1  23
ATOM     23  C   UNL     1       2.492   4.015  18.568  0.00  0.00    +0.000 C 
ATOM     24  O   UNL     1       3.025   3.217  19.350  0.00  0.00    +0.000 OA
ATOM     25  N   UNL     1       1.249   3.779  18.014  0.00  0.00    +0.000 N 
ATOM     26  H   UNL     1       0.956   4.203  17.141  0.00  0.00    +0.000 HD
BRANCH  25  27
ATOM     27  O   UNL     1       0.672   2.523  18.317  0.00  0.00    +0.000 OA
ATOM     28  H   UNL     1      -0.203   2.771  18.690  0.00  0.00    +0.000 HD
ENDBRANCH  25  27
ENDBRANCH   1  23
TORSDOF 6
ENDMDL
MODEL 9
REMARK VINA RESULT:      -8.0      4.096      7.329
REMARK  Name = 
REMARK  9 active torsions:
REMARK  status: ('A' for Active; 'I' for Inactive)
REMARK    1  A    between atoms: C_1  and  C_2
REMARK    2  A    between atoms: C_2  and  C_3
REMARK    3  A    between atoms: C_2  and  C_4
REMARK    4  A    between atoms: C_2  and  C_5
REMARK    5  A    between atoms: N_7  and  C_8
REMARK    6  A    between atoms: C_8  and  C_9
REMARK    7  A    between atoms: C_8  and  C_13
REMARK    8  A    between atoms: N_11  and  O_12
REMARK    9  A    between atoms: C_16  and  C_17
REMARK                            x       y       z     vdW  Elec       q    Type
REMARK                         _______ _______ _______ _____ _____    ______ ____
ROOT
ATOM      1  C   UNL     1       6.240   5.244  17.238  0.00  0.00    +0.000 C 
ENDROOT
BRANCH   1   2
ATOM      2  C   UNL     1       6.972   6.490  17.703  0.00  0.00    +0.000 A 
ATOM      3  C   UNL     1       6.710   7.719  17.093  0.00  0.00    +0.000 A 
ATOM      4  C   UNL     1       7.417   8.862  17.471  0.00  0.00    +0.000 A 
ATOM      5  C   UNL     1       8.400   8.829  18.479  0.00  0.00    +0.000 A 
ATOM      6  C   UNL     1       8.637   7.591  19.099  0.00  0.00    +0.000 A 
ATOM      7  C   UNL     1       7.935   6.440  18.721  0.00  0.00    +0.000 A 
BRANCH   5   8
ATOM      8  C   UNL     1       9.157  10.052  18.839  0.00  0.00    +0.000 A 
ATOM      9  C   UNL     1       9.832  10.802  17.853  0.00  0.00    +0.000 A 
ATOM     10  C   UNL     1      10.603  11.923  18.179  0.00  0.00    +0.000 A 
ATOM     11  C   UNL     1      10.699  12.330  19.502  0.00  0.00    +0.000 A 
ATOM     12  C   UNL     1      10.022  11.620  20.483  0.00  0.00    +0.000 A 
ATOM     13  F   UNL     1      10.109  12.017  21.760  0.00  0.00    +0.000 F 
ATOM     14  C   UNL     1       9.262  10.494  20.168  0.00  0.00    +0.000 A 
ENDBRANCH   5   8
ENDBRANCH   1   2
BRANCH   1  17
ATOM     15  C   UNL     1       4.464   4.520  18.792  0.00  0.00    +0.000 C 
ATOM     16  O   UNL     1       5.246   3.768  19.372  0.00  0.00    +0.000 OA
ATOM     17  N   UNL     1       4.858   5.263  17.705  0.00  0.00    +0.000 N 
ATOM     18  H   UNL     1       4.255   5.977  17.318  0.00  0.00    +0.000 HD
BRANCH  15  20
ATOM     19  C   UNL     1       2.715   3.761  20.425  0.00  0.00    +0.000 C 
ATOM     20  C   UNL     1       2.985   4.660  19.205  0.00  0.00    +0.000 C 
ATOM     21  C   UNL     1       2.081   4.204  18.051  0.00  0.00    +0.000 C 
ATOM     22  C   UNL     1       2.662   6.113  19.581  0.00  0.00    +0.000 C 
ENDBRANCH  15  20
ENDBRANCH   1  17
BRANCH   1  23
ATOM     23  C   UNL     1       6.287   5.119  15.704  0.00  0.00    +0.000 C 
ATOM     24  O   UNL     1       5.310   4.793  15.017  0.00  0.00    +0.000 OA
ATOM     25  N   UNL     1       7.502   5.452  15.138  0.00  0.00    +0.000 N 
ATOM     26  H   UNL     1       8.376   5.374  15.647  0.00  0.00    +0.000 HD
BRANCH  25  27
ATOM     27  O   UNL     1       7.587   5.299  13.734  0.00  0.00    +0.000 OA
ATOM     28  H   UNL     1       7.727   6.222  13.424  0.00  0.00    +0.000 HD
ENDBRANCH  25  27
ENDBRANCH   1  23
TORSDOF 6
ENDMDL
