MODEL 1
REMARK VINA RESULT:      -7.9      0.000      0.000
REMARK  Name = 
REMARK  8 active torsions:
REMARK  status: ('A' for Active; 'I' for Inactive)
REMARK    1  A    between atoms: C_1  and  O_2
REMARK    2  A    between atoms: O_2  and  C_3
REMARK    3  A    between atoms: C_5  and  C_6
REMARK    4  A    between atoms: C_7  and  C_8
REMARK    5  A    between atoms: C_19  and  O_20
REMARK    6  A    between atoms: O_20  and  C_21
REMARK    7  A    between atoms: C_22  and  O_23
REMARK    8  A    between atoms: O_23  and  C_24
REMARK                            x       y       z     vdW  Elec       q    Type
REMARK                         _______ _______ _______ _____ _____    ______ ____
ROOT
ATOM      1  C   UNL     1       2.572   3.959  18.462  0.00  0.00    +0.000 A 
ATOM      2  C   UNL     1       2.256   5.285  18.111  0.00  0.00    +0.000 A 
ATOM      3  C   UNL     1       3.254   6.258  18.044  0.00  0.00    +0.000 A 
ATOM      4  C   UNL     1       4.546   5.934  18.445  0.00  0.00    +0.000 A 
ATOM      5  C   UNL     1       4.870   4.632  18.838  0.00  0.00    +0.000 A 
ATOM      6  C   UNL     1       3.891   3.618  18.838  0.00  0.00    +0.000 A 
ENDROOT
BRANCH   1   8
ATOM      7  C   UNL     1       0.800   2.936  19.674  0.00  0.00    +0.000 C 
ATOM      8  O   UNL     1       1.603   2.987  18.498  0.00  0.00    +0.000 OA
ENDBRANCH   1   8
BRANCH   3   9
ATOM      9  C   UNL     1       3.029   7.574  17.436  0.00  0.00    +0.000 C 
ATOM     10  C   UNL     1       2.359   8.647  17.883  0.00  0.00    +0.000 C 
BRANCH  10  11
ATOM     11  C   UNL     1       1.568   8.820  19.106  0.00  0.00    +0.000 A 
ATOM     12  C   UNL     1       1.789   7.926  20.160  0.00  0.00    +0.000 A 
ATOM     13  C   UNL     1       1.202   8.135  21.409  0.00  0.00    +0.000 A 
ATOM     14  C   UNL     1       0.396   9.230  21.637  0.00  0.00    +0.000 A 
ATOM     15  N   UNL     1      -0.039   9.479  22.889  0.00  0.00    +0.000 NA
ATOM     16  C   UNL     1      -0.789  10.585  23.095  0.00  0.00    +0.000 A 
ATOM     17  C   UNL     1      -1.199  11.434  22.085  0.00  0.00    +0.000 A 
ATOM     18  C   UNL     1      -0.778  11.159  20.790  0.00  0.00    +0.000 A 
ATOM     19  C   UNL     1       0.069  10.069  20.554  0.00  0.00    +0.000 A 
ATOM     20  C   UNL     1       0.629   9.837  19.289  0.00  0.00    +0.000 A 
ENDBRANCH  10  11
ENDBRANCH   3   9
BRANCH   5  21
ATOM     21  O   UNL     1       6.178   4.496  19.234  0.00  0.00    +0.000 OA
ATOM     22  C   UNL     1       6.981   5.662  19.090  0.00  0.00    +0.000 C 
ENDBRANCH   5  21
BRANCH   6  23
ATOM     23  O   UNL     1       4.305   2.383  19.271  0.00  0.00    +0.000 OA
ATOM     24  C   UNL     1       4.194   2.073  20.654  0.00  0.00    +0.000 C 
ENDBRANCH   6  23
TORSDOF 5
ENDMDL
MODEL 2
REMARK VINA RESULT:      -7.3      0.594      2.648
REMARK  Name = 
REMARK  8 active torsions:
REMARK  status: ('A' for Active; 'I' for Inactive)
REMARK    1  A    between atoms: C_1  and  O_2
REMARK    2  A    between atoms: O_2  and  C_3
REMARK    3  A    between atoms: C_5  and  C_6
REMARK    4  A    between atoms: C_7  and  C_8
REMARK    5  A    between atoms: C_19  and  O_20
REMARK    6  A    between atoms: O_20  and  C_21
REMARK    7  A    between atoms: C_22  and  O_23
REMARK    8  A    between atoms: O_23  and  C_24
REMARK                            x       y       z     vdW  Elec       q    Type
REMARK                         _______ _______ _______ _____ _____    ______ ____
ROOT
ATOM      1  C   UNL     1       4.793   4.992  19.163  0.00  0.00    +0.000 A 
ATOM      2  C   UNL     1       4.541   6.100  18.333  0.00  0.00    +0.000 A 
ATOM      3  C   UNL     1       3.235   6.449  17.991  0.00  0.00    +0.000 A 
ATOM      4  C   UNL     1       2.187   5.619  18.380  0.00  0.00    +0.000 A 
ATOM      5  C   UNL     1       2.422   4.490  19.170  0.00  0.00    +0.000 A 
ATOM      6  C   UNL     1       3.727   4.166  19.588  0.00  0.00    +0.000 A 
ENDROOT
BRANCH   1   8
ATOM      7  C   UNL     1       7.089   5.610  19.221  0.00  0.00    +0.000 C 
ATOM      8  O   UNL     1       6.073   4.660  19.533  0.00  0.00    +0.000 OA
ENDBRANCH   1   8
BRANCH   3   9
ATOM      9  C   UNL     1       2.904   7.729  17.356  0.00  0.00    +0.000 C 
ATOM     10  C   UNL     1       2.195   8.777  17.805  0.00  0.00    +0.000 C 
BRANCH  10  11
ATOM     11  C   UNL     1       1.457   8.944  19.061  0.00  0.00    +0.000 A 
ATOM     12  C   UNL     1       1.779   8.096  20.127  0.00  0.00    +0.000 A 
ATOM     13  C   UNL     1       1.244   8.311  21.398  0.00  0.00    +0.000 A 
ATOM     14  C   UNL     1       0.391   9.369  21.636  0.00  0.00    +0.000 A 
ATOM     15  N   UNL     1       0.005   9.632  22.902  0.00  0.00    +0.000 NA
ATOM     16  C   UNL     1      -0.793  10.703  23.115  0.00  0.00    +0.000 A 
ATOM     17  C   UNL     1      -1.298  11.497  22.104  0.00  0.00    +0.000 A 
ATOM     18  C   UNL     1      -0.926  11.206  20.797  0.00  0.00    +0.000 A 
ATOM     19  C   UNL     1      -0.034  10.156  20.549  0.00  0.00    +0.000 A 
ATOM     20  C   UNL     1       0.475   9.915  19.264  0.00  0.00    +0.000 A 
ENDBRANCH  10  11
ENDBRANCH   3   9
BRANCH   5  21
ATOM     21  O   UNL     1       1.283   3.768  19.432  0.00  0.00    +0.000 OA
ATOM     22  C   UNL     1       0.989   2.736  18.496  0.00  0.00    +0.000 C 
ENDBRANCH   5  21
BRANCH   6  23
ATOM     23  O   UNL     1       3.852   3.020  20.334  0.00  0.00    +0.000 OA
ATOM     24  C   UNL     1       4.326   1.841  19.697  0.00  0.00    +0.000 C 
ENDBRANCH   6  23
TORSDOF 5
ENDMDL
MODEL 3
REMARK VINA RESULT:      -7.2      4.055      7.517
REMARK  Name = 
REMARK  8 active torsions:
REMARK  status: ('A' for Active; 'I' for Inactive)
REMARK    1  A    between atoms: C_1  and  O_2
REMARK    2  A    between atoms: O_2  and  C_3
REMARK    3  A    between atoms: C_5  and  C_6
REMARK    4  A    between atoms: C_7  and  C_8
REMARK    5  A    between atoms: C_19  and  O_20
REMARK    6  A    between atoms: O_20  and  C_21
REMARK    7  A    between atoms: C_22  and  O_23
REMARK    8  A    between atoms: O_23  and  C_24
REMARK                            x       y       z     vdW  Elec       q    Type
REMARK                         _______ _______ _______ _____ _____    ______ ____
ROOT
ATOM      1  C   UNL     1      -0.110  10.754  20.224  0.00  0.00    +0.000 A 
ATOM      2  C   UNL     1       1.046  10.081  19.784  0.00  0.00    +0.000 A 
ATOM      3  C   UNL     1       1.099   9.520  18.508  0.00  0.00    +0.000 A 
ATOM      4  C   UNL     1      -0.046   9.527  17.716  0.00  0.00    +0.000 A 
ATOM      5  C   UNL     1      -1.217  10.154  18.153  0.00  0.00    +0.000 A 
ATOM      6  C   UNL     1      -1.264  10.792  19.408  0.00  0.00    +0.000 A 
ENDROOT
BRANCH   1   8
ATOM      7  C   UNL     1      -0.357  10.459  22.571  0.00  0.00    +0.000 C 
ATOM      8  O   UNL     1      -0.160  11.337  21.466  0.00  0.00    +0.000 OA
ENDBRANCH   1   8
BRANCH   3   9
ATOM      9  C   UNL     1       2.350   9.046  17.909  0.00  0.00    +0.000 C 
ATOM     10  C   UNL     1       2.867   7.811  17.812  0.00  0.00    +0.000 C 
BRANCH  10  11
ATOM     11  C   UNL     1       2.370   6.539  18.347  0.00  0.00    +0.000 A 
ATOM     12  C   UNL     1       1.863   5.602  17.439  0.00  0.00    +0.000 A 
ATOM     13  C   UNL     1       1.537   4.310  17.855  0.00  0.00    +0.000 A 
ATOM     14  C   UNL     1       1.712   3.923  19.166  0.00  0.00    +0.000 A 
ATOM     15  N   UNL     1       1.522   2.631  19.504  0.00  0.00    +0.000 NA
ATOM     16  C   UNL     1       1.747   2.268  20.787  0.00  0.00    +0.000 A 
ATOM     17  C   UNL     1       2.086   3.157  21.789  0.00  0.00    +0.000 A 
ATOM     18  C   UNL     1       2.250   4.494  21.447  0.00  0.00    +0.000 A 
ATOM     19  C   UNL     1       2.107   4.890  20.111  0.00  0.00    +0.000 A 
ATOM     20  C   UNL     1       2.399   6.199  19.700  0.00  0.00    +0.000 A 
ENDBRANCH  10  11
ENDBRANCH   3   9
BRANCH   5  21
ATOM     21  O   UNL     1      -2.257  10.037  17.263  0.00  0.00    +0.000 OA
ATOM     22  C   UNL     1      -2.399  11.118  16.348  0.00  0.00    +0.000 C 
ENDBRANCH   5  21
BRANCH   6  23
ATOM     23  O   UNL     1      -2.470  11.350  19.754  0.00  0.00    +0.000 OA
ATOM     24  C   UNL     1      -2.592  12.766  19.750  0.00  0.00    +0.000 C 
ENDBRANCH   6  23
TORSDOF 5
ENDMDL
MODEL 4
REMARK VINA RESULT:      -7.2      4.087      7.709
REMARK  Name = 
REMARK  8 active torsions:
REMARK  status: ('A' for Active; 'I' for Inactive)
REMARK    1  A    between atoms: C_1  and  O_2
REMARK    2  A    between atoms: O_2  and  C_3
REMARK    3  A    between atoms: C_5  and  C_6
REMARK    4  A    between atoms: C_7  and  C_8
REMARK    5  A    between atoms: C_19  and  O_20
REMARK    6  A    between atoms: O_20  and  C_21
REMARK    7  A    between atoms: C_22  and  O_23
REMARK    8  A    between atoms: O_23  and  C_24
REMARK                            x       y       z     vdW  Elec       q    Type
REMARK                         _______ _______ _______ _____ _____    ______ ____
ROOT
ATOM      1  C   UNL     1      -1.474  11.104  19.392  0.00  0.00    +0.000 A 
ATOM      2  C   UNL     1      -0.122  10.743  19.242  0.00  0.00    +0.000 A 
ATOM      3  C   UNL     1       0.299  10.013  18.130  0.00  0.00    +0.000 A 
ATOM      4  C   UNL     1      -0.652   9.539  17.230  0.00  0.00    +0.000 A 
ATOM      5  C   UNL     1      -2.006   9.852  17.386  0.00  0.00    +0.000 A 
ATOM      6  C   UNL     1      -2.438  10.653  18.461  0.00  0.00    +0.000 A 
ENDROOT
BRANCH   1   8
ATOM      7  C   UNL     1      -0.972  11.978  21.546  0.00  0.00    +0.000 C 
ATOM      8  O   UNL     1      -1.892  11.851  20.466  0.00  0.00    +0.000 OA
ENDBRANCH   1   8
BRANCH   3   9
ATOM      9  C   UNL     1       1.715   9.840  17.793  0.00  0.00    +0.000 C 
ATOM     10  C   UNL     1       2.541   8.797  17.970  0.00  0.00    +0.000 C 
BRANCH  10  11
ATOM     11  C   UNL     1       2.302   7.510  18.632  0.00  0.00    +0.000 A 
ATOM     12  C   UNL     1       2.028   7.521  20.004  0.00  0.00    +0.000 A 
ATOM     13  C   UNL     1       1.621   6.358  20.660  0.00  0.00    +0.000 A 
ATOM     14  C   UNL     1       1.473   5.172  19.972  0.00  0.00    +0.000 A 
ATOM     15  N   UNL     1       0.944   4.104  20.604  0.00  0.00    +0.000 NA
ATOM     16  C   UNL     1       0.766   2.967  19.893  0.00  0.00    +0.000 A 
ATOM     17  C   UNL     1       1.165   2.812  18.580  0.00  0.00    +0.000 A 
ATOM     18  C   UNL     1       1.740   3.903  17.939  0.00  0.00    +0.000 A 
ATOM     19  C   UNL     1       1.862   5.120  18.619  0.00  0.00    +0.000 A 
ATOM     20  C   UNL     1       2.307   6.281  17.969  0.00  0.00    +0.000 A 
ENDBRANCH  10  11
ENDBRANCH   3   9
BRANCH   5  21
ATOM     21  O   UNL     1      -2.807   9.276  16.431  0.00  0.00    +0.000 OA
ATOM     22  C   UNL     1      -2.863   9.967  15.187  0.00  0.00    +0.000 C 
ENDBRANCH   5  21
BRANCH   6  23
ATOM     23  O   UNL     1      -3.791  10.874  18.540  0.00  0.00    +0.000 OA
ATOM     24  C   UNL     1      -4.327  12.042  17.932  0.00  0.00    +0.000 C 
ENDBRANCH   6  23
TORSDOF 5
ENDMDL
MODEL 5
REMARK VINA RESULT:      -7.1      3.543      7.497
REMARK  Name = 
REMARK  8 active torsions:
REMARK  status: ('A' for Active; 'I' for Inactive)
REMARK    1  A    between atoms: C_1  and  O_2
REMARK    2  A    between atoms: O_2  and  C_3
REMARK    3  A    between atoms: C_5  and  C_6
REMARK    4  A    between atoms: C_7  and  C_8
REMARK    5  A    between atoms: C_19  and  O_20
REMARK    6  A    between atoms: O_20  and  C_21
REMARK    7  A    between atoms: C_22  and  O_23
REMARK    8  A    between atoms: O_23  and  C_24
REMARK                            x       y       z     vdW  Elec       q    Type
REMARK                         _______ _______ _______ _____ _____    ______ ____
ROOT
ATOM      1  C   UNL     1       2.163   8.129  18.901  0.00  0.00    +0.000 A 
ATOM      2  C   UNL     1       2.426   6.855  19.440  0.00  0.00    +0.000 A 
ATOM      3  C   UNL     1       1.783   6.428  20.601  0.00  0.00    +0.000 A 
ATOM      4  C   UNL     1       0.967   7.320  21.291  0.00  0.00    +0.000 A 
ATOM      5  C   UNL     1       0.726   8.604  20.794  0.00  0.00    +0.000 A 
ATOM      6  C   UNL     1       1.308   9.025  19.582  0.00  0.00    +0.000 A 
ENDROOT
BRANCH   1   8
ATOM      7  C   UNL     1       3.761   7.681  17.197  0.00  0.00    +0.000 C 
ATOM      8  O   UNL     1       2.766   8.546  17.740  0.00  0.00    +0.000 OA
ENDBRANCH   1   8
BRANCH   3   9
ATOM      9  C   UNL     1       1.819   5.033  21.052  0.00  0.00    +0.000 C 
ATOM     10  C   UNL     1       2.478   3.969  20.569  0.00  0.00    +0.000 C 
BRANCH  10  11
ATOM     11  C   UNL     1       3.324   3.848  19.377  0.00  0.00    +0.000 A 
ATOM     12  C   UNL     1       2.719   3.439  18.183  0.00  0.00    +0.000 A 
ATOM     13  C   UNL     1       3.422   3.470  16.979  0.00  0.00    +0.000 A 
ATOM     14  C   UNL     1       4.728   3.911  16.933  0.00  0.00    +0.000 A 
ATOM     15  N   UNL     1       5.332   4.063  15.737  0.00  0.00    +0.000 NA
ATOM     16  C   UNL     1       6.596   4.542  15.717  0.00  0.00    +0.000 A 
ATOM     17  C   UNL     1       7.333   4.812  16.853  0.00  0.00    +0.000 A 
ATOM     18  C   UNL     1       6.722   4.625  18.087  0.00  0.00    +0.000 A 
ATOM     19  C   UNL     1       5.385   4.210  18.142  0.00  0.00    +0.000 A 
ATOM     20  C   UNL     1       4.689   4.142  19.358  0.00  0.00    +0.000 A 
ENDBRANCH  10  11
ENDBRANCH   3   9
BRANCH   5  21
ATOM     21  O   UNL     1      -0.072   9.361  21.617  0.00  0.00    +0.000 OA
ATOM     22  C   UNL     1       0.358   9.447  22.971  0.00  0.00    +0.000 C 
ENDBRANCH   5  21
BRANCH   6  23
ATOM     23  O   UNL     1       1.033  10.315  19.200  0.00  0.00    +0.000 OA
ATOM     24  C   UNL     1      -0.159  10.569  18.467  0.00  0.00    +0.000 C 
ENDBRANCH   6  23
TORSDOF 5
ENDMDL
MODEL 6
REMARK VINA RESULT:      -7.1      2.565      4.521
REMARK  Name = 
REMARK  8 active torsions:
REMARK  status: ('A' for Active; 'I' for Inactive)
REMARK    1  A    between atoms: C_1  and  O_2
REMARK    2  A    between atoms: O_2  and  C_3
REMARK    3  A    between atoms: C_5  and  C_6
REMARK    4  A    between atoms: C_7  and  C_8
REMARK    5  A    between atoms: C_19  and  O_20
REMARK    6  A    between atoms: O_20  and  C_21
REMARK    7  A    between atoms: C_22  and  O_23
REMARK    8  A    between atoms: O_23  and  C_24
REMARK                            x       y       z     vdW  Elec       q    Type
REMARK                         _______ _______ _______ _____ _____    ______ ____
ROOT
ATOM      1  C   UNL     1       6.247   5.385  16.005  0.00  0.00    +0.000 A 
ATOM      2  C   UNL     1       5.341   4.371  16.370  0.00  0.00    +0.000 A 
ATOM      3  C   UNL     1       5.103   4.081  17.713  0.00  0.00    +0.000 A 
ATOM      4  C   UNL     1       5.861   4.721  18.689  0.00  0.00    +0.000 A 
ATOM      5  C   UNL     1       6.796   5.701  18.344  0.00  0.00    +0.000 A 
ATOM      6  C   UNL     1       6.993   6.061  16.996  0.00  0.00    +0.000 A 
ENDROOT
BRANCH   1   8
ATOM      7  C   UNL     1       6.851   4.627  13.833  0.00  0.00    +0.000 C 
ATOM      8  O   UNL     1       6.463   5.700  14.686  0.00  0.00    +0.000 OA
ENDBRANCH   1   8
BRANCH   3   9
ATOM      9  C   UNL     1       3.991   3.230  18.148  0.00  0.00    +0.000 C 
ATOM     10  C   UNL     1       2.797   3.543  18.675  0.00  0.00    +0.000 C 
BRANCH  10  11
ATOM     11  C   UNL     1       2.251   4.850  19.055  0.00  0.00    +0.000 A 
ATOM     12  C   UNL     1       1.801   5.014  20.370  0.00  0.00    +0.000 A 
ATOM     13  C   UNL     1       1.433   6.273  20.847  0.00  0.00    +0.000 A 
ATOM     14  C   UNL     1       1.509   7.386  20.037  0.00  0.00    +0.000 A 
ATOM     15  N   UNL     1       1.282   8.605  20.569  0.00  0.00    +0.000 NA
ATOM     16  C   UNL     1       1.410   9.685  19.765  0.00  0.00    +0.000 A 
ATOM     17  C   UNL     1       1.684   9.608  18.413  0.00  0.00    +0.000 A 
ATOM     18  C   UNL     1       1.885   8.349  17.859  0.00  0.00    +0.000 A 
ATOM     19  C   UNL     1       1.844   7.216  18.680  0.00  0.00    +0.000 A 
ATOM     20  C   UNL     1       2.178   5.944  18.191  0.00  0.00    +0.000 A 
ENDBRANCH  10  11
ENDBRANCH   3   9
BRANCH   5  21
ATOM     21  O   UNL     1       7.477   6.204  19.426  0.00  0.00    +0.000 OA
ATOM     22  C   UNL     1       8.366   5.292  20.062  0.00  0.00    +0.000 C 
ENDBRANCH   5  21
BRANCH   6  23
ATOM     23  O   UNL     1       7.957   7.011  16.763  0.00  0.00    +0.000 OA
ATOM     24  C   UNL     1       7.832   8.277  17.397  0.00  0.00    +0.000 C 
ENDBRANCH   6  23
TORSDOF 5
ENDMDL
MODEL 7
REMARK VINA RESULT:      -7.0      4.052      7.681
REMARK  Name = 
REMARK  8 active torsions:
REMARK  status: ('A' for Active; 'I' for Inactive)
REMARK    1  A    between atoms: C_1  and  O_2
REMARK    2  A    between atoms: O_2  and  C_3
REMARK    3  A    between atoms: C_5  and  C_6
REMARK    4  A    between atoms: C_7  and  C_8
REMARK    5  A    between atoms: C_19  and  O_20
REMARK    6  A    between atoms: O_20  and  C_21
REMARK    7  A    between atoms: C_22  and  O_23
REMARK    8  A    between atoms: O_23  and  C_24
REMARK                            x       y       z     vdW  Elec       q    Type
REMARK                         _______ _______ _______ _____ _____    ______ ____
ROOT
ATOM      1  C   UNL     1       0.450  11.620  20.425  0.00  0.00    +0.000 A 
ATOM      2  C   UNL     1       1.450  10.913  19.730  0.00  0.00    +0.000 A 
ATOM      3  C   UNL     1       1.131  10.157  18.602  0.00  0.00    +0.000 A 
ATOM      4  C   UNL     1      -0.205  10.010  18.239  0.00  0.00    +0.000 A 
ATOM      5  C   UNL     1      -1.216  10.671  18.942  0.00  0.00    +0.000 A 
ATOM      6  C   UNL     1      -0.904  11.501  20.038  0.00  0.00    +0.000 A 
ENDROOT
BRANCH   1   8
ATOM      7  C   UNL     1       1.110  13.750  21.253  0.00  0.00    +0.000 C 
ATOM      8  O   UNL     1       0.759  12.393  21.516  0.00  0.00    +0.000 OA
ENDBRANCH   1   8
BRANCH   3   9
ATOM      9  C   UNL     1       2.155   9.623  17.699  0.00  0.00    +0.000 C 
ATOM     10  C   UNL     1       2.680   8.392  17.592  0.00  0.00    +0.000 C 
BRANCH  10  11
ATOM     11  C   UNL     1       2.443   7.195  18.406  0.00  0.00    +0.000 A 
ATOM     12  C   UNL     1       2.220   7.370  19.777  0.00  0.00    +0.000 A 
ATOM     13  C   UNL     1       1.817   6.300  20.576  0.00  0.00    +0.000 A 
ATOM     14  C   UNL     1       1.623   5.046  20.035  0.00  0.00    +0.000 A 
ATOM     15  N   UNL     1       1.099   4.070  20.804  0.00  0.00    +0.000 NA
ATOM     16  C   UNL     1       0.875   2.863  20.237  0.00  0.00    +0.000 A 
ATOM     17  C   UNL     1       1.221   2.549  18.937  0.00  0.00    +0.000 A 
ATOM     18  C   UNL     1       1.792   3.546  18.155  0.00  0.00    +0.000 A 
ATOM     19  C   UNL     1       1.960   4.831  18.685  0.00  0.00    +0.000 A 
ATOM     20  C   UNL     1       2.401   5.899  17.890  0.00  0.00    +0.000 A 
ENDBRANCH  10  11
ENDBRANCH   3   9
BRANCH   5  21
ATOM     21  O   UNL     1      -2.475  10.389  18.472  0.00  0.00    +0.000 OA
ATOM     22  C   UNL     1      -2.893  11.160  17.351  0.00  0.00    +0.000 C 
ENDBRANCH   5  21
BRANCH   6  23
ATOM     23  O   UNL     1      -1.973  12.078  20.678  0.00  0.00    +0.000 OA
ATOM     24  C   UNL     1      -2.121  11.871  22.077  0.00  0.00    +0.000 C 
ENDBRANCH   6  23
TORSDOF 5
ENDMDL
MODEL 8
REMARK VINA RESULT:      -7.0      3.408      6.928
REMARK  Name = 
REMARK  8 active torsions:
REMARK  status: ('A' for Active; 'I' for Inactive)
REMARK    1  A    between atoms: C_1  and  O_2
REMARK    2  A    between atoms: O_2  and  C_3
REMARK    3  A    between atoms: C_5  and  C_6
REMARK    4  A    between atoms: C_7  and  C_8
REMARK    5  A    between atoms: C_19  and  O_20
REMARK    6  A    between atoms: O_20  and  C_21
REMARK    7  A    between atoms: C_22  and  O_23
REMARK    8  A    between atoms: O_23  and  C_24
REMARK                            x       y       z     vdW  Elec       q    Type
REMARK                         _______ _______ _______ _____ _____    ______ ____
ROOT
ATOM      1  C   UNL     1       0.835   9.014  20.651  0.00  0.00    +0.000 A 
ATOM      2  C   UNL     1       1.755   8.410  19.773  0.00  0.00    +0.000 A 
ATOM      3  C   UNL     1       1.807   8.786  18.431  0.00  0.00    +0.000 A 
ATOM      4  C   UNL     1       0.859   9.677  17.939  0.00  0.00    +0.000 A 
ATOM      5  C   UNL     1      -0.091  10.255  18.787  0.00  0.00    +0.000 A 
ATOM      6  C   UNL     1      -0.108   9.945  20.161  0.00  0.00    +0.000 A 
ENDROOT
BRANCH   1   8
ATOM      7  C   UNL     1       1.705   9.365  22.837  0.00  0.00    +0.000 C 
ATOM      8  O   UNL     1       0.798   8.674  21.981  0.00  0.00    +0.000 OA
ENDBRANCH   1   8
BRANCH   3   9
ATOM      9  C   UNL     1       2.906   8.388  17.546  0.00  0.00    +0.000 C 
ATOM     10  C   UNL     1       3.559   7.221  17.422  0.00  0.00    +0.000 C 
BRANCH  10  11
ATOM     11  C   UNL     1       3.425   5.982  18.196  0.00  0.00    +0.000 A 
ATOM     12  C   UNL     1       4.596   5.363  18.646  0.00  0.00    +0.000 A 
ATOM     13  C   UNL     1       4.538   4.284  19.529  0.00  0.00    +0.000 A 
ATOM     14  C   UNL     1       3.328   3.806  19.985  0.00  0.00    +0.000 A 
ATOM     15  N   UNL     1       3.311   2.858  20.945  0.00  0.00    +0.000 NA
ATOM     16  C   UNL     1       2.112   2.441  21.408  0.00  0.00    +0.000 A 
ATOM     17  C   UNL     1       0.901   2.874  20.903  0.00  0.00    +0.000 A 
ATOM     18  C   UNL     1       0.918   3.826  19.892  0.00  0.00    +0.000 A 
ATOM     19  C   UNL     1       2.142   4.342  19.447  0.00  0.00    +0.000 A 
ATOM     20  C   UNL     1       2.200   5.402  18.530  0.00  0.00    +0.000 A 
ENDBRANCH  10  11
ENDBRANCH   3   9
BRANCH   5  21
ATOM     21  O   UNL     1      -0.969  11.083  18.131  0.00  0.00    +0.000 OA
ATOM     22  C   UNL     1      -1.998  10.423  17.402  0.00  0.00    +0.000 C 
ENDBRANCH   5  21
BRANCH   6  23
ATOM     23  O   UNL     1      -1.101  10.543  20.899  0.00  0.00    +0.000 OA
ATOM     24  C   UNL     1      -0.819  11.777  21.545  0.00  0.00    +0.000 C 
ENDBRANCH   6  23
TORSDOF 5
ENDMDL
MODEL 9
REMARK VINA RESULT:      -6.9      1.057      1.596
REMARK  Name = 
REMARK  8 active torsions:
REMARK  status: ('A' for Active; 'I' for Inactive)
REMARK    1  A    between atoms: C_1  and  O_2
REMARK    2  A    between atoms: O_2  and  C_3
REMARK    3  A    between atoms: C_5  and  C_6
REMARK    4  A    between atoms: C_7  and  C_8
REMARK    5  A    between atoms: C_19  and  O_20
REMARK    6  A    between atoms: O_20  and  C_21
REMARK    7  A    between atoms: C_22  and  O_23
REMARK    8  A    between atoms: O_23  and  C_24
REMARK                            x       y       z     vdW  Elec       q    Type
REMARK                         _______ _______ _______ _____ _____    ______ ____
ROOT
ATOM      1  C   UNL     1       2.392   4.522  19.518  0.00  0.00    +0.000 A 
ATOM      2  C   UNL     1       2.008   5.690  18.833  0.00  0.00    +0.000 A 
ATOM      3  C   UNL     1       2.968   6.532  18.272  0.00  0.00    +0.000 A 
ATOM      4  C   UNL     1       4.316   6.271  18.501  0.00  0.00    +0.000 A 
ATOM      5  C   UNL     1       4.716   5.139  19.216  0.00  0.00    +0.000 A 
ATOM      6  C   UNL     1       3.760   4.236  19.723  0.00  0.00    +0.000 A 
ENDROOT
BRANCH   1   8
ATOM      7  C   UNL     1       0.847   2.755  19.135  0.00  0.00    +0.000 C 
ATOM      8  O   UNL     1       1.453   3.669  20.045  0.00  0.00    +0.000 OA
ENDBRANCH   1   8
BRANCH   3   9
ATOM      9  C   UNL     1       2.621   7.605  17.334  0.00  0.00    +0.000 C 
ATOM     10  C   UNL     1       2.117   8.830  17.545  0.00  0.00    +0.000 C 
BRANCH  10  11
ATOM     11  C   UNL     1       1.680   9.465  18.793  0.00  0.00    +0.000 A 
ATOM     12  C   UNL     1       1.629  10.863  18.833  0.00  0.00    +0.000 A 
ATOM     13  C   UNL     1       1.059  11.526  19.921  0.00  0.00    +0.000 A 
ATOM     14  C   UNL     1       0.528  10.820  20.980  0.00  0.00    +0.000 A 
ATOM     15  N   UNL     1      -0.140  11.484  21.946  0.00  0.00    +0.000 NA
ATOM     16  C   UNL     1      -0.692  10.764  22.949  0.00  0.00    +0.000 A 
ATOM     17  C   UNL     1      -0.547   9.397  23.083  0.00  0.00    +0.000 A 
ATOM     18  C   UNL     1       0.168   8.718  22.105  0.00  0.00    +0.000 A 
ATOM     19  C   UNL     1       0.682   9.421  21.008  0.00  0.00    +0.000 A 
ATOM     20  C   UNL     1       1.288   8.757  19.931  0.00  0.00    +0.000 A 
ENDBRANCH  10  11
ENDBRANCH   3   9
BRANCH   5  21
ATOM     21  O   UNL     1       6.077   5.054  19.378  0.00  0.00    +0.000 OA
ATOM     22  C   UNL     1       6.843   5.924  18.551  0.00  0.00    +0.000 C 
ENDBRANCH   5  21
BRANCH   6  23
ATOM     23  O   UNL     1       4.257   3.173  20.438  0.00  0.00    +0.000 OA
ATOM     24  C   UNL     1       4.447   1.933  19.770  0.00  0.00    +0.000 C 
ENDBRANCH   6  23
TORSDOF 5
ENDMDL
