MODEL 1
REMARK VINA RESULT:      -7.6      0.000      0.000
REMARK  Name = 
REMARK  8 active torsions:
REMARK  status: ('A' for Active; 'I' for Inactive)
REMARK    1  A    between atoms: C_2  and  OXT_3
REMARK    2  A    between atoms: C_2  and  CA_4
REMARK    3  A    between atoms: CA_4  and  N_5
REMARK    4  A    between atoms: C_6  and  CA_8
REMARK    5  A    between atoms: C_10  and  C_11
REMARK    6  A    between atoms: C_10  and  C_15
REMARK    7  A    between atoms: C_20  and  C_21
REMARK    8  A    between atoms: C_20  and  C_25
REMARK                            x       y       z     vdW  Elec       q    Type
REMARK                         _______ _______ _______ _____ _____    ______ ____
ROOT
ATOM      1  CA  UNL     1       3.219   4.674  17.388  0.00  0.00    +0.000 C 
ATOM      2  N   UNL     1       2.204   3.729  17.915  0.00  0.00    +0.000 NA
ATOM      3  C   UNL     1       2.496   3.553  19.384  0.00  0.00    +0.000 C 
ATOM      4  O   UNL     1       3.275   4.730  19.768  0.00  0.00    +0.000 OA
ATOM      5  C   UNL     1       3.693   5.503  18.584  0.00  0.00    +0.000 C 
ATOM      6  H   UNL     1       2.300   2.815  17.453  0.00  0.00    +0.000 HD
ENDROOT
BRANCH   1   8
ATOM      7  N   UNL     1       4.905   4.645  15.612  0.00  0.00    +0.000 N 
ATOM      8  C   UNL     1       4.277   3.918  16.600  0.00  0.00    +0.000 C 
ATOM      9  O   UNL     1       4.524   2.724  16.813  0.00  0.00    +0.000 OA
ATOM     10  H   UNL     1       4.681   5.624  15.438  0.00  0.00    +0.000 HD
BRANCH   7  11
ATOM     11  CA  UNL     1       5.910   4.034  14.751  0.00  0.00    +0.000 C 
BRANCH  11  13
ATOM     12  O   UNL     1       7.752   5.416  13.989  0.00  0.00    +0.000 OA
ATOM     13  C   UNL     1       7.243   4.747  14.877  0.00  0.00    +0.000 C 
BRANCH  13  14
ATOM     14  OXT UNL     1       7.831   4.550  16.077  0.00  0.00    +0.000 OA
ATOM     15  HXT UNL     1       8.699   4.987  16.179  0.00  0.00    +0.000 HD
ENDBRANCH  13  14
ENDBRANCH  11  13
ENDBRANCH   7  11
ENDBRANCH   1   8
BRANCH   3  16
ATOM     16  C   UNL     1       1.173   3.532  20.252  0.00  0.00    +0.000 C 
ATOM     17  F   UNL     1       0.239   2.716  19.690  0.00  0.00    +0.000 F 
ATOM     18  F   UNL     1       1.289   3.130  21.528  0.00  0.00    +0.000 F 
ATOM     19  F   UNL     1       0.602   4.765  20.290  0.00  0.00    +0.000 F 
ENDBRANCH   3  16
BRANCH   3  20
ATOM     20  C   UNL     1       3.311   2.241  19.730  0.00  0.00    +0.000 C 
ATOM     21  F   UNL     1       3.054   1.872  21.014  0.00  0.00    +0.000 F 
ATOM     22  F   UNL     1       2.923   1.206  18.943  0.00  0.00    +0.000 F 
ATOM     23  F   UNL     1       4.649   2.308  19.636  0.00  0.00    +0.000 F 
ENDBRANCH   3  20
BRANCH   5  24
ATOM     24  C   UNL     1       5.211   5.746  18.672  0.00  0.00    +0.000 C 
ATOM     25  F   UNL     1       5.674   6.564  17.699  0.00  0.00    +0.000 F 
ATOM     26  F   UNL     1       5.630   6.279  19.839  0.00  0.00    +0.000 F 
ATOM     27  F   UNL     1       5.892   4.578  18.546  0.00  0.00    +0.000 F 
ENDBRANCH   5  24
BRANCH   5  28
ATOM     28  C   UNL     1       2.990   6.869  18.581  0.00  0.00    +0.000 C 
ATOM     29  F   UNL     1       1.816   6.847  17.904  0.00  0.00    +0.000 F 
ATOM     30  F   UNL     1       2.676   7.253  19.843  0.00  0.00    +0.000 F 
ATOM     31  F   UNL     1       3.701   7.870  18.026  0.00  0.00    +0.000 F 
ENDBRANCH   5  28
TORSDOF 8
ENDMDL
MODEL 2
REMARK VINA RESULT:      -7.5      1.871      4.224
REMARK  Name = 
REMARK  8 active torsions:
REMARK  status: ('A' for Active; 'I' for Inactive)
REMARK    1  A    between atoms: C_2  and  OXT_3
REMARK    2  A    between atoms: C_2  and  CA_4
REMARK    3  A    between atoms: CA_4  and  N_5
REMARK    4  A    between atoms: C_6  and  CA_8
REMARK    5  A    between atoms: C_10  and  C_11
REMARK    6  A    between atoms: C_10  and  C_15
REMARK    7  A    between atoms: C_20  and  C_21
REMARK    8  A    between atoms: C_20  and  C_25
REMARK                            x       y       z     vdW  Elec       q    Type
REMARK                         _______ _______ _______ _____ _____    ______ ____
ROOT
ATOM      1  CA  UNL     1       3.785   4.863  19.856  0.00  0.00    +0.000 C 
ATOM      2  N   UNL     1       3.851   6.340  19.732  0.00  0.00    +0.000 NA
ATOM      3  C   UNL     1       3.029   6.712  18.524  0.00  0.00    +0.000 C 
ATOM      4  O   UNL     1       2.124   5.583  18.309  0.00  0.00    +0.000 OA
ATOM      5  C   UNL     1       2.494   4.433  19.154  0.00  0.00    +0.000 C 
ATOM      6  H   UNL     1       4.823   6.637  19.567  0.00  0.00    +0.000 HD
ENDROOT
BRANCH   1   8
ATOM      7  N   UNL     1       5.888   5.066  18.619  0.00  0.00    +0.000 N 
ATOM      8  C   UNL     1       5.083   4.239  19.372  0.00  0.00    +0.000 C 
ATOM      9  O   UNL     1       5.372   3.059  19.610  0.00  0.00    +0.000 OA
ATOM     10  H   UNL     1       5.631   6.031  18.418  0.00  0.00    +0.000 HD
BRANCH   7  11
ATOM     11  CA  UNL     1       7.142   4.585  18.053  0.00  0.00    +0.000 C 
BRANCH  11  13
ATOM     12  O   UNL     1       7.589   5.527  15.862  0.00  0.00    +0.000 OA
ATOM     13  C   UNL     1       7.108   4.627  16.536  0.00  0.00    +0.000 C 
BRANCH  13  14
ATOM     14  OXT UNL     1       6.468   3.567  15.997  0.00  0.00    +0.000 OA
ATOM     15  HXT UNL     1       6.441   3.565  15.020  0.00  0.00    +0.000 HD
ENDBRANCH  13  14
ENDBRANCH  11  13
ENDBRANCH   7  11
ENDBRANCH   1   8
BRANCH   3  16
ATOM     16  C   UNL     1       2.154   8.006  18.778  0.00  0.00    +0.000 C 
ATOM     17  F   UNL     1       1.082   8.036  17.938  0.00  0.00    +0.000 F 
ATOM     18  F   UNL     1       1.655   8.170  20.014  0.00  0.00    +0.000 F 
ATOM     19  F   UNL     1       2.866   9.130  18.500  0.00  0.00    +0.000 F 
ENDBRANCH   3  16
BRANCH   3  20
ATOM     20  C   UNL     1       3.881   6.966  17.214  0.00  0.00    +0.000 C 
ATOM     21  F   UNL     1       4.048   5.792  16.546  0.00  0.00    +0.000 F 
ATOM     22  F   UNL     1       3.233   7.805  16.368  0.00  0.00    +0.000 F 
ATOM     23  F   UNL     1       5.116   7.468  17.374  0.00  0.00    +0.000 F 
ENDBRANCH   3  20
BRANCH   5  24
ATOM     24  C   UNL     1       2.603   3.186  18.258  0.00  0.00    +0.000 C 
ATOM     25  F   UNL     1       3.608   3.265  17.357  0.00  0.00    +0.000 F 
ATOM     26  F   UNL     1       2.790   2.027  18.925  0.00  0.00    +0.000 F 
ATOM     27  F   UNL     1       1.462   3.008  17.543  0.00  0.00    +0.000 F 
ENDBRANCH   5  24
BRANCH   5  28
ATOM     28  C   UNL     1       1.395   4.178  20.196  0.00  0.00    +0.000 C 
ATOM     29  F   UNL     1       1.859   3.529  21.292  0.00  0.00    +0.000 F 
ATOM     30  F   UNL     1       0.885   5.348  20.655  0.00  0.00    +0.000 F 
ATOM     31  F   UNL     1       0.359   3.438  19.757  0.00  0.00    +0.000 F 
ENDBRANCH   5  28
TORSDOF 8
ENDMDL
MODEL 3
REMARK VINA RESULT:      -7.5      1.819      3.961
REMARK  Name = 
REMARK  8 active torsions:
REMARK  status: ('A' for Active; 'I' for Inactive)
REMARK    1  A    between atoms: C_2  and  OXT_3
REMARK    2  A    between atoms: C_2  and  CA_4
REMARK    3  A    between atoms: CA_4  and  N_5
REMARK    4  A    between atoms: C_6  and  CA_8
REMARK    5  A    between atoms: C_10  and  C_11
REMARK    6  A    between atoms: C_10  and  C_15
REMARK    7  A    between atoms: C_20  and  C_21
REMARK    8  A    between atoms: C_20  and  C_25
REMARK                            x       y       z     vdW  Elec       q    Type
REMARK                         _______ _______ _______ _____ _____    ______ ____
ROOT
ATOM      1  CA  UNL     1       4.691   4.397  19.235  0.00  0.00    +0.000 C 
ATOM      2  N   UNL     1       4.133   5.496  20.061  0.00  0.00    +0.000 NA
ATOM      3  C   UNL     1       2.704   5.687  19.621  0.00  0.00    +0.000 C 
ATOM      4  O   UNL     1       2.324   4.429  18.980  0.00  0.00    +0.000 OA
ATOM      5  C   UNL     1       3.496   3.557  18.777  0.00  0.00    +0.000 C 
ATOM      6  H   UNL     1       4.649   6.368  19.881  0.00  0.00    +0.000 HD
ENDROOT
BRANCH   1   8
ATOM      7  N   UNL     1       6.641   4.145  17.776  0.00  0.00    +0.000 N 
ATOM      8  C   UNL     1       5.600   4.962  18.157  0.00  0.00    +0.000 C 
ATOM      9  O   UNL     1       5.431   6.095  17.685  0.00  0.00    +0.000 OA
ATOM     10  H   UNL     1       6.776   3.220  18.184  0.00  0.00    +0.000 HD
BRANCH   7  11
ATOM     11  CA  UNL     1       7.616   4.578  16.783  0.00  0.00    +0.000 C 
BRANCH  11  13
ATOM     12  O   UNL     1       6.286   3.620  14.994  0.00  0.00    +0.000 OA
ATOM     13  C   UNL     1       7.037   4.504  15.382  0.00  0.00    +0.000 C 
BRANCH  13  14
ATOM     14  OXT UNL     1       7.453   5.515  14.589  0.00  0.00    +0.000 OA
ATOM     15  HXT UNL     1       6.806   5.791  13.911  0.00  0.00    +0.000 HD
ENDBRANCH  13  14
ENDBRANCH  11  13
ENDBRANCH   7  11
ENDBRANCH   1   8
BRANCH   3  16
ATOM     16  C   UNL     1       1.734   5.931  20.847  0.00  0.00    +0.000 C 
ATOM     17  F   UNL     1       2.099   5.164  21.911  0.00  0.00    +0.000 F 
ATOM     18  F   UNL     1       1.646   7.187  21.314  0.00  0.00    +0.000 F 
ATOM     19  F   UNL     1       0.466   5.547  20.540  0.00  0.00    +0.000 F 
ENDBRANCH   3  16
BRANCH   3  20
ATOM     20  C   UNL     1       2.494   6.884  18.606  0.00  0.00    +0.000 C 
ATOM     21  F   UNL     1       2.010   6.402  17.429  0.00  0.00    +0.000 F 
ATOM     22  F   UNL     1       1.573   7.763  19.074  0.00  0.00    +0.000 F 
ATOM     23  F   UNL     1       3.577   7.608  18.279  0.00  0.00    +0.000 F 
ENDBRANCH   3  20
BRANCH   5  24
ATOM     24  C   UNL     1       3.518   3.106  17.306  0.00  0.00    +0.000 C 
ATOM     25  F   UNL     1       3.674   4.132  16.439  0.00  0.00    +0.000 F 
ATOM     26  F   UNL     1       4.485   2.213  17.004  0.00  0.00    +0.000 F 
ATOM     27  F   UNL     1       2.351   2.497  16.973  0.00  0.00    +0.000 F 
ENDBRANCH   5  24
BRANCH   5  28
ATOM     28  C   UNL     1       3.371   2.305  19.659  0.00  0.00    +0.000 C 
ATOM     29  F   UNL     1       3.384   2.599  20.982  0.00  0.00    +0.000 F 
ATOM     30  F   UNL     1       2.190   1.676  19.438  0.00  0.00    +0.000 F 
ATOM     31  F   UNL     1       4.347   1.393  19.488  0.00  0.00    +0.000 F 
ENDBRANCH   5  28
TORSDOF 8
ENDMDL
MODEL 4
REMARK VINA RESULT:      -7.5      0.100      1.160
REMARK  Name = 
REMARK  8 active torsions:
REMARK  status: ('A' for Active; 'I' for Inactive)
REMARK    1  A    between atoms: C_2  and  OXT_3
REMARK    2  A    between atoms: C_2  and  CA_4
REMARK    3  A    between atoms: CA_4  and  N_5
REMARK    4  A    between atoms: C_6  and  CA_8
REMARK    5  A    between atoms: C_10  and  C_11
REMARK    6  A    between atoms: C_10  and  C_15
REMARK    7  A    between atoms: C_20  and  C_21
REMARK    8  A    between atoms: C_20  and  C_25
REMARK                            x       y       z     vdW  Elec       q    Type
REMARK                         _______ _______ _______ _____ _____    ______ ____
ROOT
ATOM      1  CA  UNL     1       3.199   4.700  17.372  0.00  0.00    +0.000 C 
ATOM      2  N   UNL     1       2.212   3.725  17.896  0.00  0.00    +0.000 NA
ATOM      3  C   UNL     1       2.504   3.556  19.365  0.00  0.00    +0.000 C 
ATOM      4  O   UNL     1       3.246   4.756  19.753  0.00  0.00    +0.000 OA
ATOM      5  C   UNL     1       3.644   5.542  18.571  0.00  0.00    +0.000 C 
ATOM      6  H   UNL     1       2.336   2.814  17.433  0.00  0.00    +0.000 HD
ENDROOT
BRANCH   1   8
ATOM      7  N   UNL     1       4.865   4.712  15.578  0.00  0.00    +0.000 N 
ATOM      8  C   UNL     1       4.282   3.978  16.588  0.00  0.00    +0.000 C 
ATOM      9  O   UNL     1       4.586   2.800  16.821  0.00  0.00    +0.000 OA
ATOM     10  H   UNL     1       4.595   5.676  15.388  0.00  0.00    +0.000 HD
BRANCH   7  11
ATOM     11  CA  UNL     1       5.887   4.130  14.717  0.00  0.00    +0.000 C 
BRANCH  11  13
ATOM     12  O   UNL     1       7.845   4.562  16.082  0.00  0.00    +0.000 OA
ATOM     13  C   UNL     1       7.254   4.713  15.022  0.00  0.00    +0.000 C 
BRANCH  13  14
ATOM     14  OXT UNL     1       7.754   5.441  14.001  0.00  0.00    +0.000 OA
ATOM     15  HXT UNL     1       7.105   6.031  13.569  0.00  0.00    +0.000 HD
ENDBRANCH  13  14
ENDBRANCH  11  13
ENDBRANCH   7  11
ENDBRANCH   1   8
BRANCH   3  16
ATOM     16  C   UNL     1       1.180   3.494  20.230  0.00  0.00    +0.000 C 
ATOM     17  F   UNL     1       0.237   2.729  19.613  0.00  0.00    +0.000 F 
ATOM     18  F   UNL     1       1.289   3.006  21.476  0.00  0.00    +0.000 F 
ATOM     19  F   UNL     1       0.624   4.729  20.349  0.00  0.00    +0.000 F 
ENDBRANCH   3  16
BRANCH   3  20
ATOM     20  C   UNL     1       3.357   2.269  19.713  0.00  0.00    +0.000 C 
ATOM     21  F   UNL     1       3.113   1.895  20.998  0.00  0.00    +0.000 F 
ATOM     22  F   UNL     1       2.999   1.222  18.929  0.00  0.00    +0.000 F 
ATOM     23  F   UNL     1       4.692   2.375  19.617  0.00  0.00    +0.000 F 
ENDBRANCH   3  20
BRANCH   5  24
ATOM     24  C   UNL     1       5.153   5.831  18.664  0.00  0.00    +0.000 C 
ATOM     25  F   UNL     1       5.915   4.721  18.530  0.00  0.00    +0.000 F 
ATOM     26  F   UNL     1       5.616   6.713  17.753  0.00  0.00    +0.000 F 
ATOM     27  F   UNL     1       5.466   6.367  19.872  0.00  0.00    +0.000 F 
ENDBRANCH   5  24
BRANCH   5  28
ATOM     28  C   UNL     1       2.900   6.887  18.567  0.00  0.00    +0.000 C 
ATOM     29  F   UNL     1       3.589   7.859  17.920  0.00  0.00    +0.000 F 
ATOM     30  F   UNL     1       1.718   6.781  17.912  0.00  0.00    +0.000 F 
ATOM     31  F   UNL     1       2.636   7.391  19.788  0.00  0.00    +0.000 F 
ENDBRANCH   5  28
TORSDOF 8
ENDMDL
MODEL 5
REMARK VINA RESULT:      -7.5      1.869      4.289
REMARK  Name = 
REMARK  8 active torsions:
REMARK  status: ('A' for Active; 'I' for Inactive)
REMARK    1  A    between atoms: C_2  and  OXT_3
REMARK    2  A    between atoms: C_2  and  CA_4
REMARK    3  A    between atoms: CA_4  and  N_5
REMARK    4  A    between atoms: C_6  and  CA_8
REMARK    5  A    between atoms: C_10  and  C_11
REMARK    6  A    between atoms: C_10  and  C_15
REMARK    7  A    between atoms: C_20  and  C_21
REMARK    8  A    between atoms: C_20  and  C_25
REMARK                            x       y       z     vdW  Elec       q    Type
REMARK                         _______ _______ _______ _____ _____    ______ ____
ROOT
ATOM      1  CA  UNL     1       3.826   4.966  19.823  0.00  0.00    +0.000 C 
ATOM      2  N   UNL     1       3.901   6.435  19.623  0.00  0.00    +0.000 NA
ATOM      3  C   UNL     1       3.065   6.751  18.409  0.00  0.00    +0.000 C 
ATOM      4  O   UNL     1       2.149   5.620  18.264  0.00  0.00    +0.000 OA
ATOM      5  C   UNL     1       2.523   4.511  19.161  0.00  0.00    +0.000 C 
ATOM      6  H   UNL     1       4.872   6.715  19.432  0.00  0.00    +0.000 HD
ENDROOT
BRANCH   1   8
ATOM      7  N   UNL     1       5.924   5.097  18.568  0.00  0.00    +0.000 N 
ATOM      8  C   UNL     1       5.113   4.309  19.355  0.00  0.00    +0.000 C 
ATOM      9  O   UNL     1       5.388   3.134  19.634  0.00  0.00    +0.000 OA
ATOM     10  H   UNL     1       5.678   6.058  18.334  0.00  0.00    +0.000 HD
BRANCH   7  11
ATOM     11  CA  UNL     1       7.169   4.580  18.013  0.00  0.00    +0.000 C 
BRANCH  11  13
ATOM     12  O   UNL     1       7.619   5.499  15.813  0.00  0.00    +0.000 OA
ATOM     13  C   UNL     1       7.141   4.604  16.495  0.00  0.00    +0.000 C 
BRANCH  13  14
ATOM     14  OXT UNL     1       6.509   3.535  15.965  0.00  0.00    +0.000 OA
ATOM     15  HXT UNL     1       6.151   2.908  16.624  0.00  0.00    +0.000 HD
ENDBRANCH  13  14
ENDBRANCH  11  13
ENDBRANCH   7  11
ENDBRANCH   1   8
BRANCH   3  16
ATOM     16  C   UNL     1       2.203   8.062  18.608  0.00  0.00    +0.000 C 
ATOM     17  F   UNL     1       2.947   9.173  18.352  0.00  0.00    +0.000 F 
ATOM     18  F   UNL     1       1.096   8.183  17.858  0.00  0.00    +0.000 F 
ATOM     19  F   UNL     1       1.803   8.183  19.902  0.00  0.00    +0.000 F 
ENDBRANCH   3  16
BRANCH   3  20
ATOM     20  C   UNL     1       3.901   6.931  17.077  0.00  0.00    +0.000 C 
ATOM     21  F   UNL     1       5.130   7.435  17.376  0.00  0.00    +0.000 F 
ATOM     22  F   UNL     1       4.108   5.738  16.467  0.00  0.00    +0.000 F 
ATOM     23  F   UNL     1       3.394   7.752  16.142  0.00  0.00    +0.000 F 
ENDBRANCH   3  20
BRANCH   5  24
ATOM     24  C   UNL     1       2.611   3.219  18.329  0.00  0.00    +0.000 C 
ATOM     25  F   UNL     1       1.481   2.960  17.631  0.00  0.00    +0.000 F 
ATOM     26  F   UNL     1       3.618   3.193  17.431  0.00  0.00    +0.000 F 
ATOM     27  F   UNL     1       2.819   2.144  19.132  0.00  0.00    +0.000 F 
ENDBRANCH   5  24
BRANCH   5  28
ATOM     28  C   UNL     1       1.436   4.318  20.229  0.00  0.00    +0.000 C 
ATOM     29  F   UNL     1       1.907   3.707  21.344  0.00  0.00    +0.000 F 
ATOM     30  F   UNL     1       0.953   5.514  20.647  0.00  0.00    +0.000 F 
ATOM     31  F   UNL     1       0.382   3.577  19.837  0.00  0.00    +0.000 F 
ENDBRANCH   5  28
TORSDOF 8
ENDMDL
MODEL 6
REMARK VINA RESULT:      -7.4      0.052      1.005
REMARK  Name = 
REMARK  8 active torsions:
REMARK  status: ('A' for Active; 'I' for Inactive)
REMARK    1  A    between atoms: C_2  and  OXT_3
REMARK    2  A    between atoms: C_2  and  CA_4
REMARK    3  A    between atoms: CA_4  and  N_5
REMARK    4  A    between atoms: C_6  and  CA_8
REMARK    5  A    between atoms: C_10  and  C_11
REMARK    6  A    between atoms: C_10  and  C_15
REMARK    7  A    between atoms: C_20  and  C_21
REMARK    8  A    between atoms: C_20  and  C_25
REMARK                            x       y       z     vdW  Elec       q    Type
REMARK                         _______ _______ _______ _____ _____    ______ ____
ROOT
ATOM      1  CA  UNL     1       3.217   4.647  17.370  0.00  0.00    +0.000 C 
ATOM      2  N   UNL     1       2.204   3.695  17.888  0.00  0.00    +0.000 NA
ATOM      3  C   UNL     1       2.480   3.524  19.360  0.00  0.00    +0.000 C 
ATOM      4  O   UNL     1       3.244   4.708  19.751  0.00  0.00    +0.000 OA
ATOM      5  C   UNL     1       3.670   5.483  18.570  0.00  0.00    +0.000 C 
ATOM      6  H   UNL     1       2.313   2.780  17.428  0.00  0.00    +0.000 HD
ENDROOT
BRANCH   1   8
ATOM      7  N   UNL     1       4.915   4.624  15.606  0.00  0.00    +0.000 N 
ATOM      8  C   UNL     1       4.291   3.899  16.597  0.00  0.00    +0.000 C 
ATOM      9  O   UNL     1       4.553   2.710  16.823  0.00  0.00    +0.000 OA
ATOM     10  H   UNL     1       4.679   5.599  15.421  0.00  0.00    +0.000 HD
BRANCH   7  11
ATOM     11  CA  UNL     1       5.934   4.020  14.757  0.00  0.00    +0.000 C 
BRANCH  11  13
ATOM     12  O   UNL     1       7.759   5.430  14.004  0.00  0.00    +0.000 OA
ATOM     13  C   UNL     1       7.258   4.749  14.889  0.00  0.00    +0.000 C 
BRANCH  13  14
ATOM     14  OXT UNL     1       7.847   4.555  16.088  0.00  0.00    +0.000 OA
ATOM     15  HXT UNL     1       7.517   3.778  16.580  0.00  0.00    +0.000 HD
ENDBRANCH  13  14
ENDBRANCH  11  13
ENDBRANCH   7  11
ENDBRANCH   1   8
BRANCH   3  16
ATOM     16  C   UNL     1       1.147   3.493  20.212  0.00  0.00    +0.000 C 
ATOM     17  F   UNL     1       0.210   2.706  19.615  0.00  0.00    +0.000 F 
ATOM     18  F   UNL     1       1.243   3.052  21.477  0.00  0.00    +0.000 F 
ATOM     19  F   UNL     1       0.590   4.732  20.281  0.00  0.00    +0.000 F 
ENDBRANCH   3  16
BRANCH   3  20
ATOM     20  C   UNL     1       3.302   2.220  19.718  0.00  0.00    +0.000 C 
ATOM     21  F   UNL     1       3.051   1.865  21.008  0.00  0.00    +0.000 F 
ATOM     22  F   UNL     1       2.915   1.174  18.946  0.00  0.00    +0.000 F 
ATOM     23  F   UNL     1       4.639   2.291  19.619  0.00  0.00    +0.000 F 
ENDBRANCH   3  20
BRANCH   5  24
ATOM     24  C   UNL     1       5.184   5.739  18.676  0.00  0.00    +0.000 C 
ATOM     25  F   UNL     1       5.546   6.304  19.850  0.00  0.00    +0.000 F 
ATOM     26  F   UNL     1       5.953   4.638  18.539  0.00  0.00    +0.000 F 
ATOM     27  F   UNL     1       5.596   6.588  17.700  0.00  0.00    +0.000 F 
ENDBRANCH   5  24
BRANCH   5  28
ATOM     28  C   UNL     1       2.956   6.843  18.556  0.00  0.00    +0.000 C 
ATOM     29  F   UNL     1       2.684   7.299  19.804  0.00  0.00    +0.000 F 
ATOM     30  F   UNL     1       3.737   7.792  17.984  0.00  0.00    +0.000 F 
ATOM     31  F   UNL     1       1.775   6.856  17.908  0.00  0.00    +0.000 F 
ENDBRANCH   5  28
TORSDOF 8
ENDMDL
MODEL 7
REMARK VINA RESULT:      -7.4      0.281      1.277
REMARK  Name = 
REMARK  8 active torsions:
REMARK  status: ('A' for Active; 'I' for Inactive)
REMARK    1  A    between atoms: C_2  and  OXT_3
REMARK    2  A    between atoms: C_2  and  CA_4
REMARK    3  A    between atoms: CA_4  and  N_5
REMARK    4  A    between atoms: C_6  and  CA_8
REMARK    5  A    between atoms: C_10  and  C_11
REMARK    6  A    between atoms: C_10  and  C_15
REMARK    7  A    between atoms: C_20  and  C_21
REMARK    8  A    between atoms: C_20  and  C_25
REMARK                            x       y       z     vdW  Elec       q    Type
REMARK                         _______ _______ _______ _____ _____    ______ ____
ROOT
ATOM      1  CA  UNL     1       3.273   4.676  17.423  0.00  0.00    +0.000 C 
ATOM      2  N   UNL     1       2.314   3.725  18.038  0.00  0.00    +0.000 NA
ATOM      3  C   UNL     1       2.687   3.614  19.494  0.00  0.00    +0.000 C 
ATOM      4  O   UNL     1       3.451   4.825  19.793  0.00  0.00    +0.000 OA
ATOM      5  C   UNL     1       3.784   5.564  18.560  0.00  0.00    +0.000 C 
ATOM      6  H   UNL     1       2.412   2.797  17.605  0.00  0.00    +0.000 HD
ENDROOT
BRANCH   1   8
ATOM      7  N   UNL     1       4.906   4.643  15.599  0.00  0.00    +0.000 N 
ATOM      8  C   UNL     1       4.309   3.920  16.609  0.00  0.00    +0.000 C 
ATOM      9  O   UNL     1       4.566   2.727  16.820  0.00  0.00    +0.000 OA
ATOM     10  H   UNL     1       4.673   5.621  15.426  0.00  0.00    +0.000 HD
BRANCH   7  11
ATOM     11  CA  UNL     1       5.886   4.031  14.711  0.00  0.00    +0.000 C 
BRANCH  11  13
ATOM     12  O   UNL     1       7.710   5.403  13.889  0.00  0.00    +0.000 OA
ATOM     13  C   UNL     1       7.222   4.746  14.797  0.00  0.00    +0.000 C 
BRANCH  13  14
ATOM     14  OXT UNL     1       7.837   4.567  15.986  0.00  0.00    +0.000 OA
ATOM     15  HXT UNL     1       8.249   5.373  16.354  0.00  0.00    +0.000 HD
ENDBRANCH  13  14
ENDBRANCH  11  13
ENDBRANCH   7  11
ENDBRANCH   1   8
BRANCH   3  16
ATOM     16  C   UNL     1       1.413   3.590  20.433  0.00  0.00    +0.000 C 
ATOM     17  F   UNL     1       1.779   3.600  21.744  0.00  0.00    +0.000 F 
ATOM     18  F   UNL     1       0.534   4.595  20.290  0.00  0.00    +0.000 F 
ATOM     19  F   UNL     1       0.710   2.439  20.260  0.00  0.00    +0.000 F 
ENDBRANCH   3  16
BRANCH   3  20
ATOM     20  C   UNL     1       3.557   2.338  19.845  0.00  0.00    +0.000 C 
ATOM     21  F   UNL     1       4.878   2.637  19.706  0.00  0.00    +0.000 F 
ATOM     22  F   UNL     1       3.377   1.967  21.136  0.00  0.00    +0.000 F 
ATOM     23  F   UNL     1       3.357   1.238  19.101  0.00  0.00    +0.000 F 
ENDBRANCH   3  20
BRANCH   5  24
ATOM     24  C   UNL     1       5.296   5.851  18.558  0.00  0.00    +0.000 C 
ATOM     25  F   UNL     1       6.047   4.737  18.396  0.00  0.00    +0.000 F 
ATOM     26  F   UNL     1       5.705   6.718  17.608  0.00  0.00    +0.000 F 
ATOM     27  F   UNL     1       5.681   6.403  19.737  0.00  0.00    +0.000 F 
ENDBRANCH   5  24
BRANCH   5  28
ATOM     28  C   UNL     1       3.043   6.909  18.545  0.00  0.00    +0.000 C 
ATOM     29  F   UNL     1       1.866   6.845  17.874  0.00  0.00    +0.000 F 
ATOM     30  F   UNL     1       2.723   7.298  19.804  0.00  0.00    +0.000 F 
ATOM     31  F   UNL     1       3.721   7.923  17.974  0.00  0.00    +0.000 F 
ENDBRANCH   5  28
TORSDOF 8
ENDMDL
MODEL 8
REMARK VINA RESULT:      -7.4      0.427      1.388
REMARK  Name = 
REMARK  8 active torsions:
REMARK  status: ('A' for Active; 'I' for Inactive)
REMARK    1  A    between atoms: C_2  and  OXT_3
REMARK    2  A    between atoms: C_2  and  CA_4
REMARK    3  A    between atoms: CA_4  and  N_5
REMARK    4  A    between atoms: C_6  and  CA_8
REMARK    5  A    between atoms: C_10  and  C_11
REMARK    6  A    between atoms: C_10  and  C_15
REMARK    7  A    between atoms: C_20  and  C_21
REMARK    8  A    between atoms: C_20  and  C_25
REMARK                            x       y       z     vdW  Elec       q    Type
REMARK                         _______ _______ _______ _____ _____    ______ ____
ROOT
ATOM      1  CA  UNL     1       3.276   4.635  17.480  0.00  0.00    +0.000 C 
ATOM      2  N   UNL     1       2.368   3.673  18.153  0.00  0.00    +0.000 NA
ATOM      3  C   UNL     1       2.798   3.607  19.597  0.00  0.00    +0.000 C 
ATOM      4  O   UNL     1       3.537   4.846  19.838  0.00  0.00    +0.000 OA
ATOM      5  C   UNL     1       3.803   5.563  18.577  0.00  0.00    +0.000 C 
ATOM      6  H   UNL     1       2.477   2.738  17.738  0.00  0.00    +0.000 HD
ENDROOT
BRANCH   1   8
ATOM      7  N   UNL     1       4.890   4.624  15.640  0.00  0.00    +0.000 N 
ATOM      8  C   UNL     1       4.303   3.889  16.646  0.00  0.00    +0.000 C 
ATOM      9  O   UNL     1       4.560   2.692  16.838  0.00  0.00    +0.000 OA
ATOM     10  H   UNL     1       4.658   5.604  15.483  0.00  0.00    +0.000 HD
BRANCH   7  11
ATOM     11  CA  UNL     1       5.861   4.023  14.734  0.00  0.00    +0.000 C 
BRANCH  11  13
ATOM     12  O   UNL     1       7.660   5.420  13.898  0.00  0.00    +0.000 OA
ATOM     13  C   UNL     1       7.194   4.744  14.805  0.00  0.00    +0.000 C 
BRANCH  13  14
ATOM     14  OXT UNL     1       7.834   4.549  15.978  0.00  0.00    +0.000 OA
ATOM     15  HXT UNL     1       7.303   4.089  16.658  0.00  0.00    +0.000 HD
ENDBRANCH  13  14
ENDBRANCH  11  13
ENDBRANCH   7  11
ENDBRANCH   1   8
BRANCH   3  16
ATOM     16  C   UNL     1       1.560   3.571  20.582  0.00  0.00    +0.000 C 
ATOM     17  F   UNL     1       0.624   4.490  20.216  0.00  0.00    +0.000 F 
ATOM     18  F   UNL     1       0.904   2.404  20.692  0.00  0.00    +0.000 F 
ATOM     19  F   UNL     1       1.937   3.918  21.841  0.00  0.00    +0.000 F 
ENDBRANCH   3  16
BRANCH   3  20
ATOM     20  C   UNL     1       3.716   2.365  19.943  0.00  0.00    +0.000 C 
ATOM     21  F   UNL     1       5.021   2.696  19.746  0.00  0.00    +0.000 F 
ATOM     22  F   UNL     1       3.596   2.021  21.250  0.00  0.00    +0.000 F 
ATOM     23  F   UNL     1       3.519   1.242  19.235  0.00  0.00    +0.000 F 
ENDBRANCH   3  20
BRANCH   5  24
ATOM     24  C   UNL     1       5.306   5.892  18.512  0.00  0.00    +0.000 C 
ATOM     25  F   UNL     1       6.082   4.796  18.349  0.00  0.00    +0.000 F 
ATOM     26  F   UNL     1       5.654   6.746  17.526  0.00  0.00    +0.000 F 
ATOM     27  F   UNL     1       5.717   6.486  19.662  0.00  0.00    +0.000 F 
ENDBRANCH   5  24
BRANCH   5  28
ATOM     28  C   UNL     1       3.024   6.887  18.558  0.00  0.00    +0.000 C 
ATOM     29  F   UNL     1       3.711   7.886  17.951  0.00  0.00    +0.000 F 
ATOM     30  F   UNL     1       1.872   6.758  17.854  0.00  0.00    +0.000 F 
ATOM     31  F   UNL     1       2.696   7.369  19.773  0.00  0.00    +0.000 F 
ENDBRANCH   5  28
TORSDOF 8
ENDMDL
MODEL 9
REMARK VINA RESULT:      -7.4      0.102      1.371
REMARK  Name = 
REMARK  8 active torsions:
REMARK  status: ('A' for Active; 'I' for Inactive)
REMARK    1  A    between atoms: C_2  and  OXT_3
REMARK    2  A    between atoms: C_2  and  CA_4
REMARK    3  A    between atoms: CA_4  and  N_5
REMARK    4  A    between atoms: C_6  and  CA_8
REMARK    5  A    between atoms: C_10  and  C_11
REMARK    6  A    between atoms: C_10  and  C_15
REMARK    7  A    between atoms: C_20  and  C_21
REMARK    8  A    between atoms: C_20  and  C_25
REMARK                            x       y       z     vdW  Elec       q    Type
REMARK                         _______ _______ _______ _____ _____    ______ ____
ROOT
ATOM      1  CA  UNL     1       3.175   4.666  17.389  0.00  0.00    +0.000 C 
ATOM      2  N   UNL     1       2.191   3.702  17.940  0.00  0.00    +0.000 NA
ATOM      3  C   UNL     1       2.498   3.562  19.410  0.00  0.00    +0.000 C 
ATOM      4  O   UNL     1       3.245   4.768  19.767  0.00  0.00    +0.000 OA
ATOM      5  C   UNL     1       3.632   5.531  18.566  0.00  0.00    +0.000 C 
ATOM      6  H   UNL     1       2.311   2.783  17.494  0.00  0.00    +0.000 HD
ENDROOT
BRANCH   1   8
ATOM      7  N   UNL     1       4.870   4.662  15.621  0.00  0.00    +0.000 N 
ATOM      8  C   UNL     1       4.250   3.927  16.608  0.00  0.00    +0.000 C 
ATOM      9  O   UNL     1       4.516   2.737  16.824  0.00  0.00    +0.000 OA
ATOM     10  H   UNL     1       4.630   5.637  15.445  0.00  0.00    +0.000 HD
BRANCH   7  11
ATOM     11  CA  UNL     1       5.889   4.067  14.766  0.00  0.00    +0.000 C 
BRANCH  11  13
ATOM     12  O   UNL     1       7.866   4.541  16.090  0.00  0.00    +0.000 OA
ATOM     13  C   UNL     1       7.253   4.673  15.040  0.00  0.00    +0.000 C 
BRANCH  13  14
ATOM     14  OXT UNL     1       7.723   5.398  14.002  0.00  0.00    +0.000 OA
ATOM     15  HXT UNL     1       8.130   4.868  13.289  0.00  0.00    +0.000 HD
ENDBRANCH  13  14
ENDBRANCH  11  13
ENDBRANCH   7  11
ENDBRANCH   1   8
BRANCH   3  16
ATOM     16  C   UNL     1       1.182   3.518  20.288  0.00  0.00    +0.000 C 
ATOM     17  F   UNL     1       0.239   2.728  19.704  0.00  0.00    +0.000 F 
ATOM     18  F   UNL     1       1.305   3.070  21.548  0.00  0.00    +0.000 F 
ATOM     19  F   UNL     1       0.619   4.753  20.373  0.00  0.00    +0.000 F 
ENDBRANCH   3  16
BRANCH   3  20
ATOM     20  C   UNL     1       3.353   2.280  19.774  0.00  0.00    +0.000 C 
ATOM     21  F   UNL     1       3.019   1.259  18.938  0.00  0.00    +0.000 F 
ATOM     22  F   UNL     1       4.677   2.512  19.595  0.00  0.00    +0.000 F 
ATOM     23  F   UNL     1       3.218   1.787  21.015  0.00  0.00    +0.000 F 
ENDBRANCH   3  20
BRANCH   5  24
ATOM     24  C   UNL     1       5.143   5.819  18.639  0.00  0.00    +0.000 C 
ATOM     25  F   UNL     1       5.902   4.707  18.513  0.00  0.00    +0.000 F 
ATOM     26  F   UNL     1       5.597   6.688  17.711  0.00  0.00    +0.000 F 
ATOM     27  F   UNL     1       5.468   6.371  19.836  0.00  0.00    +0.000 F 
ENDBRANCH   5  24
BRANCH   5  28
ATOM     28  C   UNL     1       2.890   6.876  18.543  0.00  0.00    +0.000 C 
ATOM     29  F   UNL     1       2.610   7.335  19.788  0.00  0.00    +0.000 F 
ATOM     30  F   UNL     1       3.651   7.837  17.964  0.00  0.00    +0.000 F 
ATOM     31  F   UNL     1       1.709   6.859  17.897  0.00  0.00    +0.000 F 
ENDBRANCH   5  28
TORSDOF 8
ENDMDL
