MODEL 1
REMARK VINA RESULT:      -6.8      0.000      0.000
REMARK  Name = 
REMARK  7 active torsions:
REMARK  status: ('A' for Active; 'I' for Inactive)
REMARK    1  A    between atoms: C_1  and  O_2
REMARK    2  A    between atoms: O_2  and  C_3
REMARK    3  A    between atoms: C_7  and  N_8
REMARK    4  A    between atoms: C_12  and  C_13
REMARK    5  A    between atoms: C_16  and  C_17
REMARK    6  A    between atoms: C_17  and  O_18
REMARK    7  A    between atoms: C_21  and  C_22
REMARK                            x       y       z     vdW  Elec       q    Type
REMARK                         _______ _______ _______ _____ _____    ______ ____
ROOT
ATOM      1  N   UNL     1       3.874   4.155  18.829  0.00  0.00    +0.000 NA
ATOM      2  C   UNL     1       3.149   5.102  19.341  0.00  0.00    +0.000 A 
ATOM      3  O   UNL     1       3.170   6.399  18.846  0.00  0.00    +0.000 OA
ATOM      4  C   UNL     1       2.303   7.409  19.310  0.00  0.00    +0.000 A 
ATOM      5  C   UNL     1       2.316   8.646  18.671  0.00  0.00    +0.000 A 
ATOM      6  C   UNL     1       3.209   8.946  17.509  0.00  0.00    +0.000 C 
ATOM      7  N   UNL     1       1.494   9.649  19.050  0.00  0.00    +0.000 NA
ATOM      8  C   UNL     1       0.659   9.414  20.086  0.00  0.00    +0.000 A 
ATOM      9  C   UNL     1       0.579   8.210  20.791  0.00  0.00    +0.000 A 
ATOM     10  C   UNL     1       1.436   7.174  20.380  0.00  0.00    +0.000 A 
ATOM     11  C   UNL     1       1.486   5.852  20.994  0.00  0.00    +0.000 A 
ATOM     12  C   UNL     1       2.268   4.868  20.516  0.00  0.00    +0.000 A 
ENDROOT
BRANCH   1  17
ATOM     13  C   UNL     1       5.441   4.302  15.415  0.00  0.00    +0.000 A 
ATOM     14  C   UNL     1       6.769   4.517  15.792  0.00  0.00    +0.000 A 
ATOM     15  C   UNL     1       7.110   4.620  17.135  0.00  0.00    +0.000 A 
ATOM     16  C   UNL     1       6.114   4.523  18.107  0.00  0.00    +0.000 A 
ATOM     17  C   UNL     1       4.771   4.316  17.758  0.00  0.00    +0.000 A 
ATOM     18  C   UNL     1       4.451   4.182  16.400  0.00  0.00    +0.000 A 
BRANCH  13  20
ATOM     19  C   UNL     1       6.367   3.797  13.279  0.00  0.00    +0.000 C 
ATOM     20  O   UNL     1       5.258   4.209  14.063  0.00  0.00    +0.000 OA
ENDBRANCH  13  20
ENDBRANCH   1  17
BRANCH  12  21
ATOM     21  C   UNL     1       2.196   3.567  21.257  0.00  0.00    +0.000 C 
ATOM     22  N   UNL     1       1.836   2.469  20.547  0.00  0.00    +0.000 N 
ATOM     23  O   UNL     1       2.444   3.470  22.456  0.00  0.00    +0.000 OA
ATOM     24  H   UNL     1       1.606   2.525  19.556  0.00  0.00    +0.000 HD
ATOM     25  H   UNL     1       1.766   1.580  21.020  0.00  0.00    +0.000 HD
ENDBRANCH  12  21
BRANCH   9  26
ATOM     26  C   UNL     1      -0.444   8.120  21.887  0.00  0.00    +0.000 C 
BRANCH  26  27
ATOM     27  O   UNL     1      -0.424   9.304  22.674  0.00  0.00    +0.000 OA
ATOM     28  H   UNL     1      -1.337   9.473  22.965  0.00  0.00    +0.000 HD
ENDBRANCH  26  27
ENDBRANCH   9  26
TORSDOF 5
ENDMDL
MODEL 2
REMARK VINA RESULT:      -6.8      1.173      1.773
REMARK  Name = 
REMARK  7 active torsions:
REMARK  status: ('A' for Active; 'I' for Inactive)
REMARK    1  A    between atoms: C_1  and  O_2
REMARK    2  A    between atoms: O_2  and  C_3
REMARK    3  A    between atoms: C_7  and  N_8
REMARK    4  A    between atoms: C_12  and  C_13
REMARK    5  A    between atoms: C_16  and  C_17
REMARK    6  A    between atoms: C_17  and  O_18
REMARK    7  A    between atoms: C_21  and  C_22
REMARK                            x       y       z     vdW  Elec       q    Type
REMARK                         _______ _______ _______ _____ _____    ______ ____
ROOT
ATOM      1  N   UNL     1       3.624   4.497  18.890  0.00  0.00    +0.000 NA
ATOM      2  C   UNL     1       2.900   5.430  19.429  0.00  0.00    +0.000 A 
ATOM      3  O   UNL     1       2.925   6.741  18.973  0.00  0.00    +0.000 OA
ATOM      4  C   UNL     1       2.059   7.739  19.465  0.00  0.00    +0.000 A 
ATOM      5  C   UNL     1       2.076   8.995  18.863  0.00  0.00    +0.000 A 
ATOM      6  C   UNL     1       2.972   9.326  17.712  0.00  0.00    +0.000 C 
ATOM      7  N   UNL     1       1.256   9.988  19.270  0.00  0.00    +0.000 NA
ATOM      8  C   UNL     1       0.418   9.723  20.298  0.00  0.00    +0.000 A 
ATOM      9  C   UNL     1       0.335   8.500  20.966  0.00  0.00    +0.000 A 
ATOM     10  C   UNL     1       1.190   7.475  20.526  0.00  0.00    +0.000 A 
ATOM     11  C   UNL     1       1.237   6.134  21.101  0.00  0.00    +0.000 A 
ATOM     12  C   UNL     1       2.017   5.164  20.596  0.00  0.00    +0.000 A 
ENDROOT
BRANCH   1  17
ATOM     13  C   UNL     1       6.393   5.749  16.676  0.00  0.00    +0.000 A 
ATOM     14  C   UNL     1       6.094   5.025  15.520  0.00  0.00    +0.000 A 
ATOM     15  C   UNL     1       5.016   4.147  15.499  0.00  0.00    +0.000 A 
ATOM     16  C   UNL     1       4.242   3.982  16.647  0.00  0.00    +0.000 A 
ATOM     17  C   UNL     1       4.524   4.688  17.826  0.00  0.00    +0.000 A 
ATOM     18  C   UNL     1       5.594   5.593  17.818  0.00  0.00    +0.000 A 
BRANCH  13  20
ATOM     19  C   UNL     1       7.650   7.579  17.538  0.00  0.00    +0.000 C 
ATOM     20  O   UNL     1       7.471   6.580  16.546  0.00  0.00    +0.000 OA
ENDBRANCH  13  20
ENDBRANCH   1  17
BRANCH  12  21
ATOM     21  C   UNL     1       1.941   3.841  21.297  0.00  0.00    +0.000 C 
ATOM     22  N   UNL     1       1.102   2.911  20.777  0.00  0.00    +0.000 N 
ATOM     23  O   UNL     1       2.597   3.584  22.303  0.00  0.00    +0.000 OA
ATOM     24  H   UNL     1       0.532   3.106  19.955  0.00  0.00    +0.000 HD
ATOM     25  H   UNL     1       1.019   2.015  21.234  0.00  0.00    +0.000 HD
ENDBRANCH  12  21
BRANCH   9  26
ATOM     26  C   UNL     1      -0.690   8.379  22.058  0.00  0.00    +0.000 C 
BRANCH  26  27
ATOM     27  O   UNL     1      -0.334   9.208  23.157  0.00  0.00    +0.000 OA
ATOM     28  H   UNL     1      -0.720  10.086  22.993  0.00  0.00    +0.000 HD
ENDBRANCH  26  27
ENDBRANCH   9  26
TORSDOF 5
ENDMDL
MODEL 3
REMARK VINA RESULT:      -6.8      1.059      1.194
REMARK  Name = 
REMARK  7 active torsions:
REMARK  status: ('A' for Active; 'I' for Inactive)
REMARK    1  A    between atoms: C_1  and  O_2
REMARK    2  A    between atoms: O_2  and  C_3
REMARK    3  A    between atoms: C_7  and  N_8
REMARK    4  A    between atoms: C_12  and  C_13
REMARK    5  A    between atoms: C_16  and  C_17
REMARK    6  A    between atoms: C_17  and  O_18
REMARK    7  A    between atoms: C_21  and  C_22
REMARK                            x       y       z     vdW  Elec       q    Type
REMARK                         _______ _______ _______ _____ _____    ______ ____
ROOT
ATOM      1  N   UNL     1       3.166   4.786  18.597  0.00  0.00    +0.000 NA
ATOM      2  C   UNL     1       2.546   5.712  19.262  0.00  0.00    +0.000 A 
ATOM      3  O   UNL     1       2.568   7.044  18.870  0.00  0.00    +0.000 OA
ATOM      4  C   UNL     1       1.803   8.042  19.509  0.00  0.00    +0.000 A 
ATOM      5  C   UNL     1       1.798   9.326  18.970  0.00  0.00    +0.000 A 
ATOM      6  C   UNL     1       2.567   9.689  17.739  0.00  0.00    +0.000 C 
ATOM      7  N   UNL     1       1.069  10.323  19.519  0.00  0.00    +0.000 NA
ATOM      8  C   UNL     1       0.346  10.032  20.623  0.00  0.00    +0.000 A 
ATOM      9  C   UNL     1       0.294   8.778  21.237  0.00  0.00    +0.000 A 
ATOM     10  C   UNL     1       1.053   7.751  20.650  0.00  0.00    +0.000 A 
ATOM     11  C   UNL     1       1.114   6.381  21.149  0.00  0.00    +0.000 A 
ATOM     12  C   UNL     1       1.794   5.414  20.510  0.00  0.00    +0.000 A 
ENDROOT
BRANCH   1  17
ATOM     13  C   UNL     1       5.344   4.336  15.567  0.00  0.00    +0.000 A 
ATOM     14  C   UNL     1       5.601   5.679  15.279  0.00  0.00    +0.000 A 
ATOM     15  C   UNL     1       5.051   6.684  16.066  0.00  0.00    +0.000 A 
ATOM     16  C   UNL     1       4.227   6.343  17.138  0.00  0.00    +0.000 A 
ATOM     17  C   UNL     1       3.943   5.004  17.445  0.00  0.00    +0.000 A 
ATOM     18  C   UNL     1       4.534   4.003  16.660  0.00  0.00    +0.000 A 
BRANCH  13  20
ATOM     19  C   UNL     1       6.427   3.971  13.477  0.00  0.00    +0.000 C 
ATOM     20  O   UNL     1       5.961   3.460  14.716  0.00  0.00    +0.000 OA
ENDBRANCH  13  20
ENDBRANCH   1  17
BRANCH  12  21
ATOM     21  C   UNL     1       1.748   4.059  21.150  0.00  0.00    +0.000 C 
ATOM     22  N   UNL     1       0.896   3.149  20.616  0.00  0.00    +0.000 N 
ATOM     23  O   UNL     1       2.440   3.759  22.120  0.00  0.00    +0.000 OA
ATOM     24  H   UNL     1       0.298   3.378  19.824  0.00  0.00    +0.000 HD
ATOM     25  H   UNL     1       0.834   2.232  21.033  0.00  0.00    +0.000 HD
ENDBRANCH  12  21
BRANCH   9  26
ATOM     26  C   UNL     1      -0.602   8.633  22.434  0.00  0.00    +0.000 C 
BRANCH  26  27
ATOM     27  O   UNL     1      -0.053   9.334  23.543  0.00  0.00    +0.000 OA
ATOM     28  H   UNL     1      -0.795   9.743  24.022  0.00  0.00    +0.000 HD
ENDBRANCH  26  27
ENDBRANCH   9  26
TORSDOF 5
ENDMDL
MODEL 4
REMARK VINA RESULT:      -6.4      2.244      7.337
REMARK  Name = 
REMARK  7 active torsions:
REMARK  status: ('A' for Active; 'I' for Inactive)
REMARK    1  A    between atoms: C_1  and  O_2
REMARK    2  A    between atoms: O_2  and  C_3
REMARK    3  A    between atoms: C_7  and  N_8
REMARK    4  A    between atoms: C_12  and  C_13
REMARK    5  A    between atoms: C_16  and  C_17
REMARK    6  A    between atoms: C_17  and  O_18
REMARK    7  A    between atoms: C_21  and  C_22
REMARK                            x       y       z     vdW  Elec       q    Type
REMARK                         _______ _______ _______ _____ _____    ______ ____
ROOT
ATOM      1  N   UNL     1       2.926   8.030  17.953  0.00  0.00    +0.000 NA
ATOM      2  C   UNL     1       3.086   6.747  18.066  0.00  0.00    +0.000 A 
ATOM      3  O   UNL     1       2.297   5.975  18.909  0.00  0.00    +0.000 OA
ATOM      4  C   UNL     1       2.376   4.568  18.953  0.00  0.00    +0.000 A 
ATOM      5  C   UNL     1       1.462   3.873  19.742  0.00  0.00    +0.000 A 
ATOM      6  C   UNL     1       0.398   4.558  20.540  0.00  0.00    +0.000 C 
ATOM      7  N   UNL     1       1.467   2.523  19.811  0.00  0.00    +0.000 NA
ATOM      8  C   UNL     1       2.403   1.865  19.092  0.00  0.00    +0.000 A 
ATOM      9  C   UNL     1       3.362   2.476  18.280  0.00  0.00    +0.000 A 
ATOM     10  C   UNL     1       3.340   3.879  18.213  0.00  0.00    +0.000 A 
ATOM     11  C   UNL     1       4.258   4.683  17.414  0.00  0.00    +0.000 A 
ATOM     12  C   UNL     1       4.149   6.020  17.323  0.00  0.00    +0.000 A 
ENDROOT
BRANCH   1  17
ATOM     13  C   UNL     1       0.683   9.420  20.631  0.00  0.00    +0.000 A 
ATOM     14  C   UNL     1      -0.064  10.307  19.854  0.00  0.00    +0.000 A 
ATOM     15  C   UNL     1       0.191  10.437  18.493  0.00  0.00    +0.000 A 
ATOM     16  C   UNL     1       1.210   9.683  17.911  0.00  0.00    +0.000 A 
ATOM     17  C   UNL     1       1.983   8.791  18.669  0.00  0.00    +0.000 A 
ATOM     18  C   UNL     1       1.689   8.650  20.032  0.00  0.00    +0.000 A 
BRANCH  13  20
ATOM     19  C   UNL     1      -0.402  10.509  22.451  0.00  0.00    +0.000 C 
ATOM     20  O   UNL     1       0.312   9.390  21.948  0.00  0.00    +0.000 OA
ENDBRANCH  13  20
ENDBRANCH   1  17
BRANCH  12  21
ATOM     21  C   UNL     1       5.167   6.695  16.453  0.00  0.00    +0.000 C 
ATOM     22  N   UNL     1       6.202   7.311  17.075  0.00  0.00    +0.000 N 
ATOM     23  O   UNL     1       5.090   6.706  15.227  0.00  0.00    +0.000 OA
ATOM     24  H   UNL     1       6.279   7.333  18.091  0.00  0.00    +0.000 HD
ATOM     25  H   UNL     1       6.897   7.785  16.517  0.00  0.00    +0.000 HD
ENDBRANCH  12  21
BRANCH   9  26
ATOM     26  C   UNL     1       4.295   1.576  17.519  0.00  0.00    +0.000 C 
BRANCH  26  27
ATOM     27  O   UNL     1       4.474   0.352  18.219  0.00  0.00    +0.000 OA
ATOM     28  H   UNL     1       3.588   0.010  18.435  0.00  0.00    +0.000 HD
ENDBRANCH  26  27
ENDBRANCH   9  26
TORSDOF 5
ENDMDL
MODEL 5
REMARK VINA RESULT:      -6.3      2.476      7.145
REMARK  Name = 
REMARK  7 active torsions:
REMARK  status: ('A' for Active; 'I' for Inactive)
REMARK    1  A    between atoms: C_1  and  O_2
REMARK    2  A    between atoms: O_2  and  C_3
REMARK    3  A    between atoms: C_7  and  N_8
REMARK    4  A    between atoms: C_12  and  C_13
REMARK    5  A    between atoms: C_16  and  C_17
REMARK    6  A    between atoms: C_17  and  O_18
REMARK    7  A    between atoms: C_21  and  C_22
REMARK                            x       y       z     vdW  Elec       q    Type
REMARK                         _______ _______ _______ _____ _____    ______ ____
ROOT
ATOM      1  N   UNL     1       3.034   8.026  17.807  0.00  0.00    +0.000 NA
ATOM      2  C   UNL     1       3.148   6.745  17.978  0.00  0.00    +0.000 A 
ATOM      3  O   UNL     1       2.331   6.041  18.852  0.00  0.00    +0.000 OA
ATOM      4  C   UNL     1       2.359   4.635  18.961  0.00  0.00    +0.000 A 
ATOM      5  C   UNL     1       1.419   4.010  19.777  0.00  0.00    +0.000 A 
ATOM      6  C   UNL     1       0.378   4.768  20.539  0.00  0.00    +0.000 C 
ATOM      7  N   UNL     1       1.376   2.665  19.907  0.00  0.00    +0.000 NA
ATOM      8  C   UNL     1       2.289   1.942  19.222  0.00  0.00    +0.000 A 
ATOM      9  C   UNL     1       3.271   2.481  18.387  0.00  0.00    +0.000 A 
ATOM     10  C   UNL     1       3.299   3.880  18.257  0.00  0.00    +0.000 A 
ATOM     11  C   UNL     1       4.248   4.613  17.426  0.00  0.00    +0.000 A 
ATOM     12  C   UNL     1       4.186   5.947  17.273  0.00  0.00    +0.000 A 
ENDROOT
BRANCH   1  17
ATOM     13  C   UNL     1       0.780  10.862  18.813  0.00  0.00    +0.000 A 
ATOM     14  C   UNL     1       0.416  10.413  20.084  0.00  0.00    +0.000 A 
ATOM     15  C   UNL     1       0.900   9.203  20.568  0.00  0.00    +0.000 A 
ATOM     16  C   UNL     1       1.742   8.431  19.768  0.00  0.00    +0.000 A 
ATOM     17  C   UNL     1       2.118   8.852  18.483  0.00  0.00    +0.000 A 
ATOM     18  C   UNL     1       1.646  10.090  18.026  0.00  0.00    +0.000 A 
BRANCH  13  20
ATOM     19  C   UNL     1      -1.149  12.106  18.177  0.00  0.00    +0.000 C 
ATOM     20  O   UNL     1       0.238  12.072  18.476  0.00  0.00    +0.000 OA
ENDBRANCH  13  20
ENDBRANCH   1  17
BRANCH  12  21
ATOM     21  C   UNL     1       5.229   6.545  16.378  0.00  0.00    +0.000 C 
ATOM     22  N   UNL     1       6.225   7.249  16.970  0.00  0.00    +0.000 N 
ATOM     23  O   UNL     1       5.207   6.419  15.156  0.00  0.00    +0.000 OA
ATOM     24  H   UNL     1       6.256   7.385  17.980  0.00  0.00    +0.000 HD
ATOM     25  H   UNL     1       6.935   7.675  16.393  0.00  0.00    +0.000 HD
ENDBRANCH  12  21
BRANCH   9  26
ATOM     26  C   UNL     1       4.173   1.515  17.672  0.00  0.00    +0.000 C 
BRANCH  26  27
ATOM     27  O   UNL     1       4.456   0.399  18.507  0.00  0.00    +0.000 OA
ATOM     28  H   UNL     1       3.743   0.344  19.166  0.00  0.00    +0.000 HD
ENDBRANCH  26  27
ENDBRANCH   9  26
TORSDOF 5
ENDMDL
MODEL 6
REMARK VINA RESULT:      -6.3      4.323      7.435
REMARK  Name = 
REMARK  7 active torsions:
REMARK  status: ('A' for Active; 'I' for Inactive)
REMARK    1  A    between atoms: C_1  and  O_2
REMARK    2  A    between atoms: O_2  and  C_3
REMARK    3  A    between atoms: C_7  and  N_8
REMARK    4  A    between atoms: C_12  and  C_13
REMARK    5  A    between atoms: C_16  and  C_17
REMARK    6  A    between atoms: C_17  and  O_18
REMARK    7  A    between atoms: C_21  and  C_22
REMARK                            x       y       z     vdW  Elec       q    Type
REMARK                         _______ _______ _______ _____ _____    ______ ____
ROOT
ATOM      1  N   UNL     1       0.245  10.393  20.523  0.00  0.00    +0.000 NA
ATOM      2  C   UNL     1      -0.863  10.947  20.138  0.00  0.00    +0.000 A 
ATOM      3  O   UNL     1      -1.460  10.640  18.922  0.00  0.00    +0.000 OA
ATOM      4  C   UNL     1      -2.722  11.140  18.542  0.00  0.00    +0.000 A 
ATOM      5  C   UNL     1      -3.292  10.682  17.357  0.00  0.00    +0.000 A 
ATOM      6  C   UNL     1      -2.622   9.678  16.473  0.00  0.00    +0.000 C 
ATOM      7  N   UNL     1      -4.509  11.103  16.946  0.00  0.00    +0.000 NA
ATOM      8  C   UNL     1      -5.155  11.998  17.726  0.00  0.00    +0.000 A 
ATOM      9  C   UNL     1      -4.661  12.518  18.924  0.00  0.00    +0.000 A 
ATOM     10  C   UNL     1      -3.397  12.066  19.341  0.00  0.00    +0.000 A 
ATOM     11  C   UNL     1      -2.730  12.493  20.566  0.00  0.00    +0.000 A 
ATOM     12  C   UNL     1      -1.554  11.975  20.961  0.00  0.00    +0.000 A 
ENDROOT
BRANCH   1  17
ATOM     13  C   UNL     1       2.258   7.411  19.431  0.00  0.00    +0.000 A 
ATOM     14  C   UNL     1       2.583   7.827  18.137  0.00  0.00    +0.000 A 
ATOM     15  C   UNL     1       2.129   9.050  17.657  0.00  0.00    +0.000 A 
ATOM     16  C   UNL     1       1.333   9.855  18.472  0.00  0.00    +0.000 A 
ATOM     17  C   UNL     1       0.984   9.460  19.772  0.00  0.00    +0.000 A 
ATOM     18  C   UNL     1       1.478   8.238  20.250  0.00  0.00    +0.000 A 
BRANCH  13  20
ATOM     19  C   UNL     1       1.943   5.293  20.472  0.00  0.00    +0.000 C 
ATOM     20  O   UNL     1       2.784   6.194  19.770  0.00  0.00    +0.000 OA
ENDBRANCH  13  20
ENDBRANCH   1  17
BRANCH  12  21
ATOM     21  C   UNL     1      -1.008  12.517  22.248  0.00  0.00    +0.000 C 
ATOM     22  N   UNL     1      -0.443  13.749  22.211  0.00  0.00    +0.000 N 
ATOM     23  O   UNL     1      -1.054  11.892  23.304  0.00  0.00    +0.000 OA
ATOM     24  H   UNL     1      -0.374  14.280  21.344  0.00  0.00    +0.000 HD
ATOM     25  H   UNL     1      -0.055  14.136  23.059  0.00  0.00    +0.000 HD
ENDBRANCH  12  21
BRANCH   9  26
ATOM     26  C   UNL     1      -5.544  13.472  19.678  0.00  0.00    +0.000 C 
BRANCH  26  27
ATOM     27  O   UNL     1      -5.989  14.511  18.816  0.00  0.00    +0.000 OA
ATOM     28  H   UNL     1      -5.203  15.015  18.540  0.00  0.00    +0.000 HD
ENDBRANCH  26  27
ENDBRANCH   9  26
TORSDOF 5
ENDMDL
MODEL 7
REMARK VINA RESULT:      -6.3      5.937     11.053
REMARK  Name = 
REMARK  7 active torsions:
REMARK  status: ('A' for Active; 'I' for Inactive)
REMARK    1  A    between atoms: C_1  and  O_2
REMARK    2  A    between atoms: O_2  and  C_3
REMARK    3  A    between atoms: C_7  and  N_8
REMARK    4  A    between atoms: C_12  and  C_13
REMARK    5  A    between atoms: C_16  and  C_17
REMARK    6  A    between atoms: C_17  and  O_18
REMARK    7  A    between atoms: C_21  and  C_22
REMARK                            x       y       z     vdW  Elec       q    Type
REMARK                         _______ _______ _______ _____ _____    ______ ____
ROOT
ATOM      1  N   UNL     1      -4.661  11.806  18.349  0.00  0.00    +0.000 NA
ATOM      2  C   UNL     1      -3.409  11.529  18.545  0.00  0.00    +0.000 A 
ATOM      3  O   UNL     1      -2.767  11.819  19.742  0.00  0.00    +0.000 OA
ATOM      4  C   UNL     1      -1.443  11.416  20.017  0.00  0.00    +0.000 A 
ATOM      5  C   UNL     1      -0.925  11.648  21.289  0.00  0.00    +0.000 A 
ATOM      6  C   UNL     1      -1.717  12.303  22.376  0.00  0.00    +0.000 C 
ATOM      7  N   UNL     1       0.327  11.267  21.625  0.00  0.00    +0.000 NA
ATOM      8  C   UNL     1       1.070  10.657  20.675  0.00  0.00    +0.000 A 
ATOM      9  C   UNL     1       0.639  10.388  19.373  0.00  0.00    +0.000 A 
ATOM     10  C   UNL     1      -0.668  10.785  19.041  0.00  0.00    +0.000 A 
ATOM     11  C   UNL     1      -1.287  10.581  17.736  0.00  0.00    +0.000 A 
ATOM     12  C   UNL     1      -2.566  10.909  17.489  0.00  0.00    +0.000 A 
ENDROOT
BRANCH   1  17
ATOM     13  C   UNL     1      -6.663  12.681  21.409  0.00  0.00    +0.000 A 
ATOM     14  C   UNL     1      -7.352  13.789  20.911  0.00  0.00    +0.000 A 
ATOM     15  C   UNL     1      -7.137  14.224  19.609  0.00  0.00    +0.000 A 
ATOM     16  C   UNL     1      -6.215  13.554  18.804  0.00  0.00    +0.000 A 
ATOM     17  C   UNL     1      -5.501  12.444  19.280  0.00  0.00    +0.000 A 
ATOM     18  C   UNL     1      -5.756  12.001  20.585  0.00  0.00    +0.000 A 
BRANCH  13  20
ATOM     19  C   UNL     1      -6.174  12.908  23.729  0.00  0.00    +0.000 C 
ATOM     20  O   UNL     1      -6.985  12.363  22.700  0.00  0.00    +0.000 OA
ENDBRANCH  13  20
ENDBRANCH   1  17
BRANCH  12  21
ATOM     21  C   UNL     1      -3.050  10.626  16.098  0.00  0.00    +0.000 C 
ATOM     22  N   UNL     1      -3.732  11.613  15.466  0.00  0.00    +0.000 N 
ATOM     23  O   UNL     1      -2.853   9.554  15.532  0.00  0.00    +0.000 OA
ATOM     24  H   UNL     1      -3.926  12.504  15.920  0.00  0.00    +0.000 HD
ATOM     25  H   UNL     1      -4.082  11.448  14.534  0.00  0.00    +0.000 HD
ENDBRANCH  12  21
BRANCH   9  26
ATOM     26  C   UNL     1       1.591   9.661  18.468  0.00  0.00    +0.000 C 
BRANCH  26  27
ATOM     27  O   UNL     1       2.082  10.541  17.465  0.00  0.00    +0.000 OA
ATOM     28  H   UNL     1       2.008  10.078  16.612  0.00  0.00    +0.000 HD
ENDBRANCH  26  27
ENDBRANCH   9  26
TORSDOF 5
ENDMDL
MODEL 8
REMARK VINA RESULT:      -6.2      3.453      4.854
REMARK  Name = 
REMARK  7 active torsions:
REMARK  status: ('A' for Active; 'I' for Inactive)
REMARK    1  A    between atoms: C_1  and  O_2
REMARK    2  A    between atoms: O_2  and  C_3
REMARK    3  A    between atoms: C_7  and  N_8
REMARK    4  A    between atoms: C_12  and  C_13
REMARK    5  A    between atoms: C_16  and  C_17
REMARK    6  A    between atoms: C_17  and  O_18
REMARK    7  A    between atoms: C_21  and  C_22
REMARK                            x       y       z     vdW  Elec       q    Type
REMARK                         _______ _______ _______ _____ _____    ______ ____
ROOT
ATOM      1  N   UNL     1       7.017   4.974  16.339  0.00  0.00    +0.000 NA
ATOM      2  C   UNL     1       6.039   4.791  17.173  0.00  0.00    +0.000 A 
ATOM      3  O   UNL     1       4.804   4.302  16.768  0.00  0.00    +0.000 OA
ATOM      4  C   UNL     1       3.773   3.984  17.675  0.00  0.00    +0.000 A 
ATOM      5  C   UNL     1       2.614   3.387  17.186  0.00  0.00    +0.000 A 
ATOM      6  C   UNL     1       2.419   3.067  15.737  0.00  0.00    +0.000 C 
ATOM      7  N   UNL     1       1.597   3.035  18.004  0.00  0.00    +0.000 NA
ATOM      8  C   UNL     1       1.740   3.293  19.323  0.00  0.00    +0.000 A 
ATOM      9  C   UNL     1       2.861   3.892  19.903  0.00  0.00    +0.000 A 
ATOM     10  C   UNL     1       3.912   4.246  19.040  0.00  0.00    +0.000 A 
ATOM     11  C   UNL     1       5.157   4.873  19.469  0.00  0.00    +0.000 A 
ATOM     12  C   UNL     1       6.166   5.123  18.616  0.00  0.00    +0.000 A 
ENDROOT
BRANCH   1  17
ATOM     13  C   UNL     1       6.210   3.576  12.943  0.00  0.00    +0.000 A 
ATOM     14  C   UNL     1       7.103   4.329  12.178  0.00  0.00    +0.000 A 
ATOM     15  C   UNL     1       7.927   5.272  12.783  0.00  0.00    +0.000 A 
ATOM     16  C   UNL     1       7.844   5.472  14.160  0.00  0.00    +0.000 A 
ATOM     17  C   UNL     1       6.950   4.738  14.953  0.00  0.00    +0.000 A 
ATOM     18  C   UNL     1       6.151   3.769  14.330  0.00  0.00    +0.000 A 
BRANCH  13  20
ATOM     19  C   UNL     1       4.365   3.186  11.488  0.00  0.00    +0.000 C 
ATOM     20  O   UNL     1       5.474   2.681  12.215  0.00  0.00    +0.000 OA
ENDBRANCH  13  20
ENDBRANCH   1  17
BRANCH  12  21
ATOM     21  C   UNL     1       7.380   5.763  19.220  0.00  0.00    +0.000 C 
ATOM     22  N   UNL     1       7.953   6.780  18.529  0.00  0.00    +0.000 N 
ATOM     23  O   UNL     1       7.857   5.402  20.292  0.00  0.00    +0.000 OA
ATOM     24  H   UNL     1       7.589   7.086  17.628  0.00  0.00    +0.000 HD
ATOM     25  H   UNL     1       8.780   7.222  18.903  0.00  0.00    +0.000 HD
ENDBRANCH  12  21
BRANCH   9  26
ATOM     26  C   UNL     1       2.858   4.058  21.396  0.00  0.00    +0.000 C 
BRANCH  26  27
ATOM     27  O   UNL     1       2.170   2.974  22.008  0.00  0.00    +0.000 OA
ATOM     28  H   UNL     1       2.564   2.153  21.667  0.00  0.00    +0.000 HD
ENDBRANCH  26  27
ENDBRANCH   9  26
TORSDOF 5
ENDMDL
MODEL 9
REMARK VINA RESULT:      -6.2      5.830     11.283
REMARK  Name = 
REMARK  7 active torsions:
REMARK  status: ('A' for Active; 'I' for Inactive)
REMARK    1  A    between atoms: C_1  and  O_2
REMARK    2  A    between atoms: O_2  and  C_3
REMARK    3  A    between atoms: C_7  and  N_8
REMARK    4  A    between atoms: C_12  and  C_13
REMARK    5  A    between atoms: C_16  and  C_17
REMARK    6  A    between atoms: C_17  and  O_18
REMARK    7  A    between atoms: C_21  and  C_22
REMARK                            x       y       z     vdW  Elec       q    Type
REMARK                         _______ _______ _______ _____ _____    ______ ____
ROOT
ATOM      1  N   UNL     1      -4.626  12.405  19.020  0.00  0.00    +0.000 NA
ATOM      2  C   UNL     1      -3.413  11.943  19.029  0.00  0.00    +0.000 A 
ATOM      3  O   UNL     1      -2.584  12.064  20.137  0.00  0.00    +0.000 OA
ATOM      4  C   UNL     1      -1.310  11.464  20.208  0.00  0.00    +0.000 A 
ATOM      5  C   UNL     1      -0.602  11.541  21.405  0.00  0.00    +0.000 A 
ATOM      6  C   UNL     1      -1.139  12.230  22.618  0.00  0.00    +0.000 C 
ATOM      7  N   UNL     1       0.613  10.967  21.547  0.00  0.00    +0.000 NA
ATOM      8  C   UNL     1       1.127  10.320  20.478  0.00  0.00    +0.000 A 
ATOM      9  C   UNL     1       0.495  10.197  19.239  0.00  0.00    +0.000 A 
ATOM     10  C   UNL     1      -0.771  10.793  19.108  0.00  0.00    +0.000 A 
ATOM     11  C   UNL     1      -1.578  10.760  17.893  0.00  0.00    +0.000 A 
ATOM     12  C   UNL     1      -2.817  11.278  17.840  0.00  0.00    +0.000 A 
ENDROOT
BRANCH   1  17
ATOM     13  C   UNL     1      -6.315  13.292  22.259  0.00  0.00    +0.000 A 
ATOM     14  C   UNL     1      -6.581  14.640  22.007  0.00  0.00    +0.000 A 
ATOM     15  C   UNL     1      -6.193  15.220  20.805  0.00  0.00    +0.000 A 
ATOM     16  C   UNL     1      -5.522  14.449  19.855  0.00  0.00    +0.000 A 
ATOM     17  C   UNL     1      -5.234  13.095  20.085  0.00  0.00    +0.000 A 
ATOM     18  C   UNL     1      -5.662  12.520  21.289  0.00  0.00    +0.000 A 
BRANCH  13  20
ATOM     19  C   UNL     1      -7.872  11.969  23.485  0.00  0.00    +0.000 C 
ATOM     20  O   UNL     1      -6.765  12.857  23.476  0.00  0.00    +0.000 OA
ENDBRANCH  13  20
ENDBRANCH   1  17
BRANCH  12  21
ATOM     21  C   UNL     1      -3.515  11.154  16.519  0.00  0.00    +0.000 C 
ATOM     22  N   UNL     1      -4.869  11.088  16.537  0.00  0.00    +0.000 N 
ATOM     23  O   UNL     1      -2.911  11.108  15.451  0.00  0.00    +0.000 OA
ATOM     24  H   UNL     1      -5.393  11.103  17.411  0.00  0.00    +0.000 HD
ATOM     25  H   UNL     1      -5.367  10.990  15.664  0.00  0.00    +0.000 HD
ENDBRANCH  12  21
BRANCH   9  26
ATOM     26  C   UNL     1       1.203   9.401  18.180  0.00  0.00    +0.000 C 
BRANCH  26  27
ATOM     27  O   UNL     1       2.012  10.257  17.383  0.00  0.00    +0.000 OA
ATOM     28  H   UNL     1       2.940  10.055  17.592  0.00  0.00    +0.000 HD
ENDBRANCH  26  27
ENDBRANCH   9  26
TORSDOF 5
ENDMDL
