MODEL 1
REMARK VINA RESULT:      -7.3      0.000      0.000
REMARK  Name = 
REMARK  5 active torsions:
REMARK  status: ('A' for Active; 'I' for Inactive)
REMARK    1  A    between atoms: C_1  and  C_2
REMARK    2  A    between atoms: C_2  and  C_3
REMARK    3  A    between atoms: C_2  and  C_4
REMARK    4  A    between atoms: C_2  and  N_5
REMARK    5  A    between atoms: C_14  and  C_15
REMARK                            x       y       z     vdW  Elec       q    Type
REMARK                         _______ _______ _______ _____ _____    ______ ____
ROOT
ATOM      1  N   UNL     1       5.786   5.499  17.693  0.00  0.00    +0.000 N 
ATOM      2  N   UNL     1       6.182   4.543  18.565  0.00  0.00    +0.000 NA
ATOM      3  C   UNL     1       5.250   4.552  19.521  0.00  0.00    +0.000 A 
ATOM      4  C   UNL     1       4.251   5.518  19.289  0.00  0.00    +0.000 A 
ATOM      5  C   UNL     1       4.629   6.113  18.114  0.00  0.00    +0.000 A 
ATOM      6  N   UNL     1       3.889   7.120  17.549  0.00  0.00    +0.000 N 
ATOM      7  C   UNL     1       2.706   7.596  18.176  0.00  0.00    +0.000 C 
ATOM      8  O   UNL     1       2.122   8.484  17.570  0.00  0.00    +0.000 OA
ATOM      9  C   UNL     1       2.267   7.076  19.519  0.00  0.00    +0.000 C 
ATOM     10  C   UNL     1       3.036   5.869  20.066  0.00  0.00    +0.000 C 
ATOM     11  H   UNL     1       4.144   7.558  16.673  0.00  0.00    +0.000 HD
ENDROOT
BRANCH  10  12
ATOM     12  C   UNL     1       2.193   4.605  20.088  0.00  0.00    +0.000 A 
ATOM     13  C   UNL     1       1.982   3.871  21.268  0.00  0.00    +0.000 A 
ATOM     14  C   UNL     1       1.197   2.718  21.259  0.00  0.00    +0.000 A 
ATOM     15  C   UNL     1       0.616   2.279  20.072  0.00  0.00    +0.000 A 
ATOM     16  C   UNL     1       0.820   2.988  18.891  0.00  0.00    +0.000 A 
ATOM     17  C   UNL     1       1.604   4.145  18.898  0.00  0.00    +0.000 A 
ENDBRANCH  10  12
BRANCH   1  19
ATOM     18  C   UNL     1       5.685   6.000  15.239  0.00  0.00    +0.000 C 
ATOM     19  C   UNL     1       6.580   5.770  16.481  0.00  0.00    +0.000 C 
ATOM     20  C   UNL     1       7.490   4.565  16.177  0.00  0.00    +0.000 C 
ATOM     21  C   UNL     1       7.426   7.043  16.678  0.00  0.00    +0.000 C 
ENDBRANCH   1  19
TORSDOF 2
ENDMDL
MODEL 2
REMARK VINA RESULT:      -7.3      0.093      1.455
REMARK  Name = 
REMARK  5 active torsions:
REMARK  status: ('A' for Active; 'I' for Inactive)
REMARK    1  A    between atoms: C_1  and  C_2
REMARK    2  A    between atoms: C_2  and  C_3
REMARK    3  A    between atoms: C_2  and  C_4
REMARK    4  A    between atoms: C_2  and  N_5
REMARK    5  A    between atoms: C_14  and  C_15
REMARK                            x       y       z     vdW  Elec       q    Type
REMARK                         _______ _______ _______ _____ _____    ______ ____
ROOT
ATOM      1  N   UNL     1       5.796   5.514  17.659  0.00  0.00    +0.000 N 
ATOM      2  N   UNL     1       6.162   4.555  18.541  0.00  0.00    +0.000 NA
ATOM      3  C   UNL     1       5.213   4.579  19.479  0.00  0.00    +0.000 A 
ATOM      4  C   UNL     1       4.231   5.558  19.226  0.00  0.00    +0.000 A 
ATOM      5  C   UNL     1       4.639   6.144  18.058  0.00  0.00    +0.000 A 
ATOM      6  N   UNL     1       3.923   7.160  17.477  0.00  0.00    +0.000 N 
ATOM      7  C   UNL     1       2.736   7.655  18.081  0.00  0.00    +0.000 C 
ATOM      8  O   UNL     1       2.175   8.549  17.462  0.00  0.00    +0.000 OA
ATOM      9  C   UNL     1       2.266   7.144  19.417  0.00  0.00    +0.000 C 
ATOM     10  C   UNL     1       3.008   5.928  19.980  0.00  0.00    +0.000 C 
ATOM     11  H   UNL     1       4.201   7.593  16.605  0.00  0.00    +0.000 HD
ENDROOT
BRANCH  10  12
ATOM     12  C   UNL     1       2.147   4.676  19.990  0.00  0.00    +0.000 A 
ATOM     13  C   UNL     1       1.534   4.184  18.823  0.00  0.00    +0.000 A 
ATOM     14  C   UNL     1       0.755   3.028  18.862  0.00  0.00    +0.000 A 
ATOM     15  C   UNL     1       0.573   2.349  20.063  0.00  0.00    +0.000 A 
ATOM     16  C   UNL     1       1.165   2.825  21.230  0.00  0.00    +0.000 A 
ATOM     17  C   UNL     1       1.948   3.982  21.195  0.00  0.00    +0.000 A 
ENDBRANCH  10  12
BRANCH   1  19
ATOM     18  C   UNL     1       7.573   4.598  16.148  0.00  0.00    +0.000 C 
ATOM     19  C   UNL     1       6.614   5.771  16.461  0.00  0.00    +0.000 C 
ATOM     20  C   UNL     1       7.479   7.026  16.684  0.00  0.00    +0.000 C 
ATOM     21  C   UNL     1       5.706   5.961  15.231  0.00  0.00    +0.000 C 
ENDBRANCH   1  19
TORSDOF 2
ENDMDL
MODEL 3
REMARK VINA RESULT:      -6.6      2.420      5.963
REMARK  Name = 
REMARK  5 active torsions:
REMARK  status: ('A' for Active; 'I' for Inactive)
REMARK    1  A    between atoms: C_1  and  C_2
REMARK    2  A    between atoms: C_2  and  C_3
REMARK    3  A    between atoms: C_2  and  C_4
REMARK    4  A    between atoms: C_2  and  N_5
REMARK    5  A    between atoms: C_14  and  C_15
REMARK                            x       y       z     vdW  Elec       q    Type
REMARK                         _______ _______ _______ _____ _____    ______ ____
ROOT
ATOM      1  N   UNL     1       3.662   4.003  18.612  0.00  0.00    +0.000 N 
ATOM      2  N   UNL     1       4.224   4.224  19.822  0.00  0.00    +0.000 NA
ATOM      3  C   UNL     1       5.501   4.504  19.555  0.00  0.00    +0.000 A 
ATOM      4  C   UNL     1       5.785   4.456  18.175  0.00  0.00    +0.000 A 
ATOM      5  C   UNL     1       4.588   4.124  17.601  0.00  0.00    +0.000 A 
ATOM      6  N   UNL     1       4.458   3.984  16.242  0.00  0.00    +0.000 N 
ATOM      7  C   UNL     1       5.574   4.162  15.381  0.00  0.00    +0.000 C 
ATOM      8  O   UNL     1       5.333   4.028  14.189  0.00  0.00    +0.000 OA
ATOM      9  C   UNL     1       6.952   4.427  15.928  0.00  0.00    +0.000 C 
ATOM     10  C   UNL     1       7.045   4.703  17.431  0.00  0.00    +0.000 C 
ATOM     11  H   UNL     1       3.577   3.756  15.799  0.00  0.00    +0.000 HD
ENDROOT
BRANCH  10  12
ATOM     12  C   UNL     1       7.415   6.146  17.734  0.00  0.00    +0.000 A 
ATOM     13  C   UNL     1       8.271   6.488  18.796  0.00  0.00    +0.000 A 
ATOM     14  C   UNL     1       8.599   7.820  19.046  0.00  0.00    +0.000 A 
ATOM     15  C   UNL     1       8.073   8.830  18.244  0.00  0.00    +0.000 A 
ATOM     16  C   UNL     1       7.217   8.512  17.192  0.00  0.00    +0.000 A 
ATOM     17  C   UNL     1       6.889   7.177  16.938  0.00  0.00    +0.000 A 
ENDBRANCH  10  12
BRANCH   1  19
ATOM     18  C   UNL     1       1.512   3.758  19.877  0.00  0.00    +0.000 C 
ATOM     19  C   UNL     1       2.229   3.672  18.509  0.00  0.00    +0.000 C 
ATOM     20  C   UNL     1       2.067   2.230  17.993  0.00  0.00    +0.000 C 
ATOM     21  C   UNL     1       1.526   4.662  17.560  0.00  0.00    +0.000 C 
ENDBRANCH   1  19
TORSDOF 2
ENDMDL
MODEL 4
REMARK VINA RESULT:      -6.6      2.440      6.063
REMARK  Name = 
REMARK  5 active torsions:
REMARK  status: ('A' for Active; 'I' for Inactive)
REMARK    1  A    between atoms: C_1  and  C_2
REMARK    2  A    between atoms: C_2  and  C_3
REMARK    3  A    between atoms: C_2  and  C_4
REMARK    4  A    between atoms: C_2  and  N_5
REMARK    5  A    between atoms: C_14  and  C_15
REMARK                            x       y       z     vdW  Elec       q    Type
REMARK                         _______ _______ _______ _____ _____    ______ ____
ROOT
ATOM      1  N   UNL     1       3.609   4.108  18.652  0.00  0.00    +0.000 N 
ATOM      2  N   UNL     1       4.111   4.436  19.865  0.00  0.00    +0.000 NA
ATOM      3  C   UNL     1       5.396   4.710  19.636  0.00  0.00    +0.000 A 
ATOM      4  C   UNL     1       5.747   4.551  18.280  0.00  0.00    +0.000 A 
ATOM      5  C   UNL     1       4.581   4.157  17.680  0.00  0.00    +0.000 A 
ATOM      6  N   UNL     1       4.518   3.904  16.333  0.00  0.00    +0.000 N 
ATOM      7  C   UNL     1       5.672   4.025  15.513  0.00  0.00    +0.000 C 
ATOM      8  O   UNL     1       5.490   3.790  14.326  0.00  0.00    +0.000 OA
ATOM      9  C   UNL     1       7.020   4.353  16.100  0.00  0.00    +0.000 C 
ATOM     10  C   UNL     1       7.038   4.753  17.578  0.00  0.00    +0.000 C 
ATOM     11  H   UNL     1       3.662   3.628  15.869  0.00  0.00    +0.000 HD
ENDROOT
BRANCH  10  12
ATOM     12  C   UNL     1       7.380   6.221  17.777  0.00  0.00    +0.000 A 
ATOM     13  C   UNL     1       6.810   7.233  16.984  0.00  0.00    +0.000 A 
ATOM     14  C   UNL     1       7.137   8.572  17.195  0.00  0.00    +0.000 A 
ATOM     15  C   UNL     1       8.040   8.921  18.196  0.00  0.00    +0.000 A 
ATOM     16  C   UNL     1       8.621   7.932  18.986  0.00  0.00    +0.000 A 
ATOM     17  C   UNL     1       8.294   6.589  18.779  0.00  0.00    +0.000 A 
ENDBRANCH  10  12
BRANCH   1  19
ATOM     18  C   UNL     1       1.423   3.855  19.852  0.00  0.00    +0.000 C 
ATOM     19  C   UNL     1       2.186   3.751  18.510  0.00  0.00    +0.000 C 
ATOM     20  C   UNL     1       2.064   2.295  18.023  0.00  0.00    +0.000 C 
ATOM     21  C   UNL     1       1.499   4.706  17.516  0.00  0.00    +0.000 C 
ENDBRANCH   1  19
TORSDOF 2
ENDMDL
MODEL 5
REMARK VINA RESULT:      -6.5      2.412      6.060
REMARK  Name = 
REMARK  5 active torsions:
REMARK  status: ('A' for Active; 'I' for Inactive)
REMARK    1  A    between atoms: C_1  and  C_2
REMARK    2  A    between atoms: C_2  and  C_3
REMARK    3  A    between atoms: C_2  and  C_4
REMARK    4  A    between atoms: C_2  and  N_5
REMARK    5  A    between atoms: C_14  and  C_15
REMARK                            x       y       z     vdW  Elec       q    Type
REMARK                         _______ _______ _______ _____ _____    ______ ____
ROOT
ATOM      1  N   UNL     1       3.646   3.983  18.594  0.00  0.00    +0.000 N 
ATOM      2  N   UNL     1       4.239   4.167  19.795  0.00  0.00    +0.000 NA
ATOM      3  C   UNL     1       5.512   4.441  19.505  0.00  0.00    +0.000 A 
ATOM      4  C   UNL     1       5.763   4.425  18.118  0.00  0.00    +0.000 A 
ATOM      5  C   UNL     1       4.548   4.121  17.564  0.00  0.00    +0.000 A 
ATOM      6  N   UNL     1       4.385   4.018  16.206  0.00  0.00    +0.000 N 
ATOM      7  C   UNL     1       5.481   4.207  15.322  0.00  0.00    +0.000 C 
ATOM      8  O   UNL     1       5.210   4.107  14.134  0.00  0.00    +0.000 OA
ATOM      9  C   UNL     1       6.875   4.443  15.842  0.00  0.00    +0.000 C 
ATOM     10  C   UNL     1       7.007   4.679  17.350  0.00  0.00    +0.000 C 
ATOM     11  H   UNL     1       3.491   3.810  15.779  0.00  0.00    +0.000 HD
ENDROOT
BRANCH  10  12
ATOM     12  C   UNL     1       7.400   6.110  17.681  0.00  0.00    +0.000 A 
ATOM     13  C   UNL     1       6.977   7.199  16.898  0.00  0.00    +0.000 A 
ATOM     14  C   UNL     1       7.347   8.501  17.231  0.00  0.00    +0.000 A 
ATOM     15  C   UNL     1       8.148   8.736  18.346  0.00  0.00    +0.000 A 
ATOM     16  C   UNL     1       8.583   7.669  19.129  0.00  0.00    +0.000 A 
ATOM     17  C   UNL     1       8.212   6.363  18.799  0.00  0.00    +0.000 A 
ENDBRANCH  10  12
BRANCH   1  19
ATOM     18  C   UNL     1       1.951   2.233  18.003  0.00  0.00    +0.000 C 
ATOM     19  C   UNL     1       2.207   3.670  18.517  0.00  0.00    +0.000 C 
ATOM     20  C   UNL     1       1.518   4.640  17.539  0.00  0.00    +0.000 C 
ATOM     21  C   UNL     1       1.568   3.777  19.915  0.00  0.00    +0.000 C 
ENDBRANCH   1  19
TORSDOF 2
ENDMDL
MODEL 6
REMARK VINA RESULT:      -6.5      0.710      1.374
REMARK  Name = 
REMARK  5 active torsions:
REMARK  status: ('A' for Active; 'I' for Inactive)
REMARK    1  A    between atoms: C_1  and  C_2
REMARK    2  A    between atoms: C_2  and  C_3
REMARK    3  A    between atoms: C_2  and  C_4
REMARK    4  A    between atoms: C_2  and  N_5
REMARK    5  A    between atoms: C_14  and  C_15
REMARK                            x       y       z     vdW  Elec       q    Type
REMARK                         _______ _______ _______ _____ _____    ______ ____
ROOT
ATOM      1  N   UNL     1       5.364   5.270  17.127  0.00  0.00    +0.000 N 
ATOM      2  N   UNL     1       5.911   4.336  17.938  0.00  0.00    +0.000 NA
ATOM      3  C   UNL     1       5.217   4.427  19.074  0.00  0.00    +0.000 A 
ATOM      4  C   UNL     1       4.224   5.426  19.020  0.00  0.00    +0.000 A 
ATOM      5  C   UNL     1       4.351   5.952  17.762  0.00  0.00    +0.000 A 
ATOM      6  N   UNL     1       3.537   6.966  17.323  0.00  0.00    +0.000 N 
ATOM      7  C   UNL     1       2.541   7.521  18.171  0.00  0.00    +0.000 C 
ATOM      8  O   UNL     1       1.867   8.407  17.664  0.00  0.00    +0.000 OA
ATOM      9  C   UNL     1       2.396   7.078  19.603  0.00  0.00    +0.000 C 
ATOM     10  C   UNL     1       3.226   5.863  20.027  0.00  0.00    +0.000 C 
ATOM     11  H   UNL     1       3.606   7.355  16.391  0.00  0.00    +0.000 HD
ENDROOT
BRANCH  10  12
ATOM     12  C   UNL     1       2.367   4.640  20.300  0.00  0.00    +0.000 A 
ATOM     13  C   UNL     1       1.486   4.118  19.336  0.00  0.00    +0.000 A 
ATOM     14  C   UNL     1       0.715   2.989  19.613  0.00  0.00    +0.000 A 
ATOM     15  C   UNL     1       0.808   2.368  20.856  0.00  0.00    +0.000 A 
ATOM     16  C   UNL     1       1.669   2.875  21.826  0.00  0.00    +0.000 A 
ATOM     17  C   UNL     1       2.445   4.005  21.551  0.00  0.00    +0.000 A 
ENDBRANCH  10  12
BRANCH   1  19
ATOM     18  C   UNL     1       5.336   6.749  15.103  0.00  0.00    +0.000 C 
ATOM     19  C   UNL     1       5.875   5.454  15.757  0.00  0.00    +0.000 C 
ATOM     20  C   UNL     1       5.429   4.273  14.875  0.00  0.00    +0.000 C 
ATOM     21  C   UNL     1       7.413   5.555  15.776  0.00  0.00    +0.000 C 
ENDBRANCH   1  19
TORSDOF 2
ENDMDL
MODEL 7
REMARK VINA RESULT:      -6.5      1.829      5.455
REMARK  Name = 
REMARK  5 active torsions:
REMARK  status: ('A' for Active; 'I' for Inactive)
REMARK    1  A    between atoms: C_1  and  C_2
REMARK    2  A    between atoms: C_2  and  C_3
REMARK    3  A    between atoms: C_2  and  C_4
REMARK    4  A    between atoms: C_2  and  N_5
REMARK    5  A    between atoms: C_14  and  C_15
REMARK                            x       y       z     vdW  Elec       q    Type
REMARK                         _______ _______ _______ _____ _____    ______ ____
ROOT
ATOM      1  N   UNL     1       2.754   3.738  19.015  0.00  0.00    +0.000 N 
ATOM      2  N   UNL     1       3.756   2.930  18.597  0.00  0.00    +0.000 NA
ATOM      3  C   UNL     1       4.534   3.715  17.850  0.00  0.00    +0.000 A 
ATOM      4  C   UNL     1       4.042   5.033  17.763  0.00  0.00    +0.000 A 
ATOM      5  C   UNL     1       2.897   5.011  18.514  0.00  0.00    +0.000 A 
ATOM      6  N   UNL     1       2.124   6.133  18.676  0.00  0.00    +0.000 N 
ATOM      7  C   UNL     1       2.478   7.359  18.052  0.00  0.00    +0.000 C 
ATOM      8  O   UNL     1       1.723   8.293  18.283  0.00  0.00    +0.000 OA
ATOM      9  C   UNL     1       3.662   7.454  17.126  0.00  0.00    +0.000 C 
ATOM     10  C   UNL     1       4.576   6.228  17.063  0.00  0.00    +0.000 C 
ATOM     11  H   UNL     1       1.284   6.139  19.241  0.00  0.00    +0.000 HD
ENDROOT
BRANCH  10  12
ATOM     12  C   UNL     1       5.937   6.486  17.687  0.00  0.00    +0.000 A 
ATOM     13  C   UNL     1       6.487   5.628  18.657  0.00  0.00    +0.000 A 
ATOM     14  C   UNL     1       7.742   5.887  19.206  0.00  0.00    +0.000 A 
ATOM     15  C   UNL     1       8.465   7.006  18.801  0.00  0.00    +0.000 A 
ATOM     16  C   UNL     1       7.934   7.871  17.848  0.00  0.00    +0.000 A 
ATOM     17  C   UNL     1       6.677   7.613  17.293  0.00  0.00    +0.000 A 
ENDBRANCH  10  12
BRANCH   1  19
ATOM     18  C   UNL     1       0.829   4.338  20.504  0.00  0.00    +0.000 C 
ATOM     19  C   UNL     1       1.691   3.210  19.889  0.00  0.00    +0.000 C 
ATOM     20  C   UNL     1       2.321   2.424  21.054  0.00  0.00    +0.000 C 
ATOM     21  C   UNL     1       0.746   2.300  19.080  0.00  0.00    +0.000 C 
ENDBRANCH   1  19
TORSDOF 2
ENDMDL
MODEL 8
REMARK VINA RESULT:      -6.4      1.830      5.497
REMARK  Name = 
REMARK  5 active torsions:
REMARK  status: ('A' for Active; 'I' for Inactive)
REMARK    1  A    between atoms: C_1  and  C_2
REMARK    2  A    between atoms: C_2  and  C_3
REMARK    3  A    between atoms: C_2  and  C_4
REMARK    4  A    between atoms: C_2  and  N_5
REMARK    5  A    between atoms: C_14  and  C_15
REMARK                            x       y       z     vdW  Elec       q    Type
REMARK                         _______ _______ _______ _____ _____    ______ ____
ROOT
ATOM      1  N   UNL     1       2.733   3.751  18.953  0.00  0.00    +0.000 N 
ATOM      2  N   UNL     1       3.711   2.958  18.458  0.00  0.00    +0.000 NA
ATOM      3  C   UNL     1       4.482   3.778  17.743  0.00  0.00    +0.000 A 
ATOM      4  C   UNL     1       4.008   5.106  17.753  0.00  0.00    +0.000 A 
ATOM      5  C   UNL     1       2.882   5.051  18.530  0.00  0.00    +0.000 A 
ATOM      6  N   UNL     1       2.131   6.171  18.783  0.00  0.00    +0.000 N 
ATOM      7  C   UNL     1       2.487   7.430  18.230  0.00  0.00    +0.000 C 
ATOM      8  O   UNL     1       1.752   8.357  18.539  0.00  0.00    +0.000 OA
ATOM      9  C   UNL     1       3.649   7.568  17.281  0.00  0.00    +0.000 C 
ATOM     10  C   UNL     1       4.542   6.335  17.116  0.00  0.00    +0.000 C 
ATOM     11  H   UNL     1       1.305   6.152  19.369  0.00  0.00    +0.000 HD
ENDROOT
BRANCH  10  12
ATOM     12  C   UNL     1       5.923   6.534  17.720  0.00  0.00    +0.000 A 
ATOM     13  C   UNL     1       6.766   7.587  17.321  0.00  0.00    +0.000 A 
ATOM     14  C   UNL     1       8.025   7.748  17.899  0.00  0.00    +0.000 A 
ATOM     15  C   UNL     1       8.463   6.860  18.878  0.00  0.00    +0.000 A 
ATOM     16  C   UNL     1       7.645   5.807  19.280  0.00  0.00    +0.000 A 
ATOM     17  C   UNL     1       6.382   5.644  18.705  0.00  0.00    +0.000 A 
ENDBRANCH  10  12
BRANCH   1  19
ATOM     18  C   UNL     1       0.803   4.279  20.463  0.00  0.00    +0.000 C 
ATOM     19  C   UNL     1       1.684   3.182  19.818  0.00  0.00    +0.000 C 
ATOM     20  C   UNL     1       2.334   2.381  20.962  0.00  0.00    +0.000 C 
ATOM     21  C   UNL     1       0.752   2.274  18.992  0.00  0.00    +0.000 C 
ENDBRANCH   1  19
TORSDOF 2
ENDMDL
MODEL 9
REMARK VINA RESULT:      -6.4      2.426      5.931
REMARK  Name = 
REMARK  5 active torsions:
REMARK  status: ('A' for Active; 'I' for Inactive)
REMARK    1  A    between atoms: C_1  and  C_2
REMARK    2  A    between atoms: C_2  and  C_3
REMARK    3  A    between atoms: C_2  and  C_4
REMARK    4  A    between atoms: C_2  and  N_5
REMARK    5  A    between atoms: C_14  and  C_15
REMARK                            x       y       z     vdW  Elec       q    Type
REMARK                         _______ _______ _______ _____ _____    ______ ____
ROOT
ATOM      1  N   UNL     1       3.253   3.938  19.084  0.00  0.00    +0.000 N 
ATOM      2  N   UNL     1       2.412   4.150  18.046  0.00  0.00    +0.000 NA
ATOM      3  C   UNL     1       3.100   4.924  17.205  0.00  0.00    +0.000 A 
ATOM      4  C   UNL     1       4.386   5.234  17.690  0.00  0.00    +0.000 A 
ATOM      5  C   UNL     1       4.449   4.594  18.899  0.00  0.00    +0.000 A 
ATOM      6  N   UNL     1       5.570   4.657  19.687  0.00  0.00    +0.000 N 
ATOM      7  C   UNL     1       6.706   5.408  19.281  0.00  0.00    +0.000 C 
ATOM      8  O   UNL     1       7.651   5.376  20.057  0.00  0.00    +0.000 OA
ATOM      9  C   UNL     1       6.692   6.228  18.018  0.00  0.00    +0.000 C 
ATOM     10  C   UNL     1       5.483   6.041  17.098  0.00  0.00    +0.000 C 
ATOM     11  H   UNL     1       5.640   4.176  20.575  0.00  0.00    +0.000 HD
ENDROOT
BRANCH  10  12
ATOM     12  C   UNL     1       5.844   5.337  15.800  0.00  0.00    +0.000 A 
ATOM     13  C   UNL     1       4.940   4.490  15.135  0.00  0.00    +0.000 A 
ATOM     14  C   UNL     1       5.297   3.864  13.942  0.00  0.00    +0.000 A 
ATOM     15  C   UNL     1       6.562   4.069  13.397  0.00  0.00    +0.000 A 
ATOM     16  C   UNL     1       7.474   4.898  14.045  0.00  0.00    +0.000 A 
ATOM     17  C   UNL     1       7.118   5.529  15.241  0.00  0.00    +0.000 A 
ENDBRANCH  10  12
BRANCH   1  19
ATOM     18  C   UNL     1       1.643   2.180  19.857  0.00  0.00    +0.000 C 
ATOM     19  C   UNL     1       2.832   3.100  20.221  0.00  0.00    +0.000 C 
ATOM     20  C   UNL     1       2.380   3.999  21.387  0.00  0.00    +0.000 C 
ATOM     21  C   UNL     1       3.995   2.192  20.666  0.00  0.00    +0.000 C 
ENDBRANCH   1  19
TORSDOF 2
ENDMDL
