MODEL 1
REMARK VINA RESULT:      -6.9      0.000      0.000
REMARK  Name = 
REMARK  5 active torsions:
REMARK  status: ('A' for Active; 'I' for Inactive)
REMARK    1  A    between atoms: C_1  and  O_2
REMARK    2  A    between atoms: O_2  and  C_3
REMARK    3  A    between atoms: C_8  and  C_9
REMARK    4  A    between atoms: C_12  and  C_13
REMARK    5  A    between atoms: C_13  and  O_14
REMARK                            x       y       z     vdW  Elec       q    Type
REMARK                         _______ _______ _______ _____ _____    ______ ____
ROOT
ATOM      1  C   UNL     1       0.158   9.014  21.500  0.00  0.00    +0.000 A 
ATOM      2  C   UNL     1       0.184   9.935  20.446  0.00  0.00    +0.000 A 
ATOM      3  C   UNL     1       0.937   9.697  19.286  0.00  0.00    +0.000 A 
ATOM      4  C   UNL     1       1.657   8.508  19.248  0.00  0.00    +0.000 A 
ATOM      5  O   UNL     1       2.469   8.103  18.233  0.00  0.00    +0.000 OA
ATOM      6  C   UNL     1       2.985   6.885  18.586  0.00  0.00    +0.000 A 
ATOM      7  C   UNL     1       2.493   6.515  19.823  0.00  0.00    +0.000 A 
ATOM      8  C   UNL     1       1.647   7.563  20.264  0.00  0.00    +0.000 A 
ATOM      9  C   UNL     1       0.876   7.812  21.410  0.00  0.00    +0.000 A 
ENDROOT
BRANCH   6  10
ATOM     10  C   UNL     1       3.880   6.250  17.627  0.00  0.00    +0.000 A 
ATOM     11  C   UNL     1       4.749   7.001  16.826  0.00  0.00    +0.000 A 
ATOM     12  C   UNL     1       5.566   6.381  15.875  0.00  0.00    +0.000 A 
ATOM     13  C   UNL     1       5.545   4.989  15.710  0.00  0.00    +0.000 A 
ATOM     14  C   UNL     1       4.684   4.235  16.515  0.00  0.00    +0.000 A 
ATOM     15  C   UNL     1       3.875   4.857  17.469  0.00  0.00    +0.000 A 
BRANCH  13  16
ATOM     16  C   UNL     1       6.370   4.358  14.619  0.00  0.00    +0.000 C 
BRANCH  16  17
ATOM     17  O   UNL     1       7.527   5.124  14.315  0.00  0.00    +0.000 OA
ATOM     18  H   UNL     1       7.334   6.039  14.587  0.00  0.00    +0.000 HD
ENDBRANCH  16  17
ENDBRANCH  13  16
ENDBRANCH   6  10
BRANCH   1  20
ATOM     19  C   UNL     1      -0.874  10.496  23.042  0.00  0.00    +0.000 C 
ATOM     20  O   UNL     1      -0.531   9.166  22.674  0.00  0.00    +0.000 OA
ENDBRANCH   1  20
TORSDOF 4
ENDMDL
MODEL 2
REMARK VINA RESULT:      -6.9      0.590      1.250
REMARK  Name = 
REMARK  5 active torsions:
REMARK  status: ('A' for Active; 'I' for Inactive)
REMARK    1  A    between atoms: C_1  and  O_2
REMARK    2  A    between atoms: O_2  and  C_3
REMARK    3  A    between atoms: C_8  and  C_9
REMARK    4  A    between atoms: C_12  and  C_13
REMARK    5  A    between atoms: C_13  and  O_14
REMARK                            x       y       z     vdW  Elec       q    Type
REMARK                         _______ _______ _______ _____ _____    ______ ____
ROOT
ATOM      1  C   UNL     1       0.046   9.648  21.557  0.00  0.00    +0.000 A 
ATOM      2  C   UNL     1       0.069  10.454  20.413  0.00  0.00    +0.000 A 
ATOM      3  C   UNL     1       0.767  10.068  19.260  0.00  0.00    +0.000 A 
ATOM      4  C   UNL     1       1.439   8.852  19.320  0.00  0.00    +0.000 A 
ATOM      5  O   UNL     1       2.195   8.312  18.326  0.00  0.00    +0.000 OA
ATOM      6  C   UNL     1       2.676   7.115  18.784  0.00  0.00    +0.000 A 
ATOM      7  C   UNL     1       2.217   6.894  20.068  0.00  0.00    +0.000 A 
ATOM      8  C   UNL     1       1.430   8.016  20.427  0.00  0.00    +0.000 A 
ATOM      9  C   UNL     1       0.713   8.413  21.566  0.00  0.00    +0.000 A 
ENDROOT
BRANCH   6  10
ATOM     10  C   UNL     1       3.509   6.349  17.866  0.00  0.00    +0.000 A 
ATOM     11  C   UNL     1       3.402   4.956  17.766  0.00  0.00    +0.000 A 
ATOM     12  C   UNL     1       4.243   4.230  16.917  0.00  0.00    +0.000 A 
ATOM     13  C   UNL     1       5.205   4.881  16.134  0.00  0.00    +0.000 A 
ATOM     14  C   UNL     1       5.310   6.273  16.225  0.00  0.00    +0.000 A 
ATOM     15  C   UNL     1       4.463   6.997  17.068  0.00  0.00    +0.000 A 
BRANCH  13  16
ATOM     16  C   UNL     1       6.155   4.065  15.295  0.00  0.00    +0.000 C 
BRANCH  16  17
ATOM     17  O   UNL     1       7.416   4.703  15.146  0.00  0.00    +0.000 OA
ATOM     18  H   UNL     1       7.238   5.585  14.774  0.00  0.00    +0.000 HD
ENDBRANCH  16  17
ENDBRANCH  13  16
ENDBRANCH   6  10
BRANCH   1  20
ATOM     19  C   UNL     1      -1.063  11.281  22.876  0.00  0.00    +0.000 C 
ATOM     20  O   UNL     1      -0.592   9.947  22.731  0.00  0.00    +0.000 OA
ENDBRANCH   1  20
TORSDOF 4
ENDMDL
MODEL 3
REMARK VINA RESULT:      -6.8      1.215      1.844
REMARK  Name = 
REMARK  5 active torsions:
REMARK  status: ('A' for Active; 'I' for Inactive)
REMARK    1  A    between atoms: C_1  and  O_2
REMARK    2  A    between atoms: O_2  and  C_3
REMARK    3  A    between atoms: C_8  and  C_9
REMARK    4  A    between atoms: C_12  and  C_13
REMARK    5  A    between atoms: C_13  and  O_14
REMARK                            x       y       z     vdW  Elec       q    Type
REMARK                         _______ _______ _______ _____ _____    ______ ____
ROOT
ATOM      1  C   UNL     1       0.043  10.256  20.505  0.00  0.00    +0.000 A 
ATOM      2  C   UNL     1       0.314   9.305  21.496  0.00  0.00    +0.000 A 
ATOM      3  C   UNL     1       1.150   8.207  21.247  0.00  0.00    +0.000 A 
ATOM      4  C   UNL     1       1.683   8.112  19.967  0.00  0.00    +0.000 A 
ATOM      5  O   UNL     1       2.490   7.114  19.513  0.00  0.00    +0.000 OA
ATOM      6  C   UNL     1       2.792   7.395  18.208  0.00  0.00    +0.000 A 
ATOM      7  C   UNL     1       2.181   8.577  17.837  0.00  0.00    +0.000 A 
ATOM      8  C   UNL     1       1.452   9.039  18.961  0.00  0.00    +0.000 A 
ATOM      9  C   UNL     1       0.624  10.139  19.233  0.00  0.00    +0.000 A 
ENDROOT
BRANCH   6  10
ATOM     10  C   UNL     1       3.667   6.454  17.521  0.00  0.00    +0.000 A 
ATOM     11  C   UNL     1       4.717   6.891  16.703  0.00  0.00    +0.000 A 
ATOM     12  C   UNL     1       5.517   5.976  16.011  0.00  0.00    +0.000 A 
ATOM     13  C   UNL     1       5.295   4.597  16.130  0.00  0.00    +0.000 A 
ATOM     14  C   UNL     1       4.252   4.157  16.952  0.00  0.00    +0.000 A 
ATOM     15  C   UNL     1       3.460   5.073  17.648  0.00  0.00    +0.000 A 
BRANCH  13  16
ATOM     16  C   UNL     1       6.115   3.640  15.304  0.00  0.00    +0.000 C 
BRANCH  16  17
ATOM     17  O   UNL     1       6.263   4.084  13.963  0.00  0.00    +0.000 OA
ATOM     18  H   UNL     1       6.252   5.056  13.990  0.00  0.00    +0.000 HD
ENDBRANCH  16  17
ENDBRANCH  13  16
ENDBRANCH   6  10
BRANCH   1  20
ATOM     19  C   UNL     1      -1.603  11.671  19.542  0.00  0.00    +0.000 C 
ATOM     20  O   UNL     1      -0.771  11.348  20.649  0.00  0.00    +0.000 OA
ENDBRANCH   1  20
TORSDOF 4
ENDMDL
MODEL 4
REMARK VINA RESULT:      -6.7      1.313      2.134
REMARK  Name = 
REMARK  5 active torsions:
REMARK  status: ('A' for Active; 'I' for Inactive)
REMARK    1  A    between atoms: C_1  and  O_2
REMARK    2  A    between atoms: O_2  and  C_3
REMARK    3  A    between atoms: C_8  and  C_9
REMARK    4  A    between atoms: C_12  and  C_13
REMARK    5  A    between atoms: C_13  and  O_14
REMARK                            x       y       z     vdW  Elec       q    Type
REMARK                         _______ _______ _______ _____ _____    ______ ____
ROOT
ATOM      1  C   UNL     1      -0.229  10.372  20.663  0.00  0.00    +0.000 A 
ATOM      2  C   UNL     1       0.124   9.466  21.670  0.00  0.00    +0.000 A 
ATOM      3  C   UNL     1       1.016   8.412  21.427  0.00  0.00    +0.000 A 
ATOM      4  C   UNL     1       1.520   8.312  20.134  0.00  0.00    +0.000 A 
ATOM      5  O   UNL     1       2.371   7.350  19.685  0.00  0.00    +0.000 OA
ATOM      6  C   UNL     1       2.621   7.612  18.364  0.00  0.00    +0.000 A 
ATOM      7  C   UNL     1       1.932   8.746  17.980  0.00  0.00    +0.000 A 
ATOM      8  C   UNL     1       1.208   9.196  19.111  0.00  0.00    +0.000 A 
ATOM      9  C   UNL     1       0.324  10.253  19.378  0.00  0.00    +0.000 A 
ENDROOT
BRANCH   6  10
ATOM     10  C   UNL     1       3.531   6.705  17.678  0.00  0.00    +0.000 A 
ATOM     11  C   UNL     1       3.364   5.315  17.735  0.00  0.00    +0.000 A 
ATOM     12  C   UNL     1       4.275   4.456  17.112  0.00  0.00    +0.000 A 
ATOM     13  C   UNL     1       5.371   4.966  16.402  0.00  0.00    +0.000 A 
ATOM     14  C   UNL     1       5.536   6.354  16.336  0.00  0.00    +0.000 A 
ATOM     15  C   UNL     1       4.620   7.210  16.953  0.00  0.00    +0.000 A 
BRANCH  13  16
ATOM     16  C   UNL     1       6.383   4.016  15.817  0.00  0.00    +0.000 C 
BRANCH  16  17
ATOM     17  O   UNL     1       7.715   4.391  16.138  0.00  0.00    +0.000 OA
ATOM     18  H   UNL     1       7.675   5.311  16.453  0.00  0.00    +0.000 HD
ENDBRANCH  16  17
ENDBRANCH  13  16
ENDBRANCH   6  10
BRANCH   1  20
ATOM     19  C   UNL     1      -0.526  12.700  21.025  0.00  0.00    +0.000 C 
ATOM     20  O   UNL     1      -1.101  11.418  20.801  0.00  0.00    +0.000 OA
ENDBRANCH   1  20
TORSDOF 4
ENDMDL
MODEL 5
REMARK VINA RESULT:      -6.7      1.163      7.716
REMARK  Name = 
REMARK  5 active torsions:
REMARK  status: ('A' for Active; 'I' for Inactive)
REMARK    1  A    between atoms: C_1  and  O_2
REMARK    2  A    between atoms: O_2  and  C_3
REMARK    3  A    between atoms: C_8  and  C_9
REMARK    4  A    between atoms: C_12  and  C_13
REMARK    5  A    between atoms: C_13  and  O_14
REMARK                            x       y       z     vdW  Elec       q    Type
REMARK                         _______ _______ _______ _____ _____    ______ ____
ROOT
ATOM      1  C   UNL     1       5.188   4.167  16.304  0.00  0.00    +0.000 A 
ATOM      2  C   UNL     1       4.206   3.320  16.830  0.00  0.00    +0.000 A 
ATOM      3  C   UNL     1       3.163   3.815  17.627  0.00  0.00    +0.000 A 
ATOM      4  C   UNL     1       3.167   5.184  17.872  0.00  0.00    +0.000 A 
ATOM      5  O   UNL     1       2.267   5.856  18.641  0.00  0.00    +0.000 OA
ATOM      6  C   UNL     1       2.623   7.178  18.623  0.00  0.00    +0.000 A 
ATOM      7  C   UNL     1       3.746   7.343  17.835  0.00  0.00    +0.000 A 
ATOM      8  C   UNL     1       4.112   6.060  17.359  0.00  0.00    +0.000 A 
ATOM      9  C   UNL     1       5.139   5.548  16.551  0.00  0.00    +0.000 A 
ENDROOT
BRANCH   6  10
ATOM     10  C   UNL     1       1.778   8.094  19.377  0.00  0.00    +0.000 A 
ATOM     11  C   UNL     1       1.279   9.272  18.805  0.00  0.00    +0.000 A 
ATOM     12  C   UNL     1       0.510  10.165  19.557  0.00  0.00    +0.000 A 
ATOM     13  C   UNL     1       0.207   9.898  20.899  0.00  0.00    +0.000 A 
ATOM     14  C   UNL     1       0.697   8.718  21.471  0.00  0.00    +0.000 A 
ATOM     15  C   UNL     1       1.458   7.823  20.715  0.00  0.00    +0.000 A 
BRANCH  13  16
ATOM     16  C   UNL     1      -0.548  10.920  21.709  0.00  0.00    +0.000 C 
BRANCH  16  17
ATOM     17  O   UNL     1      -0.160  10.910  23.075  0.00  0.00    +0.000 OA
ATOM     18  H   UNL     1      -0.418  10.041  23.430  0.00  0.00    +0.000 HD
ENDBRANCH  16  17
ENDBRANCH  13  16
ENDBRANCH   6  10
BRANCH   1  20
ATOM     19  C   UNL     1       6.762   4.739  14.620  0.00  0.00    +0.000 C 
ATOM     20  O   UNL     1       6.249   3.775  15.533  0.00  0.00    +0.000 OA
ENDBRANCH   1  20
TORSDOF 4
ENDMDL
MODEL 6
REMARK VINA RESULT:      -6.6      1.275      7.805
REMARK  Name = 
REMARK  5 active torsions:
REMARK  status: ('A' for Active; 'I' for Inactive)
REMARK    1  A    between atoms: C_1  and  O_2
REMARK    2  A    between atoms: O_2  and  C_3
REMARK    3  A    between atoms: C_8  and  C_9
REMARK    4  A    between atoms: C_12  and  C_13
REMARK    5  A    between atoms: C_13  and  O_14
REMARK                            x       y       z     vdW  Elec       q    Type
REMARK                         _______ _______ _______ _____ _____    ______ ____
ROOT
ATOM      1  C   UNL     1       4.764   4.236  16.620  0.00  0.00    +0.000 A 
ATOM      2  C   UNL     1       4.100   3.416  17.540  0.00  0.00    +0.000 A 
ATOM      3  C   UNL     1       3.229   3.951  18.500  0.00  0.00    +0.000 A 
ATOM      4  C   UNL     1       3.070   5.332  18.492  0.00  0.00    +0.000 A 
ATOM      5  O   UNL     1       2.297   6.049  19.354  0.00  0.00    +0.000 OA
ATOM      6  C   UNL     1       2.415   7.368  19.007  0.00  0.00    +0.000 A 
ATOM      7  C   UNL     1       3.259   7.485  17.918  0.00  0.00    +0.000 A 
ATOM      8  C   UNL     1       3.697   6.178  17.589  0.00  0.00    +0.000 A 
ATOM      9  C   UNL     1       4.554   5.623  16.627  0.00  0.00    +0.000 A 
ENDROOT
BRANCH   6  10
ATOM     10  C   UNL     1       1.651   8.324  19.796  0.00  0.00    +0.000 A 
ATOM     11  C   UNL     1       1.367   8.097  21.149  0.00  0.00    +0.000 A 
ATOM     12  C   UNL     1       0.590   9.001  21.881  0.00  0.00    +0.000 A 
ATOM     13  C   UNL     1       0.087  10.164  21.281  0.00  0.00    +0.000 A 
ATOM     14  C   UNL     1       0.377  10.397  19.932  0.00  0.00    +0.000 A 
ATOM     15  C   UNL     1       1.160   9.497  19.206  0.00  0.00    +0.000 A 
BRANCH  13  16
ATOM     16  C   UNL     1      -0.819  11.073  22.069  0.00  0.00    +0.000 C 
BRANCH  16  17
ATOM     17  O   UNL     1      -0.855  10.727  23.446  0.00  0.00    +0.000 OA
ATOM     18  H   UNL     1       0.019  10.949  23.811  0.00  0.00    +0.000 HD
ENDBRANCH  16  17
ENDBRANCH  13  16
ENDBRANCH   6  10
BRANCH   1  20
ATOM     19  C   UNL     1       6.905   4.463  15.619  0.00  0.00    +0.000 C 
ATOM     20  O   UNL     1       5.643   3.809  15.661  0.00  0.00    +0.000 OA
ENDBRANCH   1  20
TORSDOF 4
ENDMDL
MODEL 7
REMARK VINA RESULT:      -6.6      5.936      8.441
REMARK  Name = 
REMARK  5 active torsions:
REMARK  status: ('A' for Active; 'I' for Inactive)
REMARK    1  A    between atoms: C_1  and  O_2
REMARK    2  A    between atoms: O_2  and  C_3
REMARK    3  A    between atoms: C_8  and  C_9
REMARK    4  A    between atoms: C_12  and  C_13
REMARK    5  A    between atoms: C_13  and  O_14
REMARK                            x       y       z     vdW  Elec       q    Type
REMARK                         _______ _______ _______ _____ _____    ______ ____
ROOT
ATOM      1  C   UNL     1       6.188   5.271  17.138  0.00  0.00    +0.000 A 
ATOM      2  C   UNL     1       7.010   4.773  18.156  0.00  0.00    +0.000 A 
ATOM      3  C   UNL     1       7.901   5.606  18.848  0.00  0.00    +0.000 A 
ATOM      4  C   UNL     1       7.928   6.942  18.462  0.00  0.00    +0.000 A 
ATOM      5  O   UNL     1       8.738   7.904  18.984  0.00  0.00    +0.000 OA
ATOM      6  C   UNL     1       8.452   9.074  18.333  0.00  0.00    +0.000 A 
ATOM      7  C   UNL     1       7.454   8.853  17.403  0.00  0.00    +0.000 A 
ATOM      8  C   UNL     1       7.120   7.478  17.470  0.00  0.00    +0.000 A 
ATOM      9  C   UNL     1       6.225   6.632  16.798  0.00  0.00    +0.000 A 
ENDROOT
BRANCH   6  10
ATOM     10  C   UNL     1       9.200  10.253  18.747  0.00  0.00    +0.000 A 
ATOM     11  C   UNL     1       9.802  11.107  17.814  0.00  0.00    +0.000 A 
ATOM     12  C   UNL     1      10.558  12.207  18.229  0.00  0.00    +0.000 A 
ATOM     13  C   UNL     1      10.722  12.491  19.592  0.00  0.00    +0.000 A 
ATOM     14  C   UNL     1      10.115  11.646  20.527  0.00  0.00    +0.000 A 
ATOM     15  C   UNL     1       9.353  10.552  20.109  0.00  0.00    +0.000 A 
BRANCH  13  16
ATOM     16  C   UNL     1      11.614  13.630  20.011  0.00  0.00    +0.000 C 
BRANCH  16  17
ATOM     17  O   UNL     1      11.594  14.696  19.072  0.00  0.00    +0.000 OA
ATOM     18  H   UNL     1      12.281  15.325  19.352  0.00  0.00    +0.000 HD
ENDBRANCH  16  17
ENDBRANCH  13  16
ENDBRANCH   6  10
BRANCH   1  20
ATOM     19  C   UNL     1       4.398   3.710  17.123  0.00  0.00    +0.000 C 
ATOM     20  O   UNL     1       5.302   4.535  16.397  0.00  0.00    +0.000 OA
ENDBRANCH   1  20
TORSDOF 4
ENDMDL
MODEL 8
REMARK VINA RESULT:      -6.6      1.303      1.987
REMARK  Name = 
REMARK  5 active torsions:
REMARK  status: ('A' for Active; 'I' for Inactive)
REMARK    1  A    between atoms: C_1  and  O_2
REMARK    2  A    between atoms: O_2  and  C_3
REMARK    3  A    between atoms: C_8  and  C_9
REMARK    4  A    between atoms: C_12  and  C_13
REMARK    5  A    between atoms: C_13  and  O_14
REMARK                            x       y       z     vdW  Elec       q    Type
REMARK                         _______ _______ _______ _____ _____    ______ ____
ROOT
ATOM      1  C   UNL     1      -0.353  10.278  22.215  0.00  0.00    +0.000 A 
ATOM      2  C   UNL     1      -0.200  11.111  21.100  0.00  0.00    +0.000 A 
ATOM      3  C   UNL     1       0.514  10.692  19.968  0.00  0.00    +0.000 A 
ATOM      4  C   UNL     1       1.066   9.417  20.020  0.00  0.00    +0.000 A 
ATOM      5  O   UNL     1       1.816   8.835  19.044  0.00  0.00    +0.000 OA
ATOM      6  C   UNL     1       2.161   7.586  19.485  0.00  0.00    +0.000 A 
ATOM      7  C   UNL     1       1.621   7.374  20.740  0.00  0.00    +0.000 A 
ATOM      8  C   UNL     1       0.925   8.556  21.098  0.00  0.00    +0.000 A 
ATOM      9  C   UNL     1       0.195   8.986  22.216  0.00  0.00    +0.000 A 
ENDROOT
BRANCH   6  10
ATOM     10  C   UNL     1       2.962   6.770  18.583  0.00  0.00    +0.000 A 
ATOM     11  C   UNL     1       3.025   5.377  18.713  0.00  0.00    +0.000 A 
ATOM     12  C   UNL     1       3.838   4.613  17.869  0.00  0.00    +0.000 A 
ATOM     13  C   UNL     1       4.600   5.222  16.863  0.00  0.00    +0.000 A 
ATOM     14  C   UNL     1       4.533   6.613  16.725  0.00  0.00    +0.000 A 
ATOM     15  C   UNL     1       3.714   7.373  17.564  0.00  0.00    +0.000 A 
BRANCH  13  16
ATOM     16  C   UNL     1       5.532   4.384  16.028  0.00  0.00    +0.000 C 
BRANCH  16  17
ATOM     17  O   UNL     1       5.498   3.015  16.403  0.00  0.00    +0.000 OA
ATOM     18  H   UNL     1       5.742   2.504  15.611  0.00  0.00    +0.000 HD
ENDBRANCH  16  17
ENDBRANCH  13  16
ENDBRANCH   6  10
BRANCH   1  20
ATOM     19  C   UNL     1      -1.960  11.664  23.281  0.00  0.00    +0.000 C 
ATOM     20  O   UNL     1      -1.016  10.604  23.368  0.00  0.00    +0.000 OA
ENDBRANCH   1  20
TORSDOF 4
ENDMDL
MODEL 9
REMARK VINA RESULT:      -6.4      1.440      7.735
REMARK  Name = 
REMARK  5 active torsions:
REMARK  status: ('A' for Active; 'I' for Inactive)
REMARK    1  A    between atoms: C_1  and  O_2
REMARK    2  A    between atoms: O_2  and  C_3
REMARK    3  A    between atoms: C_8  and  C_9
REMARK    4  A    between atoms: C_12  and  C_13
REMARK    5  A    between atoms: C_13  and  O_14
REMARK                            x       y       z     vdW  Elec       q    Type
REMARK                         _______ _______ _______ _____ _____    ______ ____
ROOT
ATOM      1  C   UNL     1       5.140   4.197  16.334  0.00  0.00    +0.000 A 
ATOM      2  C   UNL     1       4.282   3.391  17.091  0.00  0.00    +0.000 A 
ATOM      3  C   UNL     1       3.299   3.949  17.922  0.00  0.00    +0.000 A 
ATOM      4  C   UNL     1       3.233   5.338  17.958  0.00  0.00    +0.000 A 
ATOM      5  O   UNL     1       2.376   6.073  18.717  0.00  0.00    +0.000 OA
ATOM      6  C   UNL     1       2.635   7.393  18.461  0.00  0.00    +0.000 A 
ATOM      7  C   UNL     1       3.653   7.492  17.532  0.00  0.00    +0.000 A 
ATOM      8  C   UNL     1       4.054   6.171  17.213  0.00  0.00    +0.000 A 
ATOM      9  C   UNL     1       5.022   5.594  16.376  0.00  0.00    +0.000 A 
ENDROOT
BRANCH   6  10
ATOM     10  C   UNL     1       1.813   8.370  19.163  0.00  0.00    +0.000 A 
ATOM     11  C   UNL     1       1.504   8.228  20.522  0.00  0.00    +0.000 A 
ATOM     12  C   UNL     1       0.674   9.148  21.170  0.00  0.00    +0.000 A 
ATOM     13  C   UNL     1       0.140  10.244  20.477  0.00  0.00    +0.000 A 
ATOM     14  C   UNL     1       0.453  10.393  19.122  0.00  0.00    +0.000 A 
ATOM     15  C   UNL     1       1.290   9.477  18.479  0.00  0.00    +0.000 A 
BRANCH  13  16
ATOM     16  C   UNL     1      -0.822  11.168  21.178  0.00  0.00    +0.000 C 
BRANCH  16  17
ATOM     17  O   UNL     1      -1.705  11.807  20.268  0.00  0.00    +0.000 OA
ATOM     18  H   UNL     1      -2.014  12.619  20.705  0.00  0.00    +0.000 HD
ENDBRANCH  16  17
ENDBRANCH  13  16
ENDBRANCH   6  10
BRANCH   1  20
ATOM     19  C   UNL     1       6.979   4.734  14.930  0.00  0.00    +0.000 C 
ATOM     20  O   UNL     1       6.137   3.746  15.511  0.00  0.00    +0.000 OA
ENDBRANCH   1  20
TORSDOF 4
ENDMDL
