MODEL 1
REMARK VINA RESULT:      -6.9      0.000      0.000
REMARK  Name = 
REMARK  8 active torsions:
REMARK  status: ('A' for Active; 'I' for Inactive)
REMARK    1  A    between atoms: C_1  and  C_2
REMARK    2  A    between atoms: C_2  and  C_3
REMARK    3  A    between atoms: C_3  and  C_4
REMARK    4  A    between atoms: C_4  and  N_5
REMARK    5  A    between atoms: C_10  and  C_11
REMARK    6  A    between atoms: N_13  and  C_14
REMARK    7  A    between atoms: C_14  and  C_15
REMARK    8  A    between atoms: C_23  and  C_24
REMARK                            x       y       z     vdW  Elec       q    Type
REMARK                         _______ _______ _______ _____ _____    ______ ____
ROOT
ATOM      1  N   UNL     1       1.287   9.078  18.261  0.00  0.00    +0.000 N 
ATOM      2  C   UNL     1       1.388  10.441  18.338  0.00  0.00    +0.000 C 
ATOM      3  O   UNL     1       2.445  11.013  18.142  0.00  0.00    +0.000 OA
ATOM      4  N   UNL     1       0.208  11.120  18.615  0.00  0.00    +0.000 N 
ATOM      5  C   UNL     1       0.249  12.562  18.541  0.00  0.00    +0.000 C 
ATOM      6  C   UNL     1      -0.072  13.277  19.868  0.00  0.00    +0.000 C 
ATOM      7  C   UNL     1      -1.273  12.684  20.596  0.00  0.00    +0.000 C 
ATOM      8  C   UNL     1      -1.259  11.159  20.562  0.00  0.00    +0.000 C 
ATOM      9  C   UNL     1      -1.050  10.573  19.148  0.00  0.00    +0.000 C 
ATOM     10  H   UNL     1       0.425   8.762  17.843  0.00  0.00    +0.000 HD
ENDROOT
BRANCH   9  11
ATOM     11  C   UNL     1      -2.230  10.793  18.195  0.00  0.00    +0.000 A 
ATOM     12  C   UNL     1      -3.381  11.495  18.600  0.00  0.00    +0.000 A 
ATOM     13  C   UNL     1      -4.464  11.672  17.736  0.00  0.00    +0.000 A 
ATOM     14  C   UNL     1      -4.411  11.178  16.437  0.00  0.00    +0.000 A 
ATOM     15  C   UNL     1      -3.273  10.512  16.000  0.00  0.00    +0.000 A 
ATOM     16  C   UNL     1      -2.193  10.328  16.866  0.00  0.00    +0.000 A 
ENDBRANCH   9  11
BRANCH   6  17
ATOM     17  C   UNL     1       1.182  13.339  20.736  0.00  0.00    +0.000 C 
ATOM     18  O   UNL     1       1.682  12.367  21.293  0.00  0.00    +0.000 OA
ATOM     19  N   UNL     1       1.712  14.598  20.912  0.00  0.00    +0.000 N 
ATOM     20  H   UNL     1       2.600  14.627  21.400  0.00  0.00    +0.000 HD
BRANCH  19  21
ATOM     21  C   UNL     1       1.178  15.805  20.332  0.00  0.00    +0.000 C 
BRANCH  21  22
ATOM     22  C   UNL     1       1.810  16.165  19.055  0.00  0.00    +0.000 A 
ATOM     23  C   UNL     1       2.866  15.427  18.527  0.00  0.00    +0.000 A 
ATOM     24  C   UNL     1       3.457  15.855  17.357  0.00  0.00    +0.000 A 
ATOM     25  C   UNL     1       2.978  17.027  16.787  0.00  0.00    +0.000 A 
ATOM     26  N   UNL     1       1.995  17.796  17.308  0.00  0.00    +0.000 NA
ATOM     27  C   UNL     1       1.433  17.351  18.439  0.00  0.00    +0.000 A 
ENDBRANCH  21  22
ENDBRANCH  19  21
ENDBRANCH   6  17
BRANCH   1  28
ATOM     28  C   UNL     1       2.488   8.340  17.896  0.00  0.00    +0.000 C 
BRANCH  28  29
ATOM     29  C   UNL     1       2.694   7.092  18.743  0.00  0.00    +0.000 C 
BRANCH  29  31
ATOM     30  C   UNL     1       2.007   4.809  17.909  0.00  0.00    +0.000 C 
ATOM     31  C   UNL     1       3.074   5.892  17.870  0.00  0.00    +0.000 C 
ENDBRANCH  29  31
ENDBRANCH  28  29
ENDBRANCH   1  28
TORSDOF 7
ENDMDL
MODEL 2
REMARK VINA RESULT:      -6.9      0.452      1.127
REMARK  Name = 
REMARK  8 active torsions:
REMARK  status: ('A' for Active; 'I' for Inactive)
REMARK    1  A    between atoms: C_1  and  C_2
REMARK    2  A    between atoms: C_2  and  C_3
REMARK    3  A    between atoms: C_3  and  C_4
REMARK    4  A    between atoms: C_4  and  N_5
REMARK    5  A    between atoms: C_10  and  C_11
REMARK    6  A    between atoms: N_13  and  C_14
REMARK    7  A    between atoms: C_14  and  C_15
REMARK    8  A    between atoms: C_23  and  C_24
REMARK                            x       y       z     vdW  Elec       q    Type
REMARK                         _______ _______ _______ _____ _____    ______ ____
ROOT
ATOM      1  N   UNL     1       1.408   8.959  18.247  0.00  0.00    +0.000 N 
ATOM      2  C   UNL     1       1.487  10.324  18.317  0.00  0.00    +0.000 C 
ATOM      3  O   UNL     1       2.540  10.910  18.140  0.00  0.00    +0.000 OA
ATOM      4  N   UNL     1       0.293  10.988  18.562  0.00  0.00    +0.000 N 
ATOM      5  C   UNL     1       0.314  12.430  18.479  0.00  0.00    +0.000 C 
ATOM      6  C   UNL     1      -0.047  13.149  19.794  0.00  0.00    +0.000 C 
ATOM      7  C   UNL     1      -1.255  12.544  20.499  0.00  0.00    +0.000 C 
ATOM      8  C   UNL     1      -1.219  11.019  20.475  0.00  0.00    +0.000 C 
ATOM      9  C   UNL     1      -0.969  10.427  19.070  0.00  0.00    +0.000 C 
ATOM     10  H   UNL     1       0.560   8.629  17.811  0.00  0.00    +0.000 HD
ENDROOT
BRANCH   9  11
ATOM     11  C   UNL     1      -2.130  10.623  18.089  0.00  0.00    +0.000 A 
ATOM     12  C   UNL     1      -2.106  10.057  16.800  0.00  0.00    +0.000 A 
ATOM     13  C   UNL     1      -3.155  10.259  15.900  0.00  0.00    +0.000 A 
ATOM     14  C   UNL     1      -4.267  11.004  16.277  0.00  0.00    +0.000 A 
ATOM     15  C   UNL     1      -4.333  11.543  17.556  0.00  0.00    +0.000 A 
ATOM     16  C   UNL     1      -3.281  11.349  18.453  0.00  0.00    +0.000 A 
ENDBRANCH   9  11
BRANCH   6  17
ATOM     17  C   UNL     1       1.186  13.235  20.689  0.00  0.00    +0.000 C 
ATOM     18  O   UNL     1       1.692  12.273  21.259  0.00  0.00    +0.000 OA
ATOM     19  N   UNL     1       1.690  14.503  20.875  0.00  0.00    +0.000 N 
ATOM     20  H   UNL     1       2.566  14.548  21.382  0.00  0.00    +0.000 HD
BRANCH  19  21
ATOM     21  C   UNL     1       1.147  15.700  20.281  0.00  0.00    +0.000 C 
BRANCH  21  22
ATOM     22  C   UNL     1       1.806  16.074  19.021  0.00  0.00    +0.000 A 
ATOM     23  C   UNL     1       2.851  15.322  18.491  0.00  0.00    +0.000 A 
ATOM     24  C   UNL     1       3.469  15.763  17.340  0.00  0.00    +0.000 A 
ATOM     25  C   UNL     1       3.028  16.960  16.792  0.00  0.00    +0.000 A 
ATOM     26  N   UNL     1       2.057  17.740  17.317  0.00  0.00    +0.000 NA
ATOM     27  C   UNL     1       1.468  17.283  18.429  0.00  0.00    +0.000 A 
ENDBRANCH  21  22
ENDBRANCH  19  21
ENDBRANCH   6  17
BRANCH   1  28
ATOM     28  C   UNL     1       2.627   8.237  17.914  0.00  0.00    +0.000 C 
BRANCH  28  29
ATOM     29  C   UNL     1       2.583   6.776  18.341  0.00  0.00    +0.000 C 
BRANCH  29  31
ATOM     30  C   UNL     1       4.651   6.874  16.894  0.00  0.00    +0.000 C 
ATOM     31  C   UNL     1       3.708   5.976  17.679  0.00  0.00    +0.000 C 
ENDBRANCH  29  31
ENDBRANCH  28  29
ENDBRANCH   1  28
TORSDOF 7
ENDMDL
MODEL 3
REMARK VINA RESULT:      -6.9      8.032      9.241
REMARK  Name = 
REMARK  8 active torsions:
REMARK  status: ('A' for Active; 'I' for Inactive)
REMARK    1  A    between atoms: C_1  and  C_2
REMARK    2  A    between atoms: C_2  and  C_3
REMARK    3  A    between atoms: C_3  and  C_4
REMARK    4  A    between atoms: C_4  and  N_5
REMARK    5  A    between atoms: C_10  and  C_11
REMARK    6  A    between atoms: N_13  and  C_14
REMARK    7  A    between atoms: C_14  and  C_15
REMARK    8  A    between atoms: C_23  and  C_24
REMARK                            x       y       z     vdW  Elec       q    Type
REMARK                         _______ _______ _______ _____ _____    ______ ____
ROOT
ATOM      1  N   UNL     1       5.191   4.226  14.919  0.00  0.00    +0.000 N 
ATOM      2  C   UNL     1       5.373   5.460  15.482  0.00  0.00    +0.000 C 
ATOM      3  O   UNL     1       5.391   6.472  14.804  0.00  0.00    +0.000 OA
ATOM      4  N   UNL     1       5.495   5.483  16.865  0.00  0.00    +0.000 N 
ATOM      5  C   UNL     1       5.524   6.781  17.499  0.00  0.00    +0.000 C 
ATOM      6  C   UNL     1       6.824   7.084  18.269  0.00  0.00    +0.000 C 
ATOM      7  C   UNL     1       7.304   5.917  19.125  0.00  0.00    +0.000 C 
ATOM      8  C   UNL     1       7.172   4.587  18.391  0.00  0.00    +0.000 C 
ATOM      9  C   UNL     1       5.777   4.357  17.770  0.00  0.00    +0.000 C 
ATOM     10  H   UNL     1       4.617   3.612  15.477  0.00  0.00    +0.000 HD
ENDROOT
BRANCH   9  11
ATOM     11  C   UNL     1       4.659   4.141  18.795  0.00  0.00    +0.000 A 
ATOM     12  C   UNL     1       4.543   2.936  19.513  0.00  0.00    +0.000 A 
ATOM     13  C   UNL     1       3.507   2.734  20.429  0.00  0.00    +0.000 A 
ATOM     14  C   UNL     1       2.582   3.742  20.672  0.00  0.00    +0.000 A 
ATOM     15  C   UNL     1       2.694   4.956  20.005  0.00  0.00    +0.000 A 
ATOM     16  C   UNL     1       3.724   5.155  19.083  0.00  0.00    +0.000 A 
ENDBRANCH   9  11
BRANCH   6  17
ATOM     17  C   UNL     1       7.889   7.593  17.302  0.00  0.00    +0.000 C 
ATOM     18  O   UNL     1       8.169   7.049  16.238  0.00  0.00    +0.000 OA
ATOM     19  N   UNL     1       8.583   8.706  17.724  0.00  0.00    +0.000 N 
ATOM     20  H   UNL     1       9.214   9.104  17.039  0.00  0.00    +0.000 HD
BRANCH  19  21
ATOM     21  C   UNL     1       8.355   9.394  18.970  0.00  0.00    +0.000 C 
BRANCH  21  22
ATOM     22  C   UNL     1       9.304  10.491  19.210  0.00  0.00    +0.000 A 
ATOM     23  C   UNL     1      10.117  10.990  18.195  0.00  0.00    +0.000 A 
ATOM     24  C   UNL     1      11.031  11.976  18.501  0.00  0.00    +0.000 A 
ATOM     25  C   UNL     1      11.108  12.394  19.823  0.00  0.00    +0.000 A 
ATOM     26  N   UNL     1      10.374  11.887  20.838  0.00  0.00    +0.000 NA
ATOM     27  C   UNL     1       9.488  10.937  20.512  0.00  0.00    +0.000 A 
ENDBRANCH  21  22
ENDBRANCH  19  21
ENDBRANCH   6  17
BRANCH   1  28
ATOM     28  C   UNL     1       4.981   4.173  13.480  0.00  0.00    +0.000 C 
BRANCH  28  29
ATOM     29  C   UNL     1       6.089   3.427  12.749  0.00  0.00    +0.000 C 
BRANCH  29  31
ATOM     30  C   UNL     1       4.175   3.024  11.150  0.00  0.00    +0.000 C 
ATOM     31  C   UNL     1       5.513   2.513  11.663  0.00  0.00    +0.000 C 
ENDBRANCH  29  31
ENDBRANCH  28  29
ENDBRANCH   1  28
TORSDOF 7
ENDMDL
MODEL 4
REMARK VINA RESULT:      -6.8      7.999      9.194
REMARK  Name = 
REMARK  8 active torsions:
REMARK  status: ('A' for Active; 'I' for Inactive)
REMARK    1  A    between atoms: C_1  and  C_2
REMARK    2  A    between atoms: C_2  and  C_3
REMARK    3  A    between atoms: C_3  and  C_4
REMARK    4  A    between atoms: C_4  and  N_5
REMARK    5  A    between atoms: C_10  and  C_11
REMARK    6  A    between atoms: N_13  and  C_14
REMARK    7  A    between atoms: C_14  and  C_15
REMARK    8  A    between atoms: C_23  and  C_24
REMARK                            x       y       z     vdW  Elec       q    Type
REMARK                         _______ _______ _______ _____ _____    ______ ____
ROOT
ATOM      1  N   UNL     1       5.221   4.197  14.923  0.00  0.00    +0.000 N 
ATOM      2  C   UNL     1       5.394   5.446  15.457  0.00  0.00    +0.000 C 
ATOM      3  O   UNL     1       5.407   6.442  14.756  0.00  0.00    +0.000 OA
ATOM      4  N   UNL     1       5.514   5.502  16.840  0.00  0.00    +0.000 N 
ATOM      5  C   UNL     1       5.532   6.814  17.444  0.00  0.00    +0.000 C 
ATOM      6  C   UNL     1       6.829   7.144  18.209  0.00  0.00    +0.000 C 
ATOM      7  C   UNL     1       7.315   6.001  19.092  0.00  0.00    +0.000 C 
ATOM      8  C   UNL     1       7.193   4.652  18.389  0.00  0.00    +0.000 C 
ATOM      9  C   UNL     1       5.801   4.399  17.771  0.00  0.00    +0.000 C 
ATOM     10  H   UNL     1       4.650   3.593  15.495  0.00  0.00    +0.000 HD
ENDROOT
BRANCH   9  11
ATOM     11  C   UNL     1       4.682   4.200  18.799  0.00  0.00    +0.000 A 
ATOM     12  C   UNL     1       3.758   5.222  19.087  0.00  0.00    +0.000 A 
ATOM     13  C   UNL     1       2.754   5.045  20.043  0.00  0.00    +0.000 A 
ATOM     14  C   UNL     1       2.632   3.832  20.711  0.00  0.00    +0.000 A 
ATOM     15  C   UNL     1       3.508   2.794  20.421  0.00  0.00    +0.000 A 
ATOM     16  C   UNL     1       4.516   2.974  19.471  0.00  0.00    +0.000 A 
ENDBRANCH   9  11
BRANCH   6  17
ATOM     17  C   UNL     1       7.892   7.638  17.232  0.00  0.00    +0.000 C 
ATOM     18  O   UNL     1       8.204   7.051  16.200  0.00  0.00    +0.000 OA
ATOM     19  N   UNL     1       8.545   8.791  17.608  0.00  0.00    +0.000 N 
ATOM     20  H   UNL     1       9.175   9.174  16.913  0.00  0.00    +0.000 HD
BRANCH  19  21
ATOM     21  C   UNL     1       8.279   9.532  18.815  0.00  0.00    +0.000 C 
BRANCH  21  22
ATOM     22  C   UNL     1       9.317  10.525  19.129  0.00  0.00    +0.000 A 
ATOM     23  C   UNL     1       9.595  10.903  20.439  0.00  0.00    +0.000 A 
ATOM     24  C   UNL     1      10.536  11.886  20.661  0.00  0.00    +0.000 A 
ATOM     25  C   UNL     1      11.133  12.467  19.551  0.00  0.00    +0.000 A 
ATOM     26  N   UNL     1      10.841  12.161  18.266  0.00  0.00    +0.000 NA
ATOM     27  C   UNL     1       9.931  11.197  18.080  0.00  0.00    +0.000 A 
ENDBRANCH  21  22
ENDBRANCH  19  21
ENDBRANCH   6  17
BRANCH   1  28
ATOM     28  C   UNL     1       5.015   4.110  13.485  0.00  0.00    +0.000 C 
BRANCH  28  29
ATOM     29  C   UNL     1       6.132   3.360  12.773  0.00  0.00    +0.000 C 
BRANCH  29  31
ATOM     30  C   UNL     1       4.174   3.026  11.213  0.00  0.00    +0.000 C 
ATOM     31  C   UNL     1       5.597   2.609  11.550  0.00  0.00    +0.000 C 
ENDBRANCH  29  31
ENDBRANCH  28  29
ENDBRANCH   1  28
TORSDOF 7
ENDMDL
MODEL 5
REMARK VINA RESULT:      -6.7      7.812      9.129
REMARK  Name = 
REMARK  8 active torsions:
REMARK  status: ('A' for Active; 'I' for Inactive)
REMARK    1  A    between atoms: C_1  and  C_2
REMARK    2  A    between atoms: C_2  and  C_3
REMARK    3  A    between atoms: C_3  and  C_4
REMARK    4  A    between atoms: C_4  and  N_5
REMARK    5  A    between atoms: C_10  and  C_11
REMARK    6  A    between atoms: N_13  and  C_14
REMARK    7  A    between atoms: C_14  and  C_15
REMARK    8  A    between atoms: C_23  and  C_24
REMARK                            x       y       z     vdW  Elec       q    Type
REMARK                         _______ _______ _______ _____ _____    ______ ____
ROOT
ATOM      1  N   UNL     1       5.144   4.124  14.606  0.00  0.00    +0.000 N 
ATOM      2  C   UNL     1       5.335   5.360  15.163  0.00  0.00    +0.000 C 
ATOM      3  O   UNL     1       5.469   6.355  14.473  0.00  0.00    +0.000 OA
ATOM      4  N   UNL     1       5.327   5.406  16.551  0.00  0.00    +0.000 N 
ATOM      5  C   UNL     1       5.362   6.714  17.164  0.00  0.00    +0.000 C 
ATOM      6  C   UNL     1       6.597   6.969  18.050  0.00  0.00    +0.000 C 
ATOM      7  C   UNL     1       6.933   5.798  18.966  0.00  0.00    +0.000 C 
ATOM      8  C   UNL     1       6.803   4.461  18.245  0.00  0.00    +0.000 C 
ATOM      9  C   UNL     1       5.463   4.287  17.497  0.00  0.00    +0.000 C 
ATOM     10  H   UNL     1       4.489   3.552  15.117  0.00  0.00    +0.000 HD
ENDROOT
BRANCH   9  11
ATOM     11  C   UNL     1       4.243   4.149  18.414  0.00  0.00    +0.000 A 
ATOM     12  C   UNL     1       3.060   4.874  18.177  0.00  0.00    +0.000 A 
ATOM     13  C   UNL     1       1.959   4.764  19.029  0.00  0.00    +0.000 A 
ATOM     14  C   UNL     1       2.003   3.904  20.121  0.00  0.00    +0.000 A 
ATOM     15  C   UNL     1       3.145   3.149  20.358  0.00  0.00    +0.000 A 
ATOM     16  C   UNL     1       4.249   3.266  19.511  0.00  0.00    +0.000 A 
ENDBRANCH   9  11
BRANCH   6  17
ATOM     17  C   UNL     1       7.774   7.404  17.180  0.00  0.00    +0.000 C 
ATOM     18  O   UNL     1       8.131   6.818  16.162  0.00  0.00    +0.000 OA
ATOM     19  N   UNL     1       8.473   8.498  17.641  0.00  0.00    +0.000 N 
ATOM     20  H   UNL     1       9.186   8.849  17.013  0.00  0.00    +0.000 HD
BRANCH  19  21
ATOM     21  C   UNL     1       8.156   9.230  18.842  0.00  0.00    +0.000 C 
BRANCH  21  22
ATOM     22  C   UNL     1       8.999  10.420  19.036  0.00  0.00    +0.000 A 
ATOM     23  C   UNL     1       9.403  11.212  17.965  0.00  0.00    +0.000 A 
ATOM     24  C   UNL     1      10.245  12.277  18.207  0.00  0.00    +0.000 A 
ATOM     25  C   UNL     1      10.669  12.477  19.514  0.00  0.00    +0.000 A 
ATOM     26  N   UNL     1      10.339  11.690  20.563  0.00  0.00    +0.000 NA
ATOM     27  C   UNL     1       9.514  10.669  20.301  0.00  0.00    +0.000 A 
ENDBRANCH  21  22
ENDBRANCH  19  21
ENDBRANCH   6  17
BRANCH   1  28
ATOM     28  C   UNL     1       5.069   4.052  13.154  0.00  0.00    +0.000 C 
BRANCH  28  29
ATOM     29  C   UNL     1       6.168   3.189  12.549  0.00  0.00    +0.000 C 
BRANCH  29  31
ATOM     30  C   UNL     1       6.657   1.215  11.050  0.00  0.00    +0.000 C 
ATOM     31  C   UNL     1       5.583   2.145  11.593  0.00  0.00    +0.000 C 
ENDBRANCH  29  31
ENDBRANCH  28  29
ENDBRANCH   1  28
TORSDOF 7
ENDMDL
MODEL 6
REMARK VINA RESULT:      -6.6      7.779      9.169
REMARK  Name = 
REMARK  8 active torsions:
REMARK  status: ('A' for Active; 'I' for Inactive)
REMARK    1  A    between atoms: C_1  and  C_2
REMARK    2  A    between atoms: C_2  and  C_3
REMARK    3  A    between atoms: C_3  and  C_4
REMARK    4  A    between atoms: C_4  and  N_5
REMARK    5  A    between atoms: C_10  and  C_11
REMARK    6  A    between atoms: N_13  and  C_14
REMARK    7  A    between atoms: C_14  and  C_15
REMARK    8  A    between atoms: C_23  and  C_24
REMARK                            x       y       z     vdW  Elec       q    Type
REMARK                         _______ _______ _______ _____ _____    ______ ____
ROOT
ATOM      1  N   UNL     1       5.169   4.131  14.731  0.00  0.00    +0.000 N 
ATOM      2  C   UNL     1       5.339   5.372  15.284  0.00  0.00    +0.000 C 
ATOM      3  O   UNL     1       5.395   6.373  14.592  0.00  0.00    +0.000 OA
ATOM      4  N   UNL     1       5.404   5.414  16.670  0.00  0.00    +0.000 N 
ATOM      5  C   UNL     1       5.418   6.720  17.287  0.00  0.00    +0.000 C 
ATOM      6  C   UNL     1       6.689   7.023  18.106  0.00  0.00    +0.000 C 
ATOM      7  C   UNL     1       7.121   5.865  18.997  0.00  0.00    +0.000 C 
ATOM      8  C   UNL     1       7.008   4.525  18.277  0.00  0.00    +0.000 C 
ATOM      9  C   UNL     1       5.638   4.299  17.602  0.00  0.00    +0.000 C 
ATOM     10  H   UNL     1       4.567   3.530  15.274  0.00  0.00    +0.000 HD
ENDROOT
BRANCH   9  11
ATOM     11  C   UNL     1       4.476   4.108  18.583  0.00  0.00    +0.000 A 
ATOM     12  C   UNL     1       4.478   3.067  19.531  0.00  0.00    +0.000 A 
ATOM     13  C   UNL     1       3.407   2.881  20.407  0.00  0.00    +0.000 A 
ATOM     14  C   UNL     1       2.321   3.749  20.378  0.00  0.00    +0.000 A 
ATOM     15  C   UNL     1       2.308   4.806  19.477  0.00  0.00    +0.000 A 
ATOM     16  C   UNL     1       3.376   4.987  18.595  0.00  0.00    +0.000 A 
ENDBRANCH   9  11
BRANCH   6  17
ATOM     17  C   UNL     1       7.797   7.509  17.177  0.00  0.00    +0.000 C 
ATOM     18  O   UNL     1       8.123   6.942  16.138  0.00  0.00    +0.000 OA
ATOM     19  N   UNL     1       8.475   8.629  17.605  0.00  0.00    +0.000 N 
ATOM     20  H   UNL     1       9.138   9.011  16.941  0.00  0.00    +0.000 HD
BRANCH  19  21
ATOM     21  C   UNL     1       8.194   9.345  18.825  0.00  0.00    +0.000 C 
BRANCH  21  22
ATOM     22  C   UNL     1       9.104  10.476  19.058  0.00  0.00    +0.000 A 
ATOM     23  C   UNL     1       9.678  10.708  20.305  0.00  0.00    +0.000 A 
ATOM     24  C   UNL     1      10.472  11.822  20.474  0.00  0.00    +0.000 A 
ATOM     25  C   UNL     1      10.626  12.672  19.386  0.00  0.00    +0.000 A 
ATOM     26  N   UNL     1      10.035  12.503  18.182  0.00  0.00    +0.000 NA
ATOM     27  C   UNL     1       9.277  11.408  18.043  0.00  0.00    +0.000 A 
ENDBRANCH  21  22
ENDBRANCH  19  21
ENDBRANCH   6  17
BRANCH   1  28
ATOM     28  C   UNL     1       5.019   4.060  13.285  0.00  0.00    +0.000 C 
BRANCH  28  29
ATOM     29  C   UNL     1       6.173   3.335  12.607  0.00  0.00    +0.000 C 
BRANCH  29  31
ATOM     30  C   UNL     1       6.796   1.482  11.007  0.00  0.00    +0.000 C 
ATOM     31  C   UNL     1       5.658   2.289  11.614  0.00  0.00    +0.000 C 
ENDBRANCH  29  31
ENDBRANCH  28  29
ENDBRANCH   1  28
TORSDOF 7
ENDMDL
MODEL 7
REMARK VINA RESULT:      -6.6      7.655      8.954
REMARK  Name = 
REMARK  8 active torsions:
REMARK  status: ('A' for Active; 'I' for Inactive)
REMARK    1  A    between atoms: C_1  and  C_2
REMARK    2  A    between atoms: C_2  and  C_3
REMARK    3  A    between atoms: C_3  and  C_4
REMARK    4  A    between atoms: C_4  and  N_5
REMARK    5  A    between atoms: C_10  and  C_11
REMARK    6  A    between atoms: N_13  and  C_14
REMARK    7  A    between atoms: C_14  and  C_15
REMARK    8  A    between atoms: C_23  and  C_24
REMARK                            x       y       z     vdW  Elec       q    Type
REMARK                         _______ _______ _______ _____ _____    ______ ____
ROOT
ATOM      1  N   UNL     1       5.162   3.794  14.440  0.00  0.00    +0.000 N 
ATOM      2  C   UNL     1       5.333   5.076  14.887  0.00  0.00    +0.000 C 
ATOM      3  O   UNL     1       5.564   5.992  14.119  0.00  0.00    +0.000 OA
ATOM      4  N   UNL     1       5.188   5.264  16.256  0.00  0.00    +0.000 N 
ATOM      5  C   UNL     1       5.200   6.627  16.735  0.00  0.00    +0.000 C 
ATOM      6  C   UNL     1       6.349   6.947  17.713  0.00  0.00    +0.000 C 
ATOM      7  C   UNL     1       6.557   5.870  18.771  0.00  0.00    +0.000 C 
ATOM      8  C   UNL     1       6.461   4.468  18.177  0.00  0.00    +0.000 C 
ATOM      9  C   UNL     1       5.197   4.245  17.318  0.00  0.00    +0.000 C 
ATOM     10  H   UNL     1       4.443   3.289  14.936  0.00  0.00    +0.000 HD
ENDROOT
BRANCH   9  11
ATOM     11  C   UNL     1       3.889   4.225  18.115  0.00  0.00    +0.000 A 
ATOM     12  C   UNL     1       2.645   4.041  17.482  0.00  0.00    +0.000 A 
ATOM     13  C   UNL     1       1.452   4.048  18.209  0.00  0.00    +0.000 A 
ATOM     14  C   UNL     1       1.476   4.207  19.590  0.00  0.00    +0.000 A 
ATOM     15  C   UNL     1       2.692   4.353  20.245  0.00  0.00    +0.000 A 
ATOM     16  C   UNL     1       3.884   4.355  19.517  0.00  0.00    +0.000 A 
ENDBRANCH   9  11
BRANCH   6  17
ATOM     17  C   UNL     1       7.618   7.269  16.928  0.00  0.00    +0.000 C 
ATOM     18  O   UNL     1       8.109   6.529  16.081  0.00  0.00    +0.000 OA
ATOM     19  N   UNL     1       8.236   8.451  17.270  0.00  0.00    +0.000 N 
ATOM     20  H   UNL     1       9.016   8.714  16.680  0.00  0.00    +0.000 HD
BRANCH  19  21
ATOM     21  C   UNL     1       7.759   9.369  18.274  0.00  0.00    +0.000 C 
BRANCH  21  22
ATOM     22  C   UNL     1       8.725  10.430  18.597  0.00  0.00    +0.000 A 
ATOM     23  C   UNL     1       9.520  10.373  19.738  0.00  0.00    +0.000 A 
ATOM     24  C   UNL     1      10.359  11.431  20.016  0.00  0.00    +0.000 A 
ATOM     25  C   UNL     1      10.337  12.515  19.149  0.00  0.00    +0.000 A 
ATOM     26  N   UNL     1       9.533  12.623  18.066  0.00  0.00    +0.000 NA
ATOM     27  C   UNL     1       8.736  11.577  17.815  0.00  0.00    +0.000 A 
ENDBRANCH  21  22
ENDBRANCH  19  21
ENDBRANCH   6  17
BRANCH   1  28
ATOM     28  C   UNL     1       5.230   3.574  13.003  0.00  0.00    +0.000 C 
BRANCH  28  29
ATOM     29  C   UNL     1       6.653   3.626  12.464  0.00  0.00    +0.000 C 
BRANCH  29  31
ATOM     30  C   UNL     1       5.700   1.576  11.339  0.00  0.00    +0.000 C 
ATOM     31  C   UNL     1       6.897   2.507  11.448  0.00  0.00    +0.000 C 
ENDBRANCH  29  31
ENDBRANCH  28  29
ENDBRANCH   1  28
TORSDOF 7
ENDMDL
MODEL 8
REMARK VINA RESULT:      -6.6      3.277      7.221
REMARK  Name = 
REMARK  8 active torsions:
REMARK  status: ('A' for Active; 'I' for Inactive)
REMARK    1  A    between atoms: C_1  and  C_2
REMARK    2  A    between atoms: C_2  and  C_3
REMARK    3  A    between atoms: C_3  and  C_4
REMARK    4  A    between atoms: C_4  and  N_5
REMARK    5  A    between atoms: C_10  and  C_11
REMARK    6  A    between atoms: N_13  and  C_14
REMARK    7  A    between atoms: C_14  and  C_15
REMARK    8  A    between atoms: C_23  and  C_24
REMARK                            x       y       z     vdW  Elec       q    Type
REMARK                         _______ _______ _______ _____ _____    ______ ____
ROOT
ATOM      1  N   UNL     1      -1.367  13.223  22.306  0.00  0.00    +0.000 N 
ATOM      2  C   UNL     1      -1.190  11.866  22.266  0.00  0.00    +0.000 C 
ATOM      3  O   UNL     1      -1.110  11.205  23.286  0.00  0.00    +0.000 OA
ATOM      4  N   UNL     1      -1.147  11.298  21.000  0.00  0.00    +0.000 N 
ATOM      5  C   UNL     1      -1.127   9.855  20.929  0.00  0.00    +0.000 C 
ATOM      6  C   UNL     1       0.134   9.269  20.262  0.00  0.00    +0.000 C 
ATOM      7  C   UNL     1       0.537  10.001  18.987  0.00  0.00    +0.000 C 
ATOM      8  C   UNL     1       0.418  11.513  19.143  0.00  0.00    +0.000 C 
ATOM      9  C   UNL     1      -0.944  11.973  19.708  0.00  0.00    +0.000 C 
ATOM     10  H   UNL     1      -1.986  13.567  21.587  0.00  0.00    +0.000 HD
ENDROOT
BRANCH   9  11
ATOM     11  C   UNL     1      -2.124  11.768  18.752  0.00  0.00    +0.000 A 
ATOM     12  C   UNL     1      -1.935  11.281  17.445  0.00  0.00    +0.000 A 
ATOM     13  C   UNL     1      -3.010  11.119  16.568  0.00  0.00    +0.000 A 
ATOM     14  C   UNL     1      -4.304  11.411  16.987  0.00  0.00    +0.000 A 
ATOM     15  C   UNL     1      -4.523  11.858  18.284  0.00  0.00    +0.000 A 
ATOM     16  C   UNL     1      -3.447  12.028  19.157  0.00  0.00    +0.000 A 
ENDBRANCH   9  11
BRANCH   6  17
ATOM     17  C   UNL     1       1.264   9.181  21.284  0.00  0.00    +0.000 C 
ATOM     18  O   UNL     1       1.678  10.135  21.935  0.00  0.00    +0.000 OA
ATOM     19  N   UNL     1       1.853   7.942  21.404  0.00  0.00    +0.000 N 
ATOM     20  H   UNL     1       2.529   7.858  22.153  0.00  0.00    +0.000 HD
BRANCH  19  21
ATOM     21  C   UNL     1       1.465   6.770  20.659  0.00  0.00    +0.000 C 
BRANCH  21  22
ATOM     22  C   UNL     1       2.396   6.439  19.571  0.00  0.00    +0.000 A 
ATOM     23  C   UNL     1       2.885   7.412  18.704  0.00  0.00    +0.000 A 
ATOM     24  C   UNL     1       3.704   7.026  17.665  0.00  0.00    +0.000 A 
ATOM     25  C   UNL     1       3.970   5.670  17.526  0.00  0.00    +0.000 A 
ATOM     26  N   UNL     1       3.464   4.697  18.317  0.00  0.00    +0.000 NA
ATOM     27  C   UNL     1       2.678   5.102  19.323  0.00  0.00    +0.000 A 
ENDBRANCH  21  22
ENDBRANCH  19  21
ENDBRANCH   6  17
BRANCH   1  28
ATOM     28  C   UNL     1      -1.494  13.841  23.617  0.00  0.00    +0.000 C 
BRANCH  28  29
ATOM     29  C   UNL     1      -2.810  14.586  23.794  0.00  0.00    +0.000 C 
BRANCH  29  31
ATOM     30  C   UNL     1      -4.170  12.624  24.620  0.00  0.00    +0.000 C 
ATOM     31  C   UNL     1      -4.003  13.664  23.523  0.00  0.00    +0.000 C 
ENDBRANCH  29  31
ENDBRANCH  28  29
ENDBRANCH   1  28
TORSDOF 7
ENDMDL
MODEL 9
REMARK VINA RESULT:      -6.6      0.702      1.401
REMARK  Name = 
REMARK  8 active torsions:
REMARK  status: ('A' for Active; 'I' for Inactive)
REMARK    1  A    between atoms: C_1  and  C_2
REMARK    2  A    between atoms: C_2  and  C_3
REMARK    3  A    between atoms: C_3  and  C_4
REMARK    4  A    between atoms: C_4  and  N_5
REMARK    5  A    between atoms: C_10  and  C_11
REMARK    6  A    between atoms: N_13  and  C_14
REMARK    7  A    between atoms: C_14  and  C_15
REMARK    8  A    between atoms: C_23  and  C_24
REMARK                            x       y       z     vdW  Elec       q    Type
REMARK                         _______ _______ _______ _____ _____    ______ ____
ROOT
ATOM      1  N   UNL     1       1.421   9.065  18.253  0.00  0.00    +0.000 N 
ATOM      2  C   UNL     1       1.481  10.432  18.292  0.00  0.00    +0.000 C 
ATOM      3  O   UNL     1       2.521  11.029  18.079  0.00  0.00    +0.000 OA
ATOM      4  N   UNL     1       0.282  11.084  18.549  0.00  0.00    +0.000 N 
ATOM      5  C   UNL     1       0.281  12.524  18.434  0.00  0.00    +0.000 C 
ATOM      6  C   UNL     1      -0.063  13.266  19.742  0.00  0.00    +0.000 C 
ATOM      7  C   UNL     1      -1.246  12.659  20.486  0.00  0.00    +0.000 C 
ATOM      8  C   UNL     1      -1.187  11.135  20.494  0.00  0.00    +0.000 C 
ATOM      9  C   UNL     1      -0.960  10.516  19.097  0.00  0.00    +0.000 C 
ATOM     10  H   UNL     1       0.568   8.713  17.844  0.00  0.00    +0.000 HD
ENDROOT
BRANCH   9  11
ATOM     11  C   UNL     1      -2.145  10.674  18.138  0.00  0.00    +0.000 A 
ATOM     12  C   UNL     1      -2.148  10.068  16.868  0.00  0.00    +0.000 A 
ATOM     13  C   UNL     1      -3.219  10.234  15.987  0.00  0.00    +0.000 A 
ATOM     14  C   UNL     1      -4.326  10.985  16.366  0.00  0.00    +0.000 A 
ATOM     15  C   UNL     1      -4.366  11.564  17.628  0.00  0.00    +0.000 A 
ATOM     16  C   UNL     1      -3.291  11.405  18.505  0.00  0.00    +0.000 A 
ENDBRANCH   9  11
BRANCH   6  17
ATOM     17  C   UNL     1       1.188  13.390  20.607  0.00  0.00    +0.000 C 
ATOM     18  O   UNL     1       1.753  12.440  21.140  0.00  0.00    +0.000 OA
ATOM     19  N   UNL     1       1.637  14.676  20.811  0.00  0.00    +0.000 N 
ATOM     20  H   UNL     1       2.523  14.751  21.297  0.00  0.00    +0.000 HD
BRANCH  19  21
ATOM     21  C   UNL     1       1.023  15.859  20.261  0.00  0.00    +0.000 C 
BRANCH  21  22
ATOM     22  C   UNL     1       1.680  16.338  19.036  0.00  0.00    +0.000 A 
ATOM     23  C   UNL     1       1.152  17.384  18.284  0.00  0.00    +0.000 A 
ATOM     24  C   UNL     1       1.782  17.743  17.111  0.00  0.00    +0.000 A 
ATOM     25  C   UNL     1       2.898  17.010  16.731  0.00  0.00    +0.000 A 
ATOM     26  N   UNL     1       3.398  15.953  17.410  0.00  0.00    +0.000 NA
ATOM     27  C   UNL     1       2.773  15.633  18.550  0.00  0.00    +0.000 A 
ENDBRANCH  21  22
ENDBRANCH  19  21
ENDBRANCH   6  17
BRANCH   1  28
ATOM     28  C   UNL     1       2.643   8.354  17.909  0.00  0.00    +0.000 C 
BRANCH  28  29
ATOM     29  C   UNL     1       2.518   6.847  18.088  0.00  0.00    +0.000 C 
BRANCH  29  31
ATOM     30  C   UNL     1       3.646   5.261  19.699  0.00  0.00    +0.000 C 
ATOM     31  C   UNL     1       2.709   6.450  19.555  0.00  0.00    +0.000 C 
ENDBRANCH  29  31
ENDBRANCH  28  29
ENDBRANCH   1  28
TORSDOF 7
ENDMDL
