MODEL 1
REMARK VINA RESULT:      -8.7      0.000      0.000
REMARK  Name = 
REMARK  6 active torsions:
REMARK  status: ('A' for Active; 'I' for Inactive)
REMARK    1  A    between atoms: C_1  and  C_15
REMARK    2  A    between atoms: C_2  and  C_3
REMARK    3  A    between atoms: C_6  and  C_7
REMARK    4  A    between atoms: C_15  and  N_16
REMARK    5  A    between atoms: N_16  and  C_17
REMARK    6  A    between atoms: C_17  and  C_18
REMARK                            x       y       z     vdW  Elec       q    Type
REMARK                         _______ _______ _______ _____ _____    ______ ____
ROOT
ATOM      1  C   UNL     1       4.757   6.301  17.694  0.00  0.00    +0.000 C 
ATOM      2  C   UNL     1       3.639   6.957  17.294  0.00  0.00    +0.000 C 
ENDROOT
BRANCH   2   3
ATOM      3  C   UNL     1       2.735   7.681  18.231  0.00  0.00    +0.000 A 
ATOM      4  C   UNL     1       2.490   7.199  19.539  0.00  0.00    +0.000 A 
ATOM      5  C   UNL     1       1.682   7.888  20.403  0.00  0.00    +0.000 A 
ATOM      6  C   UNL     1       1.049   9.084  20.049  0.00  0.00    +0.000 A 
ATOM      7  C   UNL     1       1.280   9.587  18.714  0.00  0.00    +0.000 A 
ATOM      8  C   UNL     1       2.119   8.885  17.838  0.00  0.00    +0.000 A 
BRANCH   6   9
ATOM      9  C   UNL     1       0.213   9.830  21.036  0.00  0.00    +0.000 A 
ATOM     10  C   UNL     1      -0.317  11.095  20.712  0.00  0.00    +0.000 A 
ATOM     11  C   UNL     1      -1.085  11.803  21.619  0.00  0.00    +0.000 A 
ATOM     12  C   UNL     1      -1.340  11.289  22.896  0.00  0.00    +0.000 A 
ATOM     13  C   UNL     1      -0.811  10.045  23.259  0.00  0.00    +0.000 A 
ATOM     14  C   UNL     1      -0.044   9.325  22.320  0.00  0.00    +0.000 A 
ENDBRANCH   6   9
ENDBRANCH   2   3
BRANCH   1  15
ATOM     15  C   UNL     1       5.750   5.644  16.760  0.00  0.00    +0.000 C 
BRANCH  15  16
ATOM     16  N   UNL     1       5.957   4.225  17.109  0.00  0.00    +0.000 NA
ATOM     17  H   UNL     1       5.952   4.125  18.151  0.00  0.00    +0.000 HD
BRANCH  16  18
ATOM     18  C   UNL     1       4.873   3.330  16.602  0.00  0.00    +0.000 C 
BRANCH  18  19
ATOM     19  C   UNL     1       3.735   3.178  17.529  0.00  0.00    +0.000 A 
ATOM     20  C   UNL     1       2.430   3.577  17.125  0.00  0.00    +0.000 A 
ATOM     21  C   UNL     1       1.408   3.720  18.072  0.00  0.00    +0.000 A 
ATOM     22  C   UNL     1       1.725   3.457  19.392  0.00  0.00    +0.000 A 
ATOM     23  C   UNL     1       2.915   2.882  19.773  0.00  0.00    +0.000 A 
ATOM     24  C   UNL     1       3.965   2.766  18.860  0.00  0.00    +0.000 A 
ATOM     25  C   UNL     1       2.838   2.709  21.244  0.00  0.00    +0.000 C 
ATOM     26  C   UNL     1       2.036   4.018  21.463  0.00  0.00    +0.000 C 
ATOM     27  O   UNL     1       1.059   3.899  20.469  0.00  0.00    +0.000 OA
ENDBRANCH  18  19
ENDBRANCH  16  18
ENDBRANCH  15  16
ENDBRANCH   1  15
TORSDOF 6
ENDMDL
MODEL 2
REMARK VINA RESULT:      -8.4      0.820      1.325
REMARK  Name = 
REMARK  6 active torsions:
REMARK  status: ('A' for Active; 'I' for Inactive)
REMARK    1  A    between atoms: C_1  and  C_15
REMARK    2  A    between atoms: C_2  and  C_3
REMARK    3  A    between atoms: C_6  and  C_7
REMARK    4  A    between atoms: C_15  and  N_16
REMARK    5  A    between atoms: N_16  and  C_17
REMARK    6  A    between atoms: C_17  and  C_18
REMARK                            x       y       z     vdW  Elec       q    Type
REMARK                         _______ _______ _______ _____ _____    ______ ____
ROOT
ATOM      1  C   UNL     1       4.744   7.053  17.347  0.00  0.00    +0.000 C 
ATOM      2  C   UNL     1       3.389   6.969  17.340  0.00  0.00    +0.000 C 
ENDROOT
BRANCH   2   3
ATOM      3  C   UNL     1       2.515   7.736  18.270  0.00  0.00    +0.000 A 
ATOM      4  C   UNL     1       2.312   7.313  19.607  0.00  0.00    +0.000 A 
ATOM      5  C   UNL     1       1.532   8.042  20.464  0.00  0.00    +0.000 A 
ATOM      6  C   UNL     1       0.888   9.221  20.076  0.00  0.00    +0.000 A 
ATOM      7  C   UNL     1       1.076   9.663  18.713  0.00  0.00    +0.000 A 
ATOM      8  C   UNL     1       1.888   8.922  17.843  0.00  0.00    +0.000 A 
BRANCH   6   9
ATOM      9  C   UNL     1       0.083  10.012  21.054  0.00  0.00    +0.000 A 
ATOM     10  C   UNL     1      -0.097   9.545  22.372  0.00  0.00    +0.000 A 
ATOM     11  C   UNL     1      -0.848  10.260  23.288  0.00  0.00    +0.000 A 
ATOM     12  C   UNL     1      -1.469  11.461  22.923  0.00  0.00    +0.000 A 
ATOM     13  C   UNL     1      -1.328  11.942  21.617  0.00  0.00    +0.000 A 
ATOM     14  C   UNL     1      -0.547  11.213  20.697  0.00  0.00    +0.000 A 
ENDBRANCH   6   9
ENDBRANCH   2   3
BRANCH   1  15
ATOM     15  C   UNL     1       5.655   6.369  16.352  0.00  0.00    +0.000 C 
BRANCH  15  16
ATOM     16  N   UNL     1       5.369   4.923  16.267  0.00  0.00    +0.000 NA
ATOM     17  H   UNL     1       5.956   4.504  15.509  0.00  0.00    +0.000 HD
BRANCH  16  18
ATOM     18  C   UNL     1       5.713   4.181  17.517  0.00  0.00    +0.000 C 
BRANCH  18  19
ATOM     19  C   UNL     1       4.557   3.548  18.180  0.00  0.00    +0.000 A 
ATOM     20  C   UNL     1       3.746   2.623  17.466  0.00  0.00    +0.000 A 
ATOM     21  C   UNL     1       2.493   2.245  17.967  0.00  0.00    +0.000 A 
ATOM     22  C   UNL     1       2.096   2.804  19.167  0.00  0.00    +0.000 A 
ATOM     23  C   UNL     1       2.942   3.539  19.965  0.00  0.00    +0.000 A 
ATOM     24  C   UNL     1       4.179   3.964  19.475  0.00  0.00    +0.000 A 
ATOM     25  C   UNL     1       2.163   3.897  21.175  0.00  0.00    +0.000 C 
ATOM     26  C   UNL     1       0.831   4.065  20.397  0.00  0.00    +0.000 C 
ATOM     27  O   UNL     1       0.835   2.906  19.614  0.00  0.00    +0.000 OA
ENDBRANCH  18  19
ENDBRANCH  16  18
ENDBRANCH  15  16
ENDBRANCH   1  15
TORSDOF 6
ENDMDL
MODEL 3
REMARK VINA RESULT:      -8.3      0.465      1.059
REMARK  Name = 
REMARK  6 active torsions:
REMARK  status: ('A' for Active; 'I' for Inactive)
REMARK    1  A    between atoms: C_1  and  C_15
REMARK    2  A    between atoms: C_2  and  C_3
REMARK    3  A    between atoms: C_6  and  C_7
REMARK    4  A    between atoms: C_15  and  N_16
REMARK    5  A    between atoms: N_16  and  C_17
REMARK    6  A    between atoms: C_17  and  C_18
REMARK                            x       y       z     vdW  Elec       q    Type
REMARK                         _______ _______ _______ _____ _____    ______ ____
ROOT
ATOM      1  C   UNL     1       4.649   6.937  17.593  0.00  0.00    +0.000 C 
ATOM      2  C   UNL     1       3.324   7.157  17.399  0.00  0.00    +0.000 C 
ENDROOT
BRANCH   2   3
ATOM      3  C   UNL     1       2.481   7.956  18.331  0.00  0.00    +0.000 A 
ATOM      4  C   UNL     1       1.873   9.168  17.921  0.00  0.00    +0.000 A 
ATOM      5  C   UNL     1       1.075   9.878  18.776  0.00  0.00    +0.000 A 
ATOM      6  C   UNL     1       0.825   9.467  20.089  0.00  0.00    +0.000 A 
ATOM      7  C   UNL     1       1.444   8.237  20.528  0.00  0.00    +0.000 A 
ATOM      8  C   UNL     1       2.249   7.505  19.645  0.00  0.00    +0.000 A 
BRANCH   6   9
ATOM      9  C   UNL     1      -0.090  10.247  20.975  0.00  0.00    +0.000 A 
ATOM     10  C   UNL     1      -0.810  11.346  20.466  0.00  0.00    +0.000 A 
ATOM     11  C   UNL     1      -1.654  12.086  21.276  0.00  0.00    +0.000 A 
ATOM     12  C   UNL     1      -1.800  11.773  22.633  0.00  0.00    +0.000 A 
ATOM     13  C   UNL     1      -1.083  10.701  23.175  0.00  0.00    +0.000 A 
ATOM     14  C   UNL     1      -0.239   9.945  22.336  0.00  0.00    +0.000 A 
ENDBRANCH   6   9
ENDBRANCH   2   3
BRANCH   1  15
ATOM     15  C   UNL     1       5.555   6.219  16.616  0.00  0.00    +0.000 C 
BRANCH  15  16
ATOM     16  N   UNL     1       5.888   4.863  17.091  0.00  0.00    +0.000 NA
ATOM     17  H   UNL     1       5.798   4.835  18.134  0.00  0.00    +0.000 HD
BRANCH  16  18
ATOM     18  C   UNL     1       4.965   3.812  16.567  0.00  0.00    +0.000 C 
BRANCH  18  19
ATOM     19  C   UNL     1       3.827   3.510  17.457  0.00  0.00    +0.000 A 
ATOM     20  C   UNL     1       2.506   3.861  17.065  0.00  0.00    +0.000 A 
ATOM     21  C   UNL     1       1.464   3.859  18.003  0.00  0.00    +0.000 A 
ATOM     22  C   UNL     1       1.781   3.502  19.300  0.00  0.00    +0.000 A 
ATOM     23  C   UNL     1       3.000   2.972  19.652  0.00  0.00    +0.000 A 
ATOM     24  C   UNL     1       4.067   3.001  18.752  0.00  0.00    +0.000 A 
ATOM     25  C   UNL     1       2.916   2.668  21.102  0.00  0.00    +0.000 C 
ATOM     26  C   UNL     1       2.030   3.902  21.417  0.00  0.00    +0.000 C 
ATOM     27  O   UNL     1       1.075   3.808  20.400  0.00  0.00    +0.000 OA
ENDBRANCH  18  19
ENDBRANCH  16  18
ENDBRANCH  15  16
ENDBRANCH   1  15
TORSDOF 6
ENDMDL
MODEL 4
REMARK VINA RESULT:      -8.0      0.816      1.383
REMARK  Name = 
REMARK  6 active torsions:
REMARK  status: ('A' for Active; 'I' for Inactive)
REMARK    1  A    between atoms: C_1  and  C_15
REMARK    2  A    between atoms: C_2  and  C_3
REMARK    3  A    between atoms: C_6  and  C_7
REMARK    4  A    between atoms: C_15  and  N_16
REMARK    5  A    between atoms: N_16  and  C_17
REMARK    6  A    between atoms: C_17  and  C_18
REMARK                            x       y       z     vdW  Elec       q    Type
REMARK                         _______ _______ _______ _____ _____    ______ ____
ROOT
ATOM      1  C   UNL     1       4.516   6.603  17.253  0.00  0.00    +0.000 C 
ATOM      2  C   UNL     1       3.363   7.276  17.007  0.00  0.00    +0.000 C 
ENDROOT
BRANCH   2   3
ATOM      3  C   UNL     1       2.577   7.971  18.064  0.00  0.00    +0.000 A 
ATOM      4  C   UNL     1       1.971   9.228  17.826  0.00  0.00    +0.000 A 
ATOM      5  C   UNL     1       1.224   9.843  18.794  0.00  0.00    +0.000 A 
ATOM      6  C   UNL     1       1.028   9.284  20.062  0.00  0.00    +0.000 A 
ATOM      7  C   UNL     1       1.646   8.006  20.326  0.00  0.00    +0.000 A 
ATOM      8  C   UNL     1       2.398   7.373  19.327  0.00  0.00    +0.000 A 
BRANCH   6   9
ATOM      9  C   UNL     1       0.168   9.966  21.074  0.00  0.00    +0.000 A 
ATOM     10  C   UNL     1      -0.460  11.190  20.769  0.00  0.00    +0.000 A 
ATOM     11  C   UNL     1      -1.253  11.840  21.699  0.00  0.00    +0.000 A 
ATOM     12  C   UNL     1      -1.435  11.307  22.981  0.00  0.00    +0.000 A 
ATOM     13  C   UNL     1      -0.809  10.103  23.324  0.00  0.00    +0.000 A 
ATOM     14  C   UNL     1      -0.017   9.443  22.362  0.00  0.00    +0.000 A 
ENDBRANCH   6   9
ENDBRANCH   2   3
BRANCH   1  15
ATOM     15  C   UNL     1       5.391   5.976  16.190  0.00  0.00    +0.000 C 
BRANCH  15  16
ATOM     16  N   UNL     1       5.929   4.677  16.637  0.00  0.00    +0.000 NA
ATOM     17  H   UNL     1       6.953   4.640  16.421  0.00  0.00    +0.000 HD
BRANCH  16  18
ATOM     18  C   UNL     1       5.809   4.464  18.110  0.00  0.00    +0.000 C 
BRANCH  18  19
ATOM     19  C   UNL     1       4.606   3.710  18.514  0.00  0.00    +0.000 A 
ATOM     20  C   UNL     1       3.939   2.878  17.572  0.00  0.00    +0.000 A 
ATOM     21  C   UNL     1       2.650   2.397  17.839  0.00  0.00    +0.000 A 
ATOM     22  C   UNL     1       2.074   2.763  19.041  0.00  0.00    +0.000 A 
ATOM     23  C   UNL     1       2.774   3.396  20.043  0.00  0.00    +0.000 A 
ATOM     24  C   UNL     1       4.043   3.921  19.791  0.00  0.00    +0.000 A 
ATOM     25  C   UNL     1       1.827   3.552  21.174  0.00  0.00    +0.000 C 
ATOM     26  C   UNL     1       0.602   3.796  20.254  0.00  0.00    +0.000 C 
ATOM     27  O   UNL     1       0.762   2.765  19.322  0.00  0.00    +0.000 OA
ENDBRANCH  18  19
ENDBRANCH  16  18
ENDBRANCH  15  16
ENDBRANCH   1  15
TORSDOF 6
ENDMDL
MODEL 5
REMARK VINA RESULT:      -8.0      0.788      1.574
REMARK  Name = 
REMARK  6 active torsions:
REMARK  status: ('A' for Active; 'I' for Inactive)
REMARK    1  A    between atoms: C_1  and  C_15
REMARK    2  A    between atoms: C_2  and  C_3
REMARK    3  A    between atoms: C_6  and  C_7
REMARK    4  A    between atoms: C_15  and  N_16
REMARK    5  A    between atoms: N_16  and  C_17
REMARK    6  A    between atoms: C_17  and  C_18
REMARK                            x       y       z     vdW  Elec       q    Type
REMARK                         _______ _______ _______ _____ _____    ______ ____
ROOT
ATOM      1  C   UNL     1       4.630   6.989  17.518  0.00  0.00    +0.000 C 
ATOM      2  C   UNL     1       3.288   7.145  17.393  0.00  0.00    +0.000 C 
ENDROOT
BRANCH   2   3
ATOM      3  C   UNL     1       2.465   7.953  18.335  0.00  0.00    +0.000 A 
ATOM      4  C   UNL     1       1.872   9.175  17.935  0.00  0.00    +0.000 A 
ATOM      5  C   UNL     1       1.091   9.894  18.799  0.00  0.00    +0.000 A 
ATOM      6  C   UNL     1       0.847   9.481  20.113  0.00  0.00    +0.000 A 
ATOM      7  C   UNL     1       1.451   8.241  20.542  0.00  0.00    +0.000 A 
ATOM      8  C   UNL     1       2.237   7.500  19.649  0.00  0.00    +0.000 A 
BRANCH   6   9
ATOM      9  C   UNL     1      -0.049  10.271  21.010  0.00  0.00    +0.000 A 
ATOM     10  C   UNL     1      -0.244   9.879  22.349  0.00  0.00    +0.000 A 
ATOM     11  C   UNL     1      -1.078  10.594  23.190  0.00  0.00    +0.000 A 
ATOM     12  C   UNL     1      -1.770  11.719  22.725  0.00  0.00    +0.000 A 
ATOM     13  C   UNL     1      -1.615  12.124  21.395  0.00  0.00    +0.000 A 
ATOM     14  C   UNL     1      -0.749  11.397  20.552  0.00  0.00    +0.000 A 
ENDBRANCH   6   9
ENDBRANCH   2   3
BRANCH   1  15
ATOM     15  C   UNL     1       5.509   6.263  16.523  0.00  0.00    +0.000 C 
BRANCH  15  16
ATOM     16  N   UNL     1       5.845   4.905  16.995  0.00  0.00    +0.000 NA
ATOM     17  H   UNL     1       5.796   4.886  18.041  0.00  0.00    +0.000 HD
BRANCH  16  18
ATOM     18  C   UNL     1       4.888   3.862  16.517  0.00  0.00    +0.000 C 
BRANCH  18  19
ATOM     19  C   UNL     1       3.997   3.335  17.568  0.00  0.00    +0.000 A 
ATOM     20  C   UNL     1       3.055   2.316  17.257  0.00  0.00    +0.000 A 
ATOM     21  C   UNL     1       2.013   2.017  18.146  0.00  0.00    +0.000 A 
ATOM     22  C   UNL     1       1.952   2.747  19.318  0.00  0.00    +0.000 A 
ATOM     23  C   UNL     1       2.960   3.591  19.726  0.00  0.00    +0.000 A 
ATOM     24  C   UNL     1       3.986   3.938  18.845  0.00  0.00    +0.000 A 
ATOM     25  C   UNL     1       2.543   4.124  21.045  0.00  0.00    +0.000 C 
ATOM     26  C   UNL     1       1.039   4.177  20.669  0.00  0.00    +0.000 C 
ATOM     27  O   UNL     1       0.868   2.915  20.090  0.00  0.00    +0.000 OA
ENDBRANCH  18  19
ENDBRANCH  16  18
ENDBRANCH  15  16
ENDBRANCH   1  15
TORSDOF 6
ENDMDL
MODEL 6
REMARK VINA RESULT:      -7.7      0.849      1.764
REMARK  Name = 
REMARK  6 active torsions:
REMARK  status: ('A' for Active; 'I' for Inactive)
REMARK    1  A    between atoms: C_1  and  C_15
REMARK    2  A    between atoms: C_2  and  C_3
REMARK    3  A    between atoms: C_6  and  C_7
REMARK    4  A    between atoms: C_15  and  N_16
REMARK    5  A    between atoms: N_16  and  C_17
REMARK    6  A    between atoms: C_17  and  C_18
REMARK                            x       y       z     vdW  Elec       q    Type
REMARK                         _______ _______ _______ _____ _____    ______ ____
ROOT
ATOM      1  C   UNL     1       4.950   6.832  17.225  0.00  0.00    +0.000 C 
ATOM      2  C   UNL     1       3.651   7.148  16.997  0.00  0.00    +0.000 C 
ENDROOT
BRANCH   2   3
ATOM      3  C   UNL     1       2.776   7.803  18.009  0.00  0.00    +0.000 A 
ATOM      4  C   UNL     1       2.529   7.203  19.268  0.00  0.00    +0.000 A 
ATOM      5  C   UNL     1       1.750   7.828  20.204  0.00  0.00    +0.000 A 
ATOM      6  C   UNL     1       1.148   9.070  19.974  0.00  0.00    +0.000 A 
ATOM      7  C   UNL     1       1.382   9.693  18.692  0.00  0.00    +0.000 A 
ATOM      8  C   UNL     1       2.193   9.057  17.742  0.00  0.00    +0.000 A 
BRANCH   6   9
ATOM      9  C   UNL     1       0.343   9.739  21.039  0.00  0.00    +0.000 A 
ATOM     10  C   UNL     1       0.234   9.162  22.320  0.00  0.00    +0.000 A 
ATOM     11  C   UNL     1      -0.516   9.764  23.315  0.00  0.00    +0.000 A 
ATOM     12  C   UNL     1      -1.208  10.956  23.068  0.00  0.00    +0.000 A 
ATOM     13  C   UNL     1      -1.138  11.545  21.800  0.00  0.00    +0.000 A 
ATOM     14  C   UNL     1      -0.357  10.931  20.800  0.00  0.00    +0.000 A 
ENDBRANCH   6   9
ENDBRANCH   2   3
BRANCH   1  15
ATOM     15  C   UNL     1       5.893   6.262  16.188  0.00  0.00    +0.000 C 
BRANCH  15  16
ATOM     16  N   UNL     1       6.357   4.914  16.568  0.00  0.00    +0.000 NA
ATOM     17  H   UNL     1       6.628   4.919  17.579  0.00  0.00    +0.000 HD
BRANCH  16  18
ATOM     18  C   UNL     1       5.302   3.866  16.427  0.00  0.00    +0.000 C 
BRANCH  18  19
ATOM     19  C   UNL     1       4.379   3.782  17.575  0.00  0.00    +0.000 A 
ATOM     20  C   UNL     1       4.892   3.587  18.888  0.00  0.00    +0.000 A 
ATOM     21  C   UNL     1       4.039   3.211  19.934  0.00  0.00    +0.000 A 
ATOM     22  C   UNL     1       2.700   3.044  19.631  0.00  0.00    +0.000 A 
ATOM     23  C   UNL     1       2.156   3.419  18.424  0.00  0.00    +0.000 A 
ATOM     24  C   UNL     1       2.985   3.757  17.353  0.00  0.00    +0.000 A 
ATOM     25  C   UNL     1       0.703   3.139  18.522  0.00  0.00    +0.000 C 
ATOM     26  C   UNL     1       0.898   1.864  19.385  0.00  0.00    +0.000 C 
ATOM     27  O   UNL     1       1.813   2.327  20.336  0.00  0.00    +0.000 OA
ENDBRANCH  18  19
ENDBRANCH  16  18
ENDBRANCH  15  16
ENDBRANCH   1  15
TORSDOF 6
ENDMDL
MODEL 7
REMARK VINA RESULT:      -7.7      0.931      1.800
REMARK  Name = 
REMARK  6 active torsions:
REMARK  status: ('A' for Active; 'I' for Inactive)
REMARK    1  A    between atoms: C_1  and  C_15
REMARK    2  A    between atoms: C_2  and  C_3
REMARK    3  A    between atoms: C_6  and  C_7
REMARK    4  A    between atoms: C_15  and  N_16
REMARK    5  A    between atoms: N_16  and  C_17
REMARK    6  A    between atoms: C_17  and  C_18
REMARK                            x       y       z     vdW  Elec       q    Type
REMARK                         _______ _______ _______ _____ _____    ______ ____
ROOT
ATOM      1  C   UNL     1       4.868   6.979  17.174  0.00  0.00    +0.000 C 
ATOM      2  C   UNL     1       3.525   7.149  17.078  0.00  0.00    +0.000 C 
ENDROOT
BRANCH   2   3
ATOM      3  C   UNL     1       2.712   7.850  18.111  0.00  0.00    +0.000 A 
ATOM      4  C   UNL     1       2.113   9.106  17.850  0.00  0.00    +0.000 A 
ATOM      5  C   UNL     1       1.341   9.727  18.794  0.00  0.00    +0.000 A 
ATOM      6  C   UNL     1       1.112   9.176  20.059  0.00  0.00    +0.000 A 
ATOM      7  C   UNL     1       1.722   7.899  20.347  0.00  0.00    +0.000 A 
ATOM      8  C   UNL     1       2.499   7.260  19.372  0.00  0.00    +0.000 A 
BRANCH   6   9
ATOM      9  C   UNL     1       0.226   9.864  21.045  0.00  0.00    +0.000 A 
ATOM     10  C   UNL     1      -0.410  11.076  20.708  0.00  0.00    +0.000 A 
ATOM     11  C   UNL     1      -1.227  11.732  21.613  0.00  0.00    +0.000 A 
ATOM     12  C   UNL     1      -1.426  11.217  22.900  0.00  0.00    +0.000 A 
ATOM     13  C   UNL     1      -0.793  10.027  23.274  0.00  0.00    +0.000 A 
ATOM     14  C   UNL     1       0.023   9.360  22.338  0.00  0.00    +0.000 A 
ENDBRANCH   6   9
ENDBRANCH   2   3
BRANCH   1  15
ATOM     15  C   UNL     1       5.737   6.365  16.099  0.00  0.00    +0.000 C 
BRANCH  15  16
ATOM     16  N   UNL     1       5.100   5.170  15.511  0.00  0.00    +0.000 NA
ATOM     17  H   UNL     1       5.536   4.974  14.580  0.00  0.00    +0.000 HD
BRANCH  16  18
ATOM     18  C   UNL     1       5.297   3.935  16.328  0.00  0.00    +0.000 C 
BRANCH  18  19
ATOM     19  C   UNL     1       4.410   3.842  17.504  0.00  0.00    +0.000 A 
ATOM     20  C   UNL     1       4.966   3.691  18.805  0.00  0.00    +0.000 A 
ATOM     21  C   UNL     1       4.156   3.306  19.882  0.00  0.00    +0.000 A 
ATOM     22  C   UNL     1       2.816   3.087  19.620  0.00  0.00    +0.000 A 
ATOM     23  C   UNL     1       2.226   3.418  18.422  0.00  0.00    +0.000 A 
ATOM     24  C   UNL     1       3.012   3.763  17.321  0.00  0.00    +0.000 A 
ATOM     25  C   UNL     1       0.787   3.089  18.566  0.00  0.00    +0.000 C 
ATOM     26  C   UNL     1       1.051   1.839  19.448  0.00  0.00    +0.000 C 
ATOM     27  O   UNL     1       1.975   2.353  20.364  0.00  0.00    +0.000 OA
ENDBRANCH  18  19
ENDBRANCH  16  18
ENDBRANCH  15  16
ENDBRANCH   1  15
TORSDOF 6
ENDMDL
MODEL 8
REMARK VINA RESULT:      -7.6      2.445      4.139
REMARK  Name = 
REMARK  6 active torsions:
REMARK  status: ('A' for Active; 'I' for Inactive)
REMARK    1  A    between atoms: C_1  and  C_15
REMARK    2  A    between atoms: C_2  and  C_3
REMARK    3  A    between atoms: C_6  and  C_7
REMARK    4  A    between atoms: C_15  and  N_16
REMARK    5  A    between atoms: N_16  and  C_17
REMARK    6  A    between atoms: C_17  and  C_18
REMARK                            x       y       z     vdW  Elec       q    Type
REMARK                         _______ _______ _______ _____ _____    ______ ____
ROOT
ATOM      1  C   UNL     1       1.183   4.588  20.635  0.00  0.00    +0.000 C 
ATOM      2  C   UNL     1       2.069   5.612  20.720  0.00  0.00    +0.000 C 
ENDROOT
BRANCH   2   3
ATOM      3  C   UNL     1       1.750   7.008  20.312  0.00  0.00    +0.000 A 
ATOM      4  C   UNL     1       2.028   7.476  19.005  0.00  0.00    +0.000 A 
ATOM      5  C   UNL     1       1.702   8.751  18.630  0.00  0.00    +0.000 A 
ATOM      6  C   UNL     1       1.098   9.661  19.504  0.00  0.00    +0.000 A 
ATOM      7  C   UNL     1       0.815   9.204  20.845  0.00  0.00    +0.000 A 
ATOM      8  C   UNL     1       1.137   7.893  21.220  0.00  0.00    +0.000 A 
BRANCH   6   9
ATOM      9  C   UNL     1       0.716  11.028  19.042  0.00  0.00    +0.000 A 
ATOM     10  C   UNL     1       1.671  12.065  19.015  0.00  0.00    +0.000 A 
ATOM     11  C   UNL     1       1.331  13.340  18.599  0.00  0.00    +0.000 A 
ATOM     12  C   UNL     1       0.019  13.642  18.213  0.00  0.00    +0.000 A 
ATOM     13  C   UNL     1      -0.958  12.641  18.248  0.00  0.00    +0.000 A 
ATOM     14  C   UNL     1      -0.596  11.341  18.658  0.00  0.00    +0.000 A 
ENDBRANCH   6   9
ENDBRANCH   2   3
BRANCH   1  15
ATOM     15  C   UNL     1       1.439   3.183  21.135  0.00  0.00    +0.000 C 
BRANCH  15  16
ATOM     16  N   UNL     1       2.785   2.714  20.752  0.00  0.00    +0.000 NA
ATOM     17  H   UNL     1       2.994   1.824  21.262  0.00  0.00    +0.000 HD
BRANCH  16  18
ATOM     18  C   UNL     1       2.907   2.397  19.297  0.00  0.00    +0.000 C 
BRANCH  18  19
ATOM     19  C   UNL     1       3.779   3.323  18.549  0.00  0.00    +0.000 A 
ATOM     20  C   UNL     1       3.658   3.428  17.136  0.00  0.00    +0.000 A 
ATOM     21  C   UNL     1       4.656   4.062  16.384  0.00  0.00    +0.000 A 
ATOM     22  C   UNL     1       5.740   4.572  17.073  0.00  0.00    +0.000 A 
ATOM     23  C   UNL     1       5.780   4.656  18.446  0.00  0.00    +0.000 A 
ATOM     24  C   UNL     1       4.822   3.998  19.219  0.00  0.00    +0.000 A 
ATOM     25  C   UNL     1       7.067   5.311  18.783  0.00  0.00    +0.000 C 
ATOM     26  C   UNL     1       7.838   4.635  17.618  0.00  0.00    +0.000 C 
ATOM     27  O   UNL     1       6.950   4.841  16.558  0.00  0.00    +0.000 OA
ENDBRANCH  18  19
ENDBRANCH  16  18
ENDBRANCH  15  16
ENDBRANCH   1  15
TORSDOF 6
ENDMDL
MODEL 9
REMARK VINA RESULT:      -7.5      7.089     10.295
REMARK  Name = 
REMARK  6 active torsions:
REMARK  status: ('A' for Active; 'I' for Inactive)
REMARK    1  A    between atoms: C_1  and  C_15
REMARK    2  A    between atoms: C_2  and  C_3
REMARK    3  A    between atoms: C_6  and  C_7
REMARK    4  A    between atoms: C_15  and  N_16
REMARK    5  A    between atoms: N_16  and  C_17
REMARK    6  A    between atoms: C_17  and  C_18
REMARK                            x       y       z     vdW  Elec       q    Type
REMARK                         _______ _______ _______ _____ _____    ______ ____
ROOT
ATOM      1  C   UNL     1       8.027   9.021  18.211  0.00  0.00    +0.000 C 
ATOM      2  C   UNL     1       7.919   7.918  17.428  0.00  0.00    +0.000 C 
ENDROOT
BRANCH   2   3
ATOM      3  C   UNL     1       6.824   6.918  17.567  0.00  0.00    +0.000 A 
ATOM      4  C   UNL     1       6.959   5.791  18.414  0.00  0.00    +0.000 A 
ATOM      5  C   UNL     1       5.935   4.894  18.560  0.00  0.00    +0.000 A 
ATOM      6  C   UNL     1       4.718   5.025  17.882  0.00  0.00    +0.000 A 
ATOM      7  C   UNL     1       4.566   6.164  17.007  0.00  0.00    +0.000 A 
ATOM      8  C   UNL     1       5.611   7.088  16.872  0.00  0.00    +0.000 A 
BRANCH   6   9
ATOM      9  C   UNL     1       3.609   4.050  18.104  0.00  0.00    +0.000 A 
ATOM     10  C   UNL     1       2.268   4.442  17.925  0.00  0.00    +0.000 A 
ATOM     11  C   UNL     1       1.228   3.554  18.137  0.00  0.00    +0.000 A 
ATOM     12  C   UNL     1       1.481   2.243  18.557  0.00  0.00    +0.000 A 
ATOM     13  C   UNL     1       2.801   1.826  18.765  0.00  0.00    +0.000 A 
ATOM     14  C   UNL     1       3.853   2.736  18.530  0.00  0.00    +0.000 A 
ENDBRANCH   6   9
ENDBRANCH   2   3
BRANCH   1  15
ATOM     15  C   UNL     1       9.064  10.107  18.030  0.00  0.00    +0.000 C 
BRANCH  15  16
ATOM     16  N   UNL     1       9.342  10.801  19.302  0.00  0.00    +0.000 NA
ATOM     17  H   UNL     1       9.371  10.096  20.076  0.00  0.00    +0.000 HD
BRANCH  16  18
ATOM     18  C   UNL     1      10.667  11.490  19.320  0.00  0.00    +0.000 C 
BRANCH  18  19
ATOM     19  C   UNL     1      10.771  12.622  18.379  0.00  0.00    +0.000 A 
ATOM     20  C   UNL     1      11.873  12.703  17.483  0.00  0.00    +0.000 A 
ATOM     21  C   UNL     1      12.147  13.897  16.802  0.00  0.00    +0.000 A 
ATOM     22  C   UNL     1      11.308  14.969  17.040  0.00  0.00    +0.000 A 
ATOM     23  C   UNL     1      10.130  14.853  17.743  0.00  0.00    +0.000 A 
ATOM     24  C   UNL     1       9.852  13.691  18.464  0.00  0.00    +0.000 A 
ATOM     25  C   UNL     1       9.501  16.196  17.718  0.00  0.00    +0.000 C 
ATOM     26  C   UNL     1      10.855  16.949  17.799  0.00  0.00    +0.000 C 
ATOM     27  O   UNL     1      11.597  16.262  16.832  0.00  0.00    +0.000 OA
ENDBRANCH  18  19
ENDBRANCH  16  18
ENDBRANCH  15  16
ENDBRANCH   1  15
TORSDOF 6
ENDMDL
