MODEL 1
REMARK VINA RESULT:      -7.8      0.000      0.000
REMARK  Name = 
REMARK  9 active torsions:
REMARK  status: ('A' for Active; 'I' for Inactive)
REMARK    1  A    between atoms: C_1  and  C_2
REMARK    2  A    between atoms: C_2  and  C_3
REMARK    3  A    between atoms: C_3  and  O_4
REMARK    4  A    between atoms: O_4  and  C_5
REMARK    5  A    between atoms: C_5  and  C_6
REMARK    6  A    between atoms: C_5  and  C_15
REMARK    7  A    between atoms: C_5  and  C_21
REMARK    8  A    between atoms: C_6  and  O_8
REMARK    9  A    between atoms: O_8  and  C_9
REMARK                            x       y       z     vdW  Elec       q    Type
REMARK                         _______ _______ _______ _____ _____    ______ ____
ROOT
ATOM      1  C   UNL     1       4.501   5.616  17.823  0.00  0.00    +0.000 C 
ENDROOT
BRANCH   1   2
ATOM      2  C   UNL     1       5.943   6.160  18.101  0.00  0.00    +0.000 A 
ATOM      3  C   UNL     1       6.817   5.632  19.066  0.00  0.00    +0.000 A 
ATOM      4  C   UNL     1       8.099   6.171  19.256  0.00  0.00    +0.000 A 
ATOM      5  C   UNL     1       8.519   7.274  18.514  0.00  0.00    +0.000 A 
ATOM      6  C   UNL     1       7.660   7.850  17.596  0.00  0.00    +0.000 A 
ATOM      7  C   UNL     1       6.386   7.305  17.403  0.00  0.00    +0.000 A 
ENDBRANCH   1   2
BRANCH   1   8
ATOM      8  C   UNL     1       3.338   6.551  18.314  0.00  0.00    +0.000 A 
ATOM      9  C   UNL     1       2.815   7.587  17.516  0.00  0.00    +0.000 A 
ATOM     10  C   UNL     1       1.946   8.549  18.042  0.00  0.00    +0.000 A 
ATOM     11  C   UNL     1       1.509   8.450  19.357  0.00  0.00    +0.000 A 
ATOM     12  C   UNL     1       1.898   7.361  20.128  0.00  0.00    +0.000 A 
ATOM     13  C   UNL     1       2.789   6.417  19.608  0.00  0.00    +0.000 A 
ENDBRANCH   1   8
BRANCH   1  14
ATOM     14  C   UNL     1       4.374   4.218  18.608  0.00  0.00    +0.000 C 
ATOM     15  O   UNL     1       5.287   3.722  19.269  0.00  0.00    +0.000 OA
BRANCH  14  16
ATOM     16  O   UNL     1       3.203   3.522  18.344  0.00  0.00    +0.000 OA
BRANCH  16  17
ATOM     17  C   UNL     1       2.959   2.411  19.257  0.00  0.00    +0.000 C 
ATOM     18  C   UNL     1       1.511   1.951  19.073  0.00  0.00    +0.000 C 
ATOM     19  C   UNL     1       0.535   2.865  19.807  0.00  0.00    +0.000 C 
ATOM     20  N   UNL     1       0.823   2.875  21.237  0.00  0.00    +0.000 NA
ATOM     21  C   UNL     1       2.139   3.463  21.473  0.00  0.00    +0.000 C 
ATOM     22  C   UNL     1       3.263   2.742  20.728  0.00  0.00    +0.000 C 
ATOM     23  H   UNL     1       0.799   1.917  21.596  0.00  0.00    +0.000 HD
ENDBRANCH  16  17
ENDBRANCH  14  16
ENDBRANCH   1  14
BRANCH   1  24
ATOM     24  O   UNL     1       4.376   5.396  16.391  0.00  0.00    +0.000 OA
BRANCH  24  25
ATOM     25  C   UNL     1       5.091   4.266  15.859  0.00  0.00    +0.000 C 
BRANCH  25  27
ATOM     26  C   UNL     1       7.195   4.922  14.672  0.00  0.00    +0.000 C 
ATOM     27  C   UNL     1       5.705   4.659  14.525  0.00  0.00    +0.000 C 
ENDBRANCH  25  27
ENDBRANCH  24  25
ENDBRANCH   1  24
TORSDOF 8
ENDMDL
MODEL 2
REMARK VINA RESULT:      -7.7      0.993      4.061
REMARK  Name = 
REMARK  9 active torsions:
REMARK  status: ('A' for Active; 'I' for Inactive)
REMARK    1  A    between atoms: C_1  and  C_2
REMARK    2  A    between atoms: C_2  and  C_3
REMARK    3  A    between atoms: C_3  and  O_4
REMARK    4  A    between atoms: O_4  and  C_5
REMARK    5  A    between atoms: C_5  and  C_6
REMARK    6  A    between atoms: C_5  and  C_15
REMARK    7  A    between atoms: C_5  and  C_21
REMARK    8  A    between atoms: C_6  and  O_8
REMARK    9  A    between atoms: O_8  and  C_9
REMARK                            x       y       z     vdW  Elec       q    Type
REMARK                         _______ _______ _______ _____ _____    ______ ____
ROOT
ATOM      1  C   UNL     1       5.107   5.176  18.287  0.00  0.00    +0.000 C 
ENDROOT
BRANCH   1   2
ATOM      2  C   UNL     1       3.964   6.204  18.585  0.00  0.00    +0.000 A 
ATOM      3  C   UNL     1       3.097   6.126  19.688  0.00  0.00    +0.000 A 
ATOM      4  C   UNL     1       2.095   7.089  19.892  0.00  0.00    +0.000 A 
ATOM      5  C   UNL     1       1.914   8.124  18.976  0.00  0.00    +0.000 A 
ATOM      6  C   UNL     1       2.717   8.194  17.852  0.00  0.00    +0.000 A 
ATOM      7  C   UNL     1       3.719   7.239  17.657  0.00  0.00    +0.000 A 
ENDBRANCH   1   2
BRANCH   1   8
ATOM      8  C   UNL     1       5.392   4.930  16.762  0.00  0.00    +0.000 A 
ATOM      9  C   UNL     1       5.835   3.687  16.268  0.00  0.00    +0.000 A 
ATOM     10  C   UNL     1       6.300   3.545  14.956  0.00  0.00    +0.000 A 
ATOM     11  C   UNL     1       6.252   4.620  14.077  0.00  0.00    +0.000 A 
ATOM     12  C   UNL     1       5.692   5.821  14.495  0.00  0.00    +0.000 A 
ATOM     13  C   UNL     1       5.254   5.968  15.815  0.00  0.00    +0.000 A 
ENDBRANCH   1   8
BRANCH   1  14
ATOM     14  C   UNL     1       4.652   3.775  18.934  0.00  0.00    +0.000 C 
ATOM     15  O   UNL     1       5.357   3.118  19.701  0.00  0.00    +0.000 OA
BRANCH  14  16
ATOM     16  O   UNL     1       3.463   3.273  18.425  0.00  0.00    +0.000 OA
BRANCH  16  17
ATOM     17  C   UNL     1       2.860   2.235  19.252  0.00  0.00    +0.000 C 
ATOM     18  C   UNL     1       1.413   2.038  18.792  0.00  0.00    +0.000 C 
ATOM     19  C   UNL     1       0.495   3.121  19.351  0.00  0.00    +0.000 C 
ATOM     20  N   UNL     1       0.508   3.096  20.809  0.00  0.00    +0.000 NA
ATOM     21  C   UNL     1       1.840   3.443  21.299  0.00  0.00    +0.000 C 
ATOM     22  C   UNL     1       2.937   2.524  20.761  0.00  0.00    +0.000 C 
ATOM     23  H   UNL     1       0.248   2.163  21.137  0.00  0.00    +0.000 HD
ENDBRANCH  16  17
ENDBRANCH  14  16
ENDBRANCH   1  14
BRANCH   1  24
ATOM     24  O   UNL     1       6.318   5.654  18.937  0.00  0.00    +0.000 OA
BRANCH  24  25
ATOM     25  C   UNL     1       7.456   5.862  18.081  0.00  0.00    +0.000 C 
BRANCH  25  27
ATOM     26  C   UNL     1       7.663   8.295  17.528  0.00  0.00    +0.000 C 
ATOM     27  C   UNL     1       8.116   7.179  18.456  0.00  0.00    +0.000 C 
ENDBRANCH  25  27
ENDBRANCH  24  25
ENDBRANCH   1  24
TORSDOF 8
ENDMDL
MODEL 3
REMARK VINA RESULT:      -7.7      1.048      4.118
REMARK  Name = 
REMARK  9 active torsions:
REMARK  status: ('A' for Active; 'I' for Inactive)
REMARK    1  A    between atoms: C_1  and  C_2
REMARK    2  A    between atoms: C_2  and  C_3
REMARK    3  A    between atoms: C_3  and  O_4
REMARK    4  A    between atoms: O_4  and  C_5
REMARK    5  A    between atoms: C_5  and  C_6
REMARK    6  A    between atoms: C_5  and  C_15
REMARK    7  A    between atoms: C_5  and  C_21
REMARK    8  A    between atoms: C_6  and  O_8
REMARK    9  A    between atoms: O_8  and  C_9
REMARK                            x       y       z     vdW  Elec       q    Type
REMARK                         _______ _______ _______ _____ _____    ______ ____
ROOT
ATOM      1  C   UNL     1       5.156   5.355  18.356  0.00  0.00    +0.000 C 
ENDROOT
BRANCH   1   2
ATOM      2  C   UNL     1       3.963   6.348  18.561  0.00  0.00    +0.000 A 
ATOM      3  C   UNL     1       3.669   7.421  17.702  0.00  0.00    +0.000 A 
ATOM      4  C   UNL     1       2.578   8.270  17.949  0.00  0.00    +0.000 A 
ATOM      5  C   UNL     1       1.783   8.088  19.080  0.00  0.00    +0.000 A 
ATOM      6  C   UNL     1       2.082   7.073  19.972  0.00  0.00    +0.000 A 
ATOM      7  C   UNL     1       3.164   6.225  19.719  0.00  0.00    +0.000 A 
ENDBRANCH   1   2
BRANCH   1   8
ATOM      8  C   UNL     1       5.550   5.099  16.858  0.00  0.00    +0.000 A 
ATOM      9  C   UNL     1       5.289   6.035  15.838  0.00  0.00    +0.000 A 
ATOM     10  C   UNL     1       5.435   5.705  14.486  0.00  0.00    +0.000 A 
ATOM     11  C   UNL     1       5.930   4.460  14.121  0.00  0.00    +0.000 A 
ATOM     12  C   UNL     1       6.328   3.565  15.107  0.00  0.00    +0.000 A 
ATOM     13  C   UNL     1       6.154   3.887  16.457  0.00  0.00    +0.000 A 
ENDBRANCH   1   8
BRANCH   1  14
ATOM     14  C   UNL     1       4.704   3.949  18.993  0.00  0.00    +0.000 C 
ATOM     15  O   UNL     1       5.390   3.311  19.793  0.00  0.00    +0.000 OA
BRANCH  14  16
ATOM     16  O   UNL     1       3.546   3.419  18.439  0.00  0.00    +0.000 OA
BRANCH  16  17
ATOM     17  C   UNL     1       2.958   2.340  19.224  0.00  0.00    +0.000 C 
ATOM     18  C   UNL     1       1.746   1.800  18.460  0.00  0.00    +0.000 C 
ATOM     19  C   UNL     1       0.526   2.697  18.640  0.00  0.00    +0.000 C 
ATOM     20  N   UNL     1       0.162   2.785  20.050  0.00  0.00    +0.000 NA
ATOM     21  C   UNL     1       1.230   3.448  20.796  0.00  0.00    +0.000 C 
ATOM     22  C   UNL     1       2.583   2.751  20.658  0.00  0.00    +0.000 C 
ATOM     23  H   UNL     1       0.010   1.845  20.423  0.00  0.00    +0.000 HD
ENDBRANCH  16  17
ENDBRANCH  14  16
ENDBRANCH   1  14
BRANCH   1  24
ATOM     24  O   UNL     1       6.304   5.881  19.078  0.00  0.00    +0.000 OA
BRANCH  24  25
ATOM     25  C   UNL     1       7.553   5.884  18.364  0.00  0.00    +0.000 C 
BRANCH  25  27
ATOM     26  C   UNL     1       7.642   8.234  17.504  0.00  0.00    +0.000 C 
ATOM     27  C   UNL     1       8.202   7.251  18.519  0.00  0.00    +0.000 C 
ENDBRANCH  25  27
ENDBRANCH  24  25
ENDBRANCH   1  24
TORSDOF 8
ENDMDL
MODEL 4
REMARK VINA RESULT:      -7.7      1.096      4.207
REMARK  Name = 
REMARK  9 active torsions:
REMARK  status: ('A' for Active; 'I' for Inactive)
REMARK    1  A    between atoms: C_1  and  C_2
REMARK    2  A    between atoms: C_2  and  C_3
REMARK    3  A    between atoms: C_3  and  O_4
REMARK    4  A    between atoms: O_4  and  C_5
REMARK    5  A    between atoms: C_5  and  C_6
REMARK    6  A    between atoms: C_5  and  C_15
REMARK    7  A    between atoms: C_5  and  C_21
REMARK    8  A    between atoms: C_6  and  O_8
REMARK    9  A    between atoms: O_8  and  C_9
REMARK                            x       y       z     vdW  Elec       q    Type
REMARK                         _______ _______ _______ _____ _____    ______ ____
ROOT
ATOM      1  C   UNL     1       5.043   4.410  17.606  0.00  0.00    +0.000 C 
ENDROOT
BRANCH   1   2
ATOM      2  C   UNL     1       4.131   5.598  18.065  0.00  0.00    +0.000 A 
ATOM      3  C   UNL     1       3.373   5.603  19.249  0.00  0.00    +0.000 A 
ATOM      4  C   UNL     1       2.580   6.709  19.597  0.00  0.00    +0.000 A 
ATOM      5  C   UNL     1       2.496   7.813  18.750  0.00  0.00    +0.000 A 
ATOM      6  C   UNL     1       3.188   7.812  17.552  0.00  0.00    +0.000 A 
ATOM      7  C   UNL     1       3.983   6.713  17.213  0.00  0.00    +0.000 A 
ENDBRANCH   1   2
BRANCH   1   8
ATOM      8  C   UNL     1       5.593   4.530  16.141  0.00  0.00    +0.000 A 
ATOM      9  C   UNL     1       4.818   4.193  15.014  0.00  0.00    +0.000 A 
ATOM     10  C   UNL     1       5.386   4.086  13.739  0.00  0.00    +0.000 A 
ATOM     11  C   UNL     1       6.725   4.399  13.544  0.00  0.00    +0.000 A 
ATOM     12  C   UNL     1       7.482   4.869  14.611  0.00  0.00    +0.000 A 
ATOM     13  C   UNL     1       6.918   4.947  15.888  0.00  0.00    +0.000 A 
ENDBRANCH   1   8
BRANCH   1  14
ATOM     14  C   UNL     1       4.144   3.078  17.687  0.00  0.00    +0.000 C 
ATOM     15  O   UNL     1       4.547   1.964  17.351  0.00  0.00    +0.000 OA
BRANCH  14  16
ATOM     16  O   UNL     1       2.813   3.308  18.006  0.00  0.00    +0.000 OA
BRANCH  16  17
ATOM     17  C   UNL     1       2.191   2.221  18.752  0.00  0.00    +0.000 C 
ATOM     18  C   UNL     1       0.713   2.567  18.956  0.00  0.00    +0.000 C 
ATOM     19  C   UNL     1       0.523   3.560  20.099  0.00  0.00    +0.000 C 
ATOM     20  N   UNL     1       1.029   3.001  21.348  0.00  0.00    +0.000 NA
ATOM     21  C   UNL     1       2.474   2.806  21.255  0.00  0.00    +0.000 C 
ATOM     22  C   UNL     1       2.886   1.909  20.088  0.00  0.00    +0.000 C 
ATOM     23  H   UNL     1       0.568   2.107  21.533  0.00  0.00    +0.000 HD
ENDBRANCH  16  17
ENDBRANCH  14  16
ENDBRANCH   1  14
BRANCH   1  24
ATOM     24  O   UNL     1       6.156   4.317  18.538  0.00  0.00    +0.000 OA
BRANCH  24  25
ATOM     25  C   UNL     1       6.411   5.484  19.339  0.00  0.00    +0.000 C 
BRANCH  25  27
ATOM     26  C   UNL     1       7.940   7.183  18.318  0.00  0.00    +0.000 C 
ATOM     27  C   UNL     1       7.858   5.908  19.140  0.00  0.00    +0.000 C 
ENDBRANCH  25  27
ENDBRANCH  24  25
ENDBRANCH   1  24
TORSDOF 8
ENDMDL
MODEL 5
REMARK VINA RESULT:      -7.6      1.119      4.314
REMARK  Name = 
REMARK  9 active torsions:
REMARK  status: ('A' for Active; 'I' for Inactive)
REMARK    1  A    between atoms: C_1  and  C_2
REMARK    2  A    between atoms: C_2  and  C_3
REMARK    3  A    between atoms: C_3  and  O_4
REMARK    4  A    between atoms: O_4  and  C_5
REMARK    5  A    between atoms: C_5  and  C_6
REMARK    6  A    between atoms: C_5  and  C_15
REMARK    7  A    between atoms: C_5  and  C_21
REMARK    8  A    between atoms: C_6  and  O_8
REMARK    9  A    between atoms: O_8  and  C_9
REMARK                            x       y       z     vdW  Elec       q    Type
REMARK                         _______ _______ _______ _____ _____    ______ ____
ROOT
ATOM      1  C   UNL     1       5.059   4.291  17.648  0.00  0.00    +0.000 C 
ENDROOT
BRANCH   1   2
ATOM      2  C   UNL     1       4.161   5.533  17.969  0.00  0.00    +0.000 A 
ATOM      3  C   UNL     1       4.077   6.680  17.161  0.00  0.00    +0.000 A 
ATOM      4  C   UNL     1       3.245   7.755  17.512  0.00  0.00    +0.000 A 
ATOM      5  C   UNL     1       2.512   7.723  18.698  0.00  0.00    +0.000 A 
ATOM      6  C   UNL     1       2.617   6.630  19.540  0.00  0.00    +0.000 A 
ATOM      7  C   UNL     1       3.440   5.558  19.182  0.00  0.00    +0.000 A 
ENDBRANCH   1   2
BRANCH   1   8
ATOM      8  C   UNL     1       5.702   4.295  16.215  0.00  0.00    +0.000 A 
ATOM      9  C   UNL     1       7.042   4.667  15.990  0.00  0.00    +0.000 A 
ATOM     10  C   UNL     1       7.535   4.885  14.699  0.00  0.00    +0.000 A 
ATOM     11  C   UNL     1       6.726   4.652  13.594  0.00  0.00    +0.000 A 
ATOM     12  C   UNL     1       5.443   4.151  13.779  0.00  0.00    +0.000 A 
ATOM     13  C   UNL     1       4.944   3.961  15.072  0.00  0.00    +0.000 A 
ENDBRANCH   1   8
BRANCH   1  14
ATOM     14  C   UNL     1       4.114   2.994  17.759  0.00  0.00    +0.000 C 
ATOM     15  O   UNL     1       4.486   1.854  17.475  0.00  0.00    +0.000 OA
BRANCH  14  16
ATOM     16  O   UNL     1       2.785   3.280  18.039  0.00  0.00    +0.000 OA
BRANCH  16  17
ATOM     17  C   UNL     1       2.102   2.231  18.787  0.00  0.00    +0.000 C 
ATOM     18  C   UNL     1       0.655   2.676  19.019  0.00  0.00    +0.000 C 
ATOM     19  C   UNL     1       0.552   3.668  20.173  0.00  0.00    +0.000 C 
ATOM     20  N   UNL     1       1.039   3.065  21.409  0.00  0.00    +0.000 NA
ATOM     21  C   UNL     1       2.466   2.773  21.290  0.00  0.00    +0.000 C 
ATOM     22  C   UNL     1       2.797   1.861  20.109  0.00  0.00    +0.000 C 
ATOM     23  H   UNL     1       0.521   2.203  21.594  0.00  0.00    +0.000 HD
ENDBRANCH  16  17
ENDBRANCH  14  16
ENDBRANCH   1  14
BRANCH   1  24
ATOM     24  O   UNL     1       6.110   4.229  18.652  0.00  0.00    +0.000 OA
BRANCH  24  25
ATOM     25  C   UNL     1       6.364   5.445  19.378  0.00  0.00    +0.000 C 
BRANCH  25  27
ATOM     26  C   UNL     1       7.921   7.094  18.318  0.00  0.00    +0.000 C 
ATOM     27  C   UNL     1       7.818   5.842  19.174  0.00  0.00    +0.000 C 
ENDBRANCH  25  27
ENDBRANCH  24  25
ENDBRANCH   1  24
TORSDOF 8
ENDMDL
MODEL 6
REMARK VINA RESULT:      -7.5      0.300      1.028
REMARK  Name = 
REMARK  9 active torsions:
REMARK  status: ('A' for Active; 'I' for Inactive)
REMARK    1  A    between atoms: C_1  and  C_2
REMARK    2  A    between atoms: C_2  and  C_3
REMARK    3  A    between atoms: C_3  and  O_4
REMARK    4  A    between atoms: O_4  and  C_5
REMARK    5  A    between atoms: C_5  and  C_6
REMARK    6  A    between atoms: C_5  and  C_15
REMARK    7  A    between atoms: C_5  and  C_21
REMARK    8  A    between atoms: C_6  and  O_8
REMARK    9  A    between atoms: O_8  and  C_9
REMARK                            x       y       z     vdW  Elec       q    Type
REMARK                         _______ _______ _______ _____ _____    ______ ____
ROOT
ATOM      1  C   UNL     1       4.542   5.688  17.770  0.00  0.00    +0.000 C 
ENDROOT
BRANCH   1   2
ATOM      2  C   UNL     1       5.967   6.269  18.058  0.00  0.00    +0.000 A 
ATOM      3  C   UNL     1       6.540   7.346  17.360  0.00  0.00    +0.000 A 
ATOM      4  C   UNL     1       7.825   7.815  17.678  0.00  0.00    +0.000 A 
ATOM      5  C   UNL     1       8.578   7.192  18.672  0.00  0.00    +0.000 A 
ATOM      6  C   UNL     1       8.062   6.096  19.338  0.00  0.00    +0.000 A 
ATOM      7  C   UNL     1       6.779   5.637  19.025  0.00  0.00    +0.000 A 
ENDBRANCH   1   2
BRANCH   1   8
ATOM      8  C   UNL     1       3.351   6.600  18.237  0.00  0.00    +0.000 A 
ATOM      9  C   UNL     1       2.789   7.591  17.408  0.00  0.00    +0.000 A 
ATOM     10  C   UNL     1       1.892   8.541  17.907  0.00  0.00    +0.000 A 
ATOM     11  C   UNL     1       1.465   8.472  19.228  0.00  0.00    +0.000 A 
ATOM     12  C   UNL     1       1.895   7.424  20.032  0.00  0.00    +0.000 A 
ATOM     13  C   UNL     1       2.814   6.492  19.538  0.00  0.00    +0.000 A 
ENDBRANCH   1   8
BRANCH   1  14
ATOM     14  C   UNL     1       4.438   4.296  18.568  0.00  0.00    +0.000 C 
ATOM     15  O   UNL     1       5.370   3.806  19.206  0.00  0.00    +0.000 OA
BRANCH  14  16
ATOM     16  O   UNL     1       3.260   3.597  18.343  0.00  0.00    +0.000 OA
BRANCH  16  17
ATOM     17  C   UNL     1       3.041   2.496  19.273  0.00  0.00    +0.000 C 
ATOM     18  C   UNL     1       1.628   1.953  19.047  0.00  0.00    +0.000 C 
ATOM     19  C   UNL     1       0.577   2.830  19.720  0.00  0.00    +0.000 C 
ATOM     20  N   UNL     1       0.808   2.888  21.160  0.00  0.00    +0.000 NA
ATOM     21  C   UNL     1       2.081   3.552  21.430  0.00  0.00    +0.000 C 
ATOM     22  C   UNL     1       3.270   2.876  20.746  0.00  0.00    +0.000 C 
ATOM     23  H   UNL     1       0.822   1.939  21.541  0.00  0.00    +0.000 HD
ENDBRANCH  16  17
ENDBRANCH  14  16
ENDBRANCH   1  14
BRANCH   1  24
ATOM     24  O   UNL     1       4.439   5.450  16.339  0.00  0.00    +0.000 OA
BRANCH  24  25
ATOM     25  C   UNL     1       5.187   4.332  15.828  0.00  0.00    +0.000 C 
BRANCH  25  27
ATOM     26  C   UNL     1       6.002   3.804  13.520  0.00  0.00    +0.000 C 
ATOM     27  C   UNL     1       6.041   4.807  14.662  0.00  0.00    +0.000 C 
ENDBRANCH  25  27
ENDBRANCH  24  25
ENDBRANCH   1  24
TORSDOF 8
ENDMDL
MODEL 7
REMARK VINA RESULT:      -7.4      1.086      4.027
REMARK  Name = 
REMARK  9 active torsions:
REMARK  status: ('A' for Active; 'I' for Inactive)
REMARK    1  A    between atoms: C_1  and  C_2
REMARK    2  A    between atoms: C_2  and  C_3
REMARK    3  A    between atoms: C_3  and  O_4
REMARK    4  A    between atoms: O_4  and  C_5
REMARK    5  A    between atoms: C_5  and  C_6
REMARK    6  A    between atoms: C_5  and  C_15
REMARK    7  A    between atoms: C_5  and  C_21
REMARK    8  A    between atoms: C_6  and  O_8
REMARK    9  A    between atoms: O_8  and  C_9
REMARK                            x       y       z     vdW  Elec       q    Type
REMARK                         _______ _______ _______ _____ _____    ______ ____
ROOT
ATOM      1  C   UNL     1       5.240   5.472  18.212  0.00  0.00    +0.000 C 
ENDROOT
BRANCH   1   2
ATOM      2  C   UNL     1       4.043   6.457  18.438  0.00  0.00    +0.000 A 
ATOM      3  C   UNL     1       3.162   6.396  19.531  0.00  0.00    +0.000 A 
ATOM      4  C   UNL     1       2.112   7.317  19.668  0.00  0.00    +0.000 A 
ATOM      5  C   UNL     1       1.896   8.292  18.695  0.00  0.00    +0.000 A 
ATOM      6  C   UNL     1       2.713   8.341  17.580  0.00  0.00    +0.000 A 
ATOM      7  C   UNL     1       3.763   7.427  17.451  0.00  0.00    +0.000 A 
ENDBRANCH   1   2
BRANCH   1   8
ATOM      8  C   UNL     1       5.542   5.136  16.708  0.00  0.00    +0.000 A 
ATOM      9  C   UNL     1       5.209   6.013  15.657  0.00  0.00    +0.000 A 
ATOM     10  C   UNL     1       5.274   5.610  14.319  0.00  0.00    +0.000 A 
ATOM     11  C   UNL     1       5.758   4.350  13.992  0.00  0.00    +0.000 A 
ATOM     12  C   UNL     1       6.225   3.514  14.998  0.00  0.00    +0.000 A 
ATOM     13  C   UNL     1       6.132   3.908  16.337  0.00  0.00    +0.000 A 
ENDBRANCH   1   8
BRANCH   1  14
ATOM     14  C   UNL     1       4.856   4.098  18.955  0.00  0.00    +0.000 C 
ATOM     15  O   UNL     1       5.614   3.505  19.723  0.00  0.00    +0.000 OA
BRANCH  14  16
ATOM     16  O   UNL     1       3.660   3.536  18.531  0.00  0.00    +0.000 OA
BRANCH  16  17
ATOM     17  C   UNL     1       3.134   2.520  19.434  0.00  0.00    +0.000 C 
ATOM     18  C   UNL     1       1.981   1.803  18.726  0.00  0.00    +0.000 C 
ATOM     19  C   UNL     1       0.696   2.621  18.778  0.00  0.00    +0.000 C 
ATOM     20  N   UNL     1       0.295   2.854  20.161  0.00  0.00    +0.000 NA
ATOM     21  C   UNL     1       1.294   3.681  20.834  0.00  0.00    +0.000 C 
ATOM     22  C   UNL     1       2.697   3.074  20.801  0.00  0.00    +0.000 C 
ATOM     23  H   UNL     1       0.201   1.958  20.645  0.00  0.00    +0.000 HD
ENDBRANCH  16  17
ENDBRANCH  14  16
ENDBRANCH   1  14
BRANCH   1  24
ATOM     24  O   UNL     1       6.421   6.058  18.827  0.00  0.00    +0.000 OA
BRANCH  24  25
ATOM     25  C   UNL     1       7.508   6.371  17.938  0.00  0.00    +0.000 C 
BRANCH  25  27
ATOM     26  C   UNL     1       8.477   8.630  18.410  0.00  0.00    +0.000 C 
ATOM     27  C   UNL     1       7.452   7.853  17.600  0.00  0.00    +0.000 C 
ENDBRANCH  25  27
ENDBRANCH  24  25
ENDBRANCH   1  24
TORSDOF 8
ENDMDL
MODEL 8
REMARK VINA RESULT:      -7.4      1.184      4.175
REMARK  Name = 
REMARK  9 active torsions:
REMARK  status: ('A' for Active; 'I' for Inactive)
REMARK    1  A    between atoms: C_1  and  C_2
REMARK    2  A    between atoms: C_2  and  C_3
REMARK    3  A    between atoms: C_3  and  O_4
REMARK    4  A    between atoms: O_4  and  C_5
REMARK    5  A    between atoms: C_5  and  C_6
REMARK    6  A    between atoms: C_5  and  C_15
REMARK    7  A    between atoms: C_5  and  C_21
REMARK    8  A    between atoms: C_6  and  O_8
REMARK    9  A    between atoms: O_8  and  C_9
REMARK                            x       y       z     vdW  Elec       q    Type
REMARK                         _______ _______ _______ _____ _____    ______ ____
ROOT
ATOM      1  C   UNL     1       5.102   5.313  16.634  0.00  0.00    +0.000 C 
ENDROOT
BRANCH   1   2
ATOM      2  C   UNL     1       5.637   4.891  15.224  0.00  0.00    +0.000 A 
ATOM      3  C   UNL     1       4.884   4.185  14.270  0.00  0.00    +0.000 A 
ATOM      4  C   UNL     1       5.430   3.844  13.023  0.00  0.00    +0.000 A 
ATOM      5  C   UNL     1       6.753   4.165  12.719  0.00  0.00    +0.000 A 
ATOM      6  C   UNL     1       7.535   4.811  13.660  0.00  0.00    +0.000 A 
ATOM      7  C   UNL     1       6.984   5.156  14.898  0.00  0.00    +0.000 A 
ENDBRANCH   1   2
BRANCH   1   8
ATOM      8  C   UNL     1       6.186   5.917  17.596  0.00  0.00    +0.000 A 
ATOM      9  C   UNL     1       6.859   7.122  17.314  0.00  0.00    +0.000 A 
ATOM     10  C   UNL     1       7.974   7.530  18.054  0.00  0.00    +0.000 A 
ATOM     11  C   UNL     1       8.392   6.789  19.152  0.00  0.00    +0.000 A 
ATOM     12  C   UNL     1       7.664   5.670  19.540  0.00  0.00    +0.000 A 
ATOM     13  C   UNL     1       6.568   5.249  18.781  0.00  0.00    +0.000 A 
ENDBRANCH   1   8
BRANCH   1  14
ATOM     14  C   UNL     1       4.517   3.983  17.325  0.00  0.00    +0.000 C 
ATOM     15  O   UNL     1       5.005   2.863  17.169  0.00  0.00    +0.000 OA
BRANCH  14  16
ATOM     16  O   UNL     1       3.308   4.167  17.982  0.00  0.00    +0.000 OA
BRANCH  16  17
ATOM     17  C   UNL     1       3.218   3.466  19.257  0.00  0.00    +0.000 C 
ATOM     18  C   UNL     1       2.331   2.233  19.062  0.00  0.00    +0.000 C 
ATOM     19  C   UNL     1       0.851   2.600  19.074  0.00  0.00    +0.000 C 
ATOM     20  N   UNL     1       0.489   3.215  20.347  0.00  0.00    +0.000 NA
ATOM     21  C   UNL     1       1.193   4.486  20.501  0.00  0.00    +0.000 C 
ATOM     22  C   UNL     1       2.713   4.346  20.413  0.00  0.00    +0.000 C 
ATOM     23  H   UNL     1       0.737   2.584  21.113  0.00  0.00    +0.000 HD
ENDBRANCH  16  17
ENDBRANCH  14  16
ENDBRANCH   1  14
BRANCH   1  24
ATOM     24  O   UNL     1       4.035   6.280  16.436  0.00  0.00    +0.000 OA
BRANCH  24  25
ATOM     25  C   UNL     1       3.931   7.321  17.425  0.00  0.00    +0.000 C 
BRANCH  25  27
ATOM     26  C   UNL     1       1.980   8.838  17.823  0.00  0.00    +0.000 C 
ATOM     27  C   UNL     1       2.487   7.406  17.895  0.00  0.00    +0.000 C 
ENDBRANCH  25  27
ENDBRANCH  24  25
ENDBRANCH   1  24
TORSDOF 8
ENDMDL
MODEL 9
REMARK VINA RESULT:      -7.3      2.318      5.375
REMARK  Name = 
REMARK  9 active torsions:
REMARK  status: ('A' for Active; 'I' for Inactive)
REMARK    1  A    between atoms: C_1  and  C_2
REMARK    2  A    between atoms: C_2  and  C_3
REMARK    3  A    between atoms: C_3  and  O_4
REMARK    4  A    between atoms: O_4  and  C_5
REMARK    5  A    between atoms: C_5  and  C_6
REMARK    6  A    between atoms: C_5  and  C_15
REMARK    7  A    between atoms: C_5  and  C_21
REMARK    8  A    between atoms: C_6  and  O_8
REMARK    9  A    between atoms: O_8  and  C_9
REMARK                            x       y       z     vdW  Elec       q    Type
REMARK                         _______ _______ _______ _____ _____    ______ ____
ROOT
ATOM      1  C   UNL     1       3.049   5.278  18.771  0.00  0.00    +0.000 C 
ENDROOT
BRANCH   1   2
ATOM      2  C   UNL     1       2.530   6.755  18.797  0.00  0.00    +0.000 A 
ATOM      3  C   UNL     1       2.611   7.642  17.710  0.00  0.00    +0.000 A 
ATOM      4  C   UNL     1       2.120   8.954  17.807  0.00  0.00    +0.000 A 
ATOM      5  C   UNL     1       1.576   9.418  19.004  0.00  0.00    +0.000 A 
ATOM      6  C   UNL     1       1.533   8.585  20.107  0.00  0.00    +0.000 A 
ATOM      7  C   UNL     1       2.016   7.276  20.004  0.00  0.00    +0.000 A 
ENDBRANCH   1   2
BRANCH   1   8
ATOM      8  C   UNL     1       2.430   4.342  19.870  0.00  0.00    +0.000 A 
ATOM      9  C   UNL     1       3.214   3.726  20.866  0.00  0.00    +0.000 A 
ATOM     10  C   UNL     1       2.694   2.725  21.692  0.00  0.00    +0.000 A 
ATOM     11  C   UNL     1       1.352   2.374  21.605  0.00  0.00    +0.000 A 
ATOM     12  C   UNL     1       0.521   3.061  20.728  0.00  0.00    +0.000 A 
ATOM     13  C   UNL     1       1.050   4.042  19.884  0.00  0.00    +0.000 A 
ENDBRANCH   1   8
BRANCH   1  14
ATOM     14  C   UNL     1       4.637   5.340  19.016  0.00  0.00    +0.000 C 
ATOM     15  O   UNL     1       5.172   6.088  19.836  0.00  0.00    +0.000 OA
BRANCH  14  16
ATOM     16  O   UNL     1       5.383   4.603  18.105  0.00  0.00    +0.000 OA
BRANCH  16  17
ATOM     17  C   UNL     1       6.479   5.351  17.500  0.00  0.00    +0.000 C 
ATOM     18  C   UNL     1       5.882   6.532  16.730  0.00  0.00    +0.000 C 
ATOM     19  C   UNL     1       5.333   6.098  15.375  0.00  0.00    +0.000 C 
ATOM     20  N   UNL     1       6.393   5.520  14.557  0.00  0.00    +0.000 NA
ATOM     21  C   UNL     1       6.883   4.290  15.177  0.00  0.00    +0.000 C 
ATOM     22  C   UNL     1       7.390   4.496  16.604  0.00  0.00    +0.000 C 
ATOM     23  H   UNL     1       7.159   6.192  14.466  0.00  0.00    +0.000 HD
ENDBRANCH  16  17
ENDBRANCH  14  16
ENDBRANCH   1  14
BRANCH   1  24
ATOM     24  O   UNL     1       2.770   4.730  17.453  0.00  0.00    +0.000 OA
BRANCH  24  25
ATOM     25  C   UNL     1       2.198   3.410  17.424  0.00  0.00    +0.000 C 
BRANCH  25  27
ATOM     26  C   UNL     1       3.553   1.450  18.192  0.00  0.00    +0.000 C 
ATOM     27  C   UNL     1       3.284   2.414  17.048  0.00  0.00    +0.000 C 
ENDBRANCH  25  27
ENDBRANCH  24  25
ENDBRANCH   1  24
TORSDOF 8
ENDMDL
