MODEL 1
REMARK VINA RESULT:      -7.4      0.000      0.000
REMARK  Name = 
REMARK  15 active torsions:
REMARK  status: ('A' for Active; 'I' for Inactive)
REMARK    1  A    between atoms: C_1  and  O_2
REMARK    2  A    between atoms: O_2  and  C_3
REMARK    3  A    between atoms: C_3  and  C_5
REMARK    4  A    between atoms: C_5  and  C_6
REMARK    5  A    between atoms: C_10  and  C_11
REMARK    6  A    between atoms: C_12  and  C_13
REMARK    7  A    between atoms: C_13  and  C_14
REMARK    8  A    between atoms: C_14  and  C_15
REMARK    9  A    between atoms: C_15  and  C_16
REMARK   10  A    between atoms: C_17  and  C_18
REMARK   11  A    between atoms: C_18  and  O_19
REMARK   12  A    between atoms: C_18  and  C_20
REMARK   13  A    between atoms: C_25  and  C_26
REMARK   14  A    between atoms: C_27  and  C_28
REMARK   15  A    between atoms: C_27  and  O_29
REMARK                            x       y       z     vdW  Elec       q    Type
REMARK                         _______ _______ _______ _____ _____    ______ ____
ROOT
ATOM      1  C   UNL     1      -1.105  13.223  20.093  0.00  0.00    +0.000 C 
ATOM      2  C   UNL     1       0.239  14.011  20.047  0.00  0.00    +0.000 C 
ATOM      3  C   UNL     1      -1.730  12.923  18.679  0.00  0.00    +0.000 C 
ATOM      4  C   UNL     1      -1.481  11.565  17.991  0.00  0.00    +0.000 C 
ATOM      5  C   UNL     1      -1.272  10.366  18.922  0.00  0.00    +0.000 C 
ATOM      6  C   UNL     1      -0.315  10.701  20.101  0.00  0.00    +0.000 C 
ATOM      7  C   UNL     1       1.002  11.243  19.463  0.00  0.00    +0.000 C 
ATOM      8  C   UNL     1      -0.001   9.320  20.947  0.00  0.00    +0.000 C 
ATOM      9  C   UNL     1      -0.183   9.389  22.509  0.00  0.00    +0.000 C 
ATOM     10  C   UNL     1       1.100   9.421  23.345  0.00  0.00    +0.000 C 
ATOM     11  C   UNL     1      -1.064  10.553  22.973  0.00  0.00    +0.000 C 
ATOM     12  C   UNL     1      -0.640  11.876  22.344  0.00  0.00    +0.000 C 
ATOM     13  C   UNL     1      -1.071  11.851  20.880  0.00  0.00    +0.000 C 
ENDROOT
BRANCH   1  14
ATOM     14  C   UNL     1      -2.005  14.288  20.774  0.00  0.00    +0.000 C 
ATOM     15  O   UNL     1      -1.816  15.496  20.763  0.00  0.00    +0.000 OA
BRANCH  14  17
ATOM     16  C   UNL     1      -4.354  14.421  20.820  0.00  0.00    +0.000 C 
ATOM     17  O   UNL     1      -3.175  13.715  21.197  0.00  0.00    +0.000 OA
ENDBRANCH  14  17
ENDBRANCH   1  14
BRANCH   9  18
ATOM     18  O   UNL     1      -0.879   8.195  22.929  0.00  0.00    +0.000 OA
ATOM     19  H   UNL     1      -1.741   8.459  23.293  0.00  0.00    +0.000 HD
ENDBRANCH   9  18
BRANCH   8  20
ATOM     20  C   UNL     1       1.380   8.785  20.439  0.00  0.00    +0.000 C 
BRANCH  20  21
ATOM     21  C   UNL     1       1.845   7.404  20.023  0.00  0.00    +0.000 C 
BRANCH  21  22
ATOM     22  C   UNL     1       2.488   7.214  18.688  0.00  0.00    +0.000 C 
ATOM     23  C   UNL     1       2.106   8.175  17.596  0.00  0.00    +0.000 C 
ATOM     24  C   UNL     1       3.532   6.370  18.527  0.00  0.00    +0.000 C 
BRANCH  24  25
ATOM     25  C   UNL     1       4.074   5.427  19.576  0.00  0.00    +0.000 C 
BRANCH  25  26
ATOM     26  C   UNL     1       3.647   3.966  19.326  0.00  0.00    +0.000 C 
ATOM     27  O   UNL     1       4.798   3.111  19.413  0.00  0.00    +0.000 OA
ATOM     28  C   UNL     1       4.560   2.143  20.339  0.00  0.00    +0.000 C 
ATOM     29  O   UNL     1       5.339   1.261  20.648  0.00  0.00    +0.000 OA
ATOM     30  C   UNL     1       3.232   2.326  20.908  0.00  0.00    +0.000 C 
ATOM     31  C   UNL     1       2.710   3.411  20.336  0.00  0.00    +0.000 C 
ATOM     32  C   UNL     1       1.373   4.001  20.620  0.00  0.00    +0.000 C 
ENDBRANCH  25  26
BRANCH  25  33
ATOM     33  O   UNL     1       5.492   5.581  19.633  0.00  0.00    +0.000 OA
ATOM     34  H   UNL     1       5.697   6.070  20.449  0.00  0.00    +0.000 HD
ENDBRANCH  25  33
ENDBRANCH  24  25
ENDBRANCH  21  22
ENDBRANCH  20  21
ENDBRANCH   8  20
TORSDOF 9
ENDMDL
MODEL 2
REMARK VINA RESULT:      -7.0      0.754      1.048
REMARK  Name = 
REMARK  15 active torsions:
REMARK  status: ('A' for Active; 'I' for Inactive)
REMARK    1  A    between atoms: C_1  and  O_2
REMARK    2  A    between atoms: O_2  and  C_3
REMARK    3  A    between atoms: C_3  and  C_5
REMARK    4  A    between atoms: C_5  and  C_6
REMARK    5  A    between atoms: C_10  and  C_11
REMARK    6  A    between atoms: C_12  and  C_13
REMARK    7  A    between atoms: C_13  and  C_14
REMARK    8  A    between atoms: C_14  and  C_15
REMARK    9  A    between atoms: C_15  and  C_16
REMARK   10  A    between atoms: C_17  and  C_18
REMARK   11  A    between atoms: C_18  and  O_19
REMARK   12  A    between atoms: C_18  and  C_20
REMARK   13  A    between atoms: C_25  and  C_26
REMARK   14  A    between atoms: C_27  and  C_28
REMARK   15  A    between atoms: C_27  and  O_29
REMARK                            x       y       z     vdW  Elec       q    Type
REMARK                         _______ _______ _______ _____ _____    ______ ____
ROOT
ATOM      1  C   UNL     1      -0.431  13.194  19.702  0.00  0.00    +0.000 C 
ATOM      2  C   UNL     1       1.000  13.810  19.713  0.00  0.00    +0.000 C 
ATOM      3  C   UNL     1      -0.980  12.855  18.266  0.00  0.00    +0.000 C 
ATOM      4  C   UNL     1      -0.852  11.426  17.701  0.00  0.00    +0.000 C 
ATOM      5  C   UNL     1      -0.866  10.291  18.730  0.00  0.00    +0.000 C 
ATOM      6  C   UNL     1       0.034  10.605  19.959  0.00  0.00    +0.000 C 
ATOM      7  C   UNL     1       1.453  10.932  19.397  0.00  0.00    +0.000 C 
ATOM      8  C   UNL     1       0.108   9.271  20.926  0.00  0.00    +0.000 C 
ATOM      9  C   UNL     1      -0.181   9.488  22.458  0.00  0.00    +0.000 C 
ATOM     10  C   UNL     1       1.030   9.436  23.395  0.00  0.00    +0.000 C 
ATOM     11  C   UNL     1      -0.942  10.783  22.760  0.00  0.00    +0.000 C 
ATOM     12  C   UNL     1      -0.309  11.990  22.075  0.00  0.00    +0.000 C 
ATOM     13  C   UNL     1      -0.628  11.897  20.586  0.00  0.00    +0.000 C 
ENDROOT
BRANCH   1  14
ATOM     14  C   UNL     1      -1.239  14.411  20.226  0.00  0.00    +0.000 C 
ATOM     15  O   UNL     1      -2.384  14.378  20.654  0.00  0.00    +0.000 OA
BRANCH  14  17
ATOM     16  C   UNL     1      -1.042  16.753  20.116  0.00  0.00    +0.000 C 
ATOM     17  O   UNL     1      -0.416  15.497  20.365  0.00  0.00    +0.000 OA
ENDBRANCH  14  17
ENDBRANCH   1  14
BRANCH   9  18
ATOM     18  O   UNL     1      -1.050   8.425  22.903  0.00  0.00    +0.000 OA
ATOM     19  H   UNL     1      -1.937   8.798  23.049  0.00  0.00    +0.000 HD
ENDBRANCH   9  18
BRANCH   8  20
ATOM     20  C   UNL     1       1.445   8.535  20.577  0.00  0.00    +0.000 C 
BRANCH  20  21
ATOM     21  C   UNL     1       1.730   7.174  19.976  0.00  0.00    +0.000 C 
BRANCH  21  22
ATOM     22  C   UNL     1       2.462   7.080  18.676  0.00  0.00    +0.000 C 
ATOM     23  C   UNL     1       2.089   8.066  17.604  0.00  0.00    +0.000 C 
ATOM     24  C   UNL     1       3.561   6.305  18.546  0.00  0.00    +0.000 C 
BRANCH  24  25
ATOM     25  C   UNL     1       4.096   5.348  19.586  0.00  0.00    +0.000 C 
BRANCH  25  26
ATOM     26  C   UNL     1       3.705   3.885  19.291  0.00  0.00    +0.000 C 
ATOM     27  O   UNL     1       4.866   3.048  19.409  0.00  0.00    +0.000 OA
ATOM     28  C   UNL     1       4.608   2.059  20.306  0.00  0.00    +0.000 C 
ATOM     29  O   UNL     1       5.389   1.184  20.630  0.00  0.00    +0.000 OA
ATOM     30  C   UNL     1       3.254   2.208  20.824  0.00  0.00    +0.000 C 
ATOM     31  C   UNL     1       2.737   3.295  20.251  0.00  0.00    +0.000 C 
ATOM     32  C   UNL     1       1.380   3.857  20.490  0.00  0.00    +0.000 C 
ENDBRANCH  25  26
BRANCH  25  33
ATOM     33  O   UNL     1       5.508   5.529  19.684  0.00  0.00    +0.000 OA
ATOM     34  H   UNL     1       5.697   6.455  19.450  0.00  0.00    +0.000 HD
ENDBRANCH  25  33
ENDBRANCH  24  25
ENDBRANCH  21  22
ENDBRANCH  20  21
ENDBRANCH   8  20
TORSDOF 9
ENDMDL
MODEL 3
REMARK VINA RESULT:      -7.0      2.728      9.965
REMARK  Name = 
REMARK  15 active torsions:
REMARK  status: ('A' for Active; 'I' for Inactive)
REMARK    1  A    between atoms: C_1  and  O_2
REMARK    2  A    between atoms: O_2  and  C_3
REMARK    3  A    between atoms: C_3  and  C_5
REMARK    4  A    between atoms: C_5  and  C_6
REMARK    5  A    between atoms: C_10  and  C_11
REMARK    6  A    between atoms: C_12  and  C_13
REMARK    7  A    between atoms: C_13  and  C_14
REMARK    8  A    between atoms: C_14  and  C_15
REMARK    9  A    between atoms: C_15  and  C_16
REMARK   10  A    between atoms: C_17  and  C_18
REMARK   11  A    between atoms: C_18  and  O_19
REMARK   12  A    between atoms: C_18  and  C_20
REMARK   13  A    between atoms: C_25  and  C_26
REMARK   14  A    between atoms: C_27  and  C_28
REMARK   15  A    between atoms: C_27  and  O_29
REMARK                            x       y       z     vdW  Elec       q    Type
REMARK                         _______ _______ _______ _____ _____    ______ ____
ROOT
ATOM      1  C   UNL     1       3.287   2.944  19.402  0.00  0.00    +0.000 C 
ATOM      2  C   UNL     1       3.550   3.328  20.890  0.00  0.00    +0.000 C 
ATOM      3  C   UNL     1       1.791   2.576  19.082  0.00  0.00    +0.000 C 
ATOM      4  C   UNL     1       0.835   3.639  18.503  0.00  0.00    +0.000 C 
ATOM      5  C   UNL     1       1.480   4.723  17.634  0.00  0.00    +0.000 C 
ATOM      6  C   UNL     1       2.788   5.277  18.265  0.00  0.00    +0.000 C 
ATOM      7  C   UNL     1       2.419   5.757  19.703  0.00  0.00    +0.000 C 
ATOM      8  C   UNL     1       3.320   6.554  17.367  0.00  0.00    +0.000 C 
ATOM      9  C   UNL     1       4.832   6.534  16.929  0.00  0.00    +0.000 C 
ATOM     10  C   UNL     1       5.768   7.496  17.666  0.00  0.00    +0.000 C 
ATOM     11  C   UNL     1       5.467   5.141  16.983  0.00  0.00    +0.000 C 
ATOM     12  C   UNL     1       5.201   4.444  18.313  0.00  0.00    +0.000 C 
ATOM     13  C   UNL     1       3.737   4.013  18.326  0.00  0.00    +0.000 C 
ENDROOT
BRANCH   1  14
ATOM     14  C   UNL     1       4.108   1.629  19.327  0.00  0.00    +0.000 C 
ATOM     15  O   UNL     1       4.066   0.810  18.420  0.00  0.00    +0.000 OA
BRANCH  14  17
ATOM     16  C   UNL     1       5.455   0.317  20.743  0.00  0.00    +0.000 C 
ATOM     17  O   UNL     1       5.067   1.617  20.305  0.00  0.00    +0.000 OA
ENDBRANCH  14  17
ENDBRANCH   1  14
BRANCH   9  18
ATOM     18  O   UNL     1       4.899   6.928  15.541  0.00  0.00    +0.000 OA
ATOM     19  H   UNL     1       4.397   6.280  15.018  0.00  0.00    +0.000 HD
ENDBRANCH   9  18
BRANCH   8  20
ATOM     20  C   UNL     1       2.834   7.851  18.098  0.00  0.00    +0.000 C 
BRANCH  20  21
ATOM     21  C   UNL     1       1.599   8.713  17.926  0.00  0.00    +0.000 C 
BRANCH  21  22
ATOM     22  C   UNL     1       0.874   9.210  19.134  0.00  0.00    +0.000 C 
ATOM     23  C   UNL     1       1.517   8.967  20.472  0.00  0.00    +0.000 C 
ATOM     24  C   UNL     1      -0.187  10.040  19.022  0.00  0.00    +0.000 C 
BRANCH  24  25
ATOM     25  C   UNL     1      -0.862  10.441  17.731  0.00  0.00    +0.000 C 
BRANCH  25  26
ATOM     26  C   UNL     1      -2.350  10.036  17.698  0.00  0.00    +0.000 C 
ATOM     27  O   UNL     1      -3.054  10.724  18.743  0.00  0.00    +0.000 OA
ATOM     28  C   UNL     1      -4.092  11.412  18.197  0.00  0.00    +0.000 C 
ATOM     29  O   UNL     1      -4.883  12.098  18.818  0.00  0.00    +0.000 OA
ATOM     30  C   UNL     1      -4.111  11.208  16.755  0.00  0.00    +0.000 C 
ATOM     31  C   UNL     1      -3.073  10.426  16.461  0.00  0.00    +0.000 C 
ATOM     32  C   UNL     1      -2.674   9.965  15.103  0.00  0.00    +0.000 C 
ENDBRANCH  25  26
BRANCH  25  33
ATOM     33  O   UNL     1      -0.670  11.842  17.537  0.00  0.00    +0.000 OA
ATOM     34  H   UNL     1      -0.896  12.283  18.375  0.00  0.00    +0.000 HD
ENDBRANCH  25  33
ENDBRANCH  24  25
ENDBRANCH  21  22
ENDBRANCH  20  21
ENDBRANCH   8  20
TORSDOF 9
ENDMDL
MODEL 4
REMARK VINA RESULT:      -6.9      1.136      1.318
REMARK  Name = 
REMARK  15 active torsions:
REMARK  status: ('A' for Active; 'I' for Inactive)
REMARK    1  A    between atoms: C_1  and  O_2
REMARK    2  A    between atoms: O_2  and  C_3
REMARK    3  A    between atoms: C_3  and  C_5
REMARK    4  A    between atoms: C_5  and  C_6
REMARK    5  A    between atoms: C_10  and  C_11
REMARK    6  A    between atoms: C_12  and  C_13
REMARK    7  A    between atoms: C_13  and  C_14
REMARK    8  A    between atoms: C_14  and  C_15
REMARK    9  A    between atoms: C_15  and  C_16
REMARK   10  A    between atoms: C_17  and  C_18
REMARK   11  A    between atoms: C_18  and  O_19
REMARK   12  A    between atoms: C_18  and  C_20
REMARK   13  A    between atoms: C_25  and  C_26
REMARK   14  A    between atoms: C_27  and  C_28
REMARK   15  A    between atoms: C_27  and  O_29
REMARK                            x       y       z     vdW  Elec       q    Type
REMARK                         _______ _______ _______ _____ _____    ______ ____
ROOT
ATOM      1  C   UNL     1      -1.409  13.032  19.913  0.00  0.00    +0.000 C 
ATOM      2  C   UNL     1      -0.127  13.912  19.805  0.00  0.00    +0.000 C 
ATOM      3  C   UNL     1      -2.034  12.623  18.527  0.00  0.00    +0.000 C 
ATOM      4  C   UNL     1      -1.699  11.256  17.897  0.00  0.00    +0.000 C 
ATOM      5  C   UNL     1      -1.388  10.119  18.876  0.00  0.00    +0.000 C 
ATOM      6  C   UNL     1      -0.438  10.576  20.020  0.00  0.00    +0.000 C 
ATOM      7  C   UNL     1       0.826  11.181  19.332  0.00  0.00    +0.000 C 
ATOM      8  C   UNL     1      -0.011   9.263  20.921  0.00  0.00    +0.000 C 
ATOM      9  C   UNL     1      -0.171   9.391  22.482  0.00  0.00    +0.000 C 
ATOM     10  C   UNL     1       1.121   9.554  23.289  0.00  0.00    +0.000 C 
ATOM     11  C   UNL     1      -1.126  10.509  22.910  0.00  0.00    +0.000 C 
ATOM     12  C   UNL     1      -0.810  11.828  22.213  0.00  0.00    +0.000 C 
ATOM     13  C   UNL     1      -1.262  11.705  20.761  0.00  0.00    +0.000 C 
ENDROOT
BRANCH   1  14
ATOM     14  C   UNL     1      -2.372  14.061  20.564  0.00  0.00    +0.000 C 
ATOM     15  O   UNL     1      -2.109  15.228  20.813  0.00  0.00    +0.000 OA
BRANCH  14  17
ATOM     16  C   UNL     1      -4.670  14.526  20.776  0.00  0.00    +0.000 C 
ATOM     17  O   UNL     1      -3.643  13.551  20.611  0.00  0.00    +0.000 OA
ENDBRANCH  14  17
ENDBRANCH   1  14
BRANCH   9  18
ATOM     18  O   UNL     1      -0.771   8.171  22.969  0.00  0.00    +0.000 OA
ATOM     19  H   UNL     1      -1.308   8.389  23.751  0.00  0.00    +0.000 HD
ENDBRANCH   9  18
BRANCH   8  20
ATOM     20  C   UNL     1       1.397   8.805  20.410  0.00  0.00    +0.000 C 
BRANCH  20  21
ATOM     21  C   UNL     1       1.992   7.434  20.162  0.00  0.00    +0.000 C 
BRANCH  21  22
ATOM     22  C   UNL     1       2.444   7.064  18.787  0.00  0.00    +0.000 C 
ATOM     23  C   UNL     1       2.076   7.998  17.667  0.00  0.00    +0.000 C 
ATOM     24  C   UNL     1       3.334   6.066  18.587  0.00  0.00    +0.000 C 
BRANCH  24  25
ATOM     25  C   UNL     1       3.857   5.123  19.646  0.00  0.00    +0.000 C 
BRANCH  25  26
ATOM     26  C   UNL     1       3.206   3.728  19.560  0.00  0.00    +0.000 C 
ATOM     27  O   UNL     1       3.053   3.190  20.883  0.00  0.00    +0.000 OA
ATOM     28  C   UNL     1       1.747   2.868  21.081  0.00  0.00    +0.000 C 
ATOM     29  O   UNL     1       1.290   2.389  22.102  0.00  0.00    +0.000 OA
ATOM     30  C   UNL     1       0.977   3.187  19.887  0.00  0.00    +0.000 C 
ATOM     31  C   UNL     1       1.827   3.718  19.007  0.00  0.00    +0.000 C 
ATOM     32  C   UNL     1       1.490   4.218  17.647  0.00  0.00    +0.000 C 
ENDBRANCH  25  26
BRANCH  25  33
ATOM     33  O   UNL     1       5.279   5.072  19.543  0.00  0.00    +0.000 OA
ATOM     34  H   UNL     1       5.594   5.986  19.426  0.00  0.00    +0.000 HD
ENDBRANCH  25  33
ENDBRANCH  24  25
ENDBRANCH  21  22
ENDBRANCH  20  21
ENDBRANCH   8  20
TORSDOF 9
ENDMDL
MODEL 5
REMARK VINA RESULT:      -6.9      2.200      9.244
REMARK  Name = 
REMARK  15 active torsions:
REMARK  status: ('A' for Active; 'I' for Inactive)
REMARK    1  A    between atoms: C_1  and  O_2
REMARK    2  A    between atoms: O_2  and  C_3
REMARK    3  A    between atoms: C_3  and  C_5
REMARK    4  A    between atoms: C_5  and  C_6
REMARK    5  A    between atoms: C_10  and  C_11
REMARK    6  A    between atoms: C_12  and  C_13
REMARK    7  A    between atoms: C_13  and  C_14
REMARK    8  A    between atoms: C_14  and  C_15
REMARK    9  A    between atoms: C_15  and  C_16
REMARK   10  A    between atoms: C_17  and  C_18
REMARK   11  A    between atoms: C_18  and  O_19
REMARK   12  A    between atoms: C_18  and  C_20
REMARK   13  A    between atoms: C_25  and  C_26
REMARK   14  A    between atoms: C_27  and  C_28
REMARK   15  A    between atoms: C_27  and  O_29
REMARK                            x       y       z     vdW  Elec       q    Type
REMARK                         _______ _______ _______ _____ _____    ______ ____
ROOT
ATOM      1  C   UNL     1       2.614   4.380  18.321  0.00  0.00    +0.000 C 
ATOM      2  C   UNL     1       1.371   4.086  17.427  0.00  0.00    +0.000 C 
ATOM      3  C   UNL     1       3.939   4.660  17.518  0.00  0.00    +0.000 C 
ATOM      4  C   UNL     1       4.377   6.108  17.220  0.00  0.00    +0.000 C 
ATOM      5  C   UNL     1       3.957   7.165  18.246  0.00  0.00    +0.000 C 
ATOM      6  C   UNL     1       2.476   6.994  18.688  0.00  0.00    +0.000 C 
ATOM      7  C   UNL     1       1.620   7.006  17.383  0.00  0.00    +0.000 C 
ATOM      8  C   UNL     1       2.051   8.267  19.648  0.00  0.00    +0.000 C 
ATOM      9  C   UNL     1       1.358   7.921  21.018  0.00  0.00    +0.000 C 
ATOM     10  C   UNL     1      -0.148   8.189  21.107  0.00  0.00    +0.000 C 
ATOM     11  C   UNL     1       1.598   6.481  21.481  0.00  0.00    +0.000 C 
ATOM     12  C   UNL     1       1.312   5.471  20.374  0.00  0.00    +0.000 C 
ATOM     13  C   UNL     1       2.449   5.562  19.359  0.00  0.00    +0.000 C 
ENDROOT
BRANCH   1  14
ATOM     14  C   UNL     1       2.774   2.996  19.002  0.00  0.00    +0.000 C 
ATOM     15  O   UNL     1       2.379   1.928  18.555  0.00  0.00    +0.000 OA
BRANCH  14  17
ATOM     16  C   UNL     1       4.597   2.050  20.153  0.00  0.00    +0.000 C 
ATOM     17  O   UNL     1       3.628   3.092  20.069  0.00  0.00    +0.000 OA
ENDBRANCH  14  17
ENDBRANCH   1  14
BRANCH   9  18
ATOM     18  O   UNL     1       1.951   8.752  22.039  0.00  0.00    +0.000 OA
ATOM     19  H   UNL     1       1.260   9.337  22.394  0.00  0.00    +0.000 HD
ENDBRANCH   9  18
BRANCH   8  20
ATOM     20  C   UNL     1       1.294   9.288  18.733  0.00  0.00    +0.000 C 
BRANCH  20  21
ATOM     21  C   UNL     1       1.154  10.795  18.790  0.00  0.00    +0.000 C 
BRANCH  21  22
ATOM     22  C   UNL     1       0.121  11.406  19.680  0.00  0.00    +0.000 C 
ATOM     23  C   UNL     1       0.577  11.902  21.025  0.00  0.00    +0.000 C 
ATOM     24  C   UNL     1      -1.111  11.711  19.216  0.00  0.00    +0.000 C 
BRANCH  24  25
ATOM     25  C   UNL     1      -1.653  11.357  17.851  0.00  0.00    +0.000 C 
BRANCH  25  26
ATOM     26  C   UNL     1      -3.102  10.832  17.915  0.00  0.00    +0.000 C 
ATOM     27  O   UNL     1      -3.855  11.624  18.847  0.00  0.00    +0.000 OA
ATOM     28  C   UNL     1      -4.951  12.126  18.217  0.00  0.00    +0.000 C 
ATOM     29  O   UNL     1      -5.792  12.839  18.732  0.00  0.00    +0.000 OA
ATOM     30  C   UNL     1      -4.962  11.686  16.829  0.00  0.00    +0.000 C 
ATOM     31  C   UNL     1      -3.864  10.953  16.645  0.00  0.00    +0.000 C 
ATOM     32  C   UNL     1      -3.437  10.307  15.374  0.00  0.00    +0.000 C 
ENDBRANCH  25  26
BRANCH  25  33
ATOM     33  O   UNL     1      -1.519  12.495  17.002  0.00  0.00    +0.000 OA
ATOM     34  H   UNL     1      -2.248  13.104  17.218  0.00  0.00    +0.000 HD
ENDBRANCH  25  33
ENDBRANCH  24  25
ENDBRANCH  21  22
ENDBRANCH  20  21
ENDBRANCH   8  20
TORSDOF 9
ENDMDL
MODEL 6
REMARK VINA RESULT:      -6.8      3.325      9.574
REMARK  Name = 
REMARK  15 active torsions:
REMARK  status: ('A' for Active; 'I' for Inactive)
REMARK    1  A    between atoms: C_1  and  O_2
REMARK    2  A    between atoms: O_2  and  C_3
REMARK    3  A    between atoms: C_3  and  C_5
REMARK    4  A    between atoms: C_5  and  C_6
REMARK    5  A    between atoms: C_10  and  C_11
REMARK    6  A    between atoms: C_12  and  C_13
REMARK    7  A    between atoms: C_13  and  C_14
REMARK    8  A    between atoms: C_14  and  C_15
REMARK    9  A    between atoms: C_15  and  C_16
REMARK   10  A    between atoms: C_17  and  C_18
REMARK   11  A    between atoms: C_18  and  O_19
REMARK   12  A    between atoms: C_18  and  C_20
REMARK   13  A    between atoms: C_25  and  C_26
REMARK   14  A    between atoms: C_27  and  C_28
REMARK   15  A    between atoms: C_27  and  O_29
REMARK                            x       y       z     vdW  Elec       q    Type
REMARK                         _______ _______ _______ _____ _____    ______ ____
ROOT
ATOM      1  C   UNL     1       6.064   5.492  16.046  0.00  0.00    +0.000 C 
ATOM      2  C   UNL     1       5.303   6.562  15.206  0.00  0.00    +0.000 C 
ATOM      3  C   UNL     1       7.310   6.049  16.831  0.00  0.00    +0.000 C 
ATOM      4  C   UNL     1       7.177   6.459  18.311  0.00  0.00    +0.000 C 
ATOM      5  C   UNL     1       6.130   5.697  19.131  0.00  0.00    +0.000 C 
ATOM      6  C   UNL     1       4.789   5.536  18.361  0.00  0.00    +0.000 C 
ATOM      7  C   UNL     1       4.342   6.973  17.944  0.00  0.00    +0.000 C 
ATOM      8  C   UNL     1       3.667   4.871  19.370  0.00  0.00    +0.000 C 
ATOM      9  C   UNL     1       2.868   3.629  18.822  0.00  0.00    +0.000 C 
ATOM     10  C   UNL     1       1.411   3.878  18.421  0.00  0.00    +0.000 C 
ATOM     11  C   UNL     1       3.557   2.927  17.648  0.00  0.00    +0.000 C 
ATOM     12  C   UNL     1       3.982   3.913  16.564  0.00  0.00    +0.000 C 
ATOM     13  C   UNL     1       5.189   4.686  17.088  0.00  0.00    +0.000 C 
ENDROOT
BRANCH   1  14
ATOM     14  C   UNL     1       6.607   4.602  14.897  0.00  0.00    +0.000 C 
ATOM     15  O   UNL     1       6.004   3.685  14.357  0.00  0.00    +0.000 OA
BRANCH  14  17
ATOM     16  C   UNL     1       7.835   5.204  12.981  0.00  0.00    +0.000 C 
ATOM     17  O   UNL     1       7.771   5.128  14.403  0.00  0.00    +0.000 OA
ENDBRANCH  14  17
ENDBRANCH   1  14
BRANCH   9  18
ATOM     18  O   UNL     1       2.808   2.641  19.873  0.00  0.00    +0.000 OA
ATOM     19  H   UNL     1       1.904   2.284  19.903  0.00  0.00    +0.000 HD
ENDBRANCH   9  18
BRANCH   8  20
ATOM     20  C   UNL     1       2.802   6.054  19.924  0.00  0.00    +0.000 C 
BRANCH  20  21
ATOM     21  C   UNL     1       2.195   7.270  19.255  0.00  0.00    +0.000 C 
BRANCH  21  22
ATOM     22  C   UNL     1       1.473   8.283  20.082  0.00  0.00    +0.000 C 
ATOM     23  C   UNL     1       1.558   8.137  21.577  0.00  0.00    +0.000 C 
ATOM     24  C   UNL     1       0.964   9.406  19.528  0.00  0.00    +0.000 C 
BRANCH  24  25
ATOM     25  C   UNL     1       0.910   9.715  18.050  0.00  0.00    +0.000 C 
BRANCH  25  26
ATOM     26  C   UNL     1      -0.313  10.577  17.677  0.00  0.00    +0.000 C 
ATOM     27  O   UNL     1      -1.371   9.726  17.207  0.00  0.00    +0.000 OA
ATOM     28  C   UNL     1      -2.486   9.955  17.952  0.00  0.00    +0.000 C 
ATOM     29  O   UNL     1      -3.555   9.393  17.806  0.00  0.00    +0.000 OA
ATOM     30  C   UNL     1      -2.204  10.973  18.955  0.00  0.00    +0.000 C 
ATOM     31  C   UNL     1      -0.923  11.315  18.812  0.00  0.00    +0.000 C 
ATOM     32  C   UNL     1      -0.179  12.307  19.634  0.00  0.00    +0.000 C 
ENDBRANCH  25  26
BRANCH  25  33
ATOM     33  O   UNL     1       2.144  10.321  17.670  0.00  0.00    +0.000 OA
ATOM     34  H   UNL     1       2.847   9.903  18.198  0.00  0.00    +0.000 HD
ENDBRANCH  25  33
ENDBRANCH  24  25
ENDBRANCH  21  22
ENDBRANCH  20  21
ENDBRANCH   8  20
TORSDOF 9
ENDMDL
MODEL 7
REMARK VINA RESULT:      -6.7      2.130      4.411
REMARK  Name = 
REMARK  15 active torsions:
REMARK  status: ('A' for Active; 'I' for Inactive)
REMARK    1  A    between atoms: C_1  and  O_2
REMARK    2  A    between atoms: O_2  and  C_3
REMARK    3  A    between atoms: C_3  and  C_5
REMARK    4  A    between atoms: C_5  and  C_6
REMARK    5  A    between atoms: C_10  and  C_11
REMARK    6  A    between atoms: C_12  and  C_13
REMARK    7  A    between atoms: C_13  and  C_14
REMARK    8  A    between atoms: C_14  and  C_15
REMARK    9  A    between atoms: C_15  and  C_16
REMARK   10  A    between atoms: C_17  and  C_18
REMARK   11  A    between atoms: C_18  and  O_19
REMARK   12  A    between atoms: C_18  and  C_20
REMARK   13  A    between atoms: C_25  and  C_26
REMARK   14  A    between atoms: C_27  and  C_28
REMARK   15  A    between atoms: C_27  and  O_29
REMARK                            x       y       z     vdW  Elec       q    Type
REMARK                         _______ _______ _______ _____ _____    ______ ____
ROOT
ATOM      1  C   UNL     1      -0.337  10.569  19.894  0.00  0.00    +0.000 C 
ATOM      2  C   UNL     1      -1.738   9.940  19.625  0.00  0.00    +0.000 C 
ATOM      3  C   UNL     1      -0.110  11.036  21.381  0.00  0.00    +0.000 C 
ATOM      4  C   UNL     1       0.614  10.115  22.383  0.00  0.00    +0.000 C 
ATOM      5  C   UNL     1       1.660   9.164  21.791  0.00  0.00    +0.000 C 
ATOM      6  C   UNL     1       1.152   8.471  20.496  0.00  0.00    +0.000 C 
ATOM      7  C   UNL     1      -0.197   7.776  20.863  0.00  0.00    +0.000 C 
ATOM      8  C   UNL     1       2.255   7.338  20.025  0.00  0.00    +0.000 C 
ATOM      9  C   UNL     1       2.714   7.377  18.519  0.00  0.00    +0.000 C 
ATOM     10  C   UNL     1       2.160   6.276  17.609  0.00  0.00    +0.000 C 
ATOM     11  C   UNL     1       2.448   8.720  17.832  0.00  0.00    +0.000 C 
ATOM     12  C   UNL     1       1.017   9.200  18.053  0.00  0.00    +0.000 C 
ATOM     13  C   UNL     1       0.906   9.674  19.500  0.00  0.00    +0.000 C 
ENDROOT
BRANCH   1  14
ATOM     14  C   UNL     1      -0.460  11.849  19.026  0.00  0.00    +0.000 C 
ATOM     15  O   UNL     1      -1.302  12.050  18.162  0.00  0.00    +0.000 OA
BRANCH  14  17
ATOM     16  C   UNL     1       1.429  13.201  18.647  0.00  0.00    +0.000 C 
ATOM     17  O   UNL     1       0.361  12.830  19.515  0.00  0.00    +0.000 OA
ENDBRANCH  14  17
ENDBRANCH   1  14
BRANCH   9  18
ATOM     18  O   UNL     1       4.148   7.211  18.486  0.00  0.00    +0.000 OA
ATOM     19  H   UNL     1       4.367   6.377  18.936  0.00  0.00    +0.000 HD
ENDBRANCH   9  18
BRANCH   8  20
ATOM     20  C   UNL     1       1.734   5.957  20.549  0.00  0.00    +0.000 C 
BRANCH  20  21
ATOM     21  C   UNL     1       2.424   4.626  20.767  0.00  0.00    +0.000 C 
BRANCH  21  22
ATOM     22  C   UNL     1       1.965   3.425  20.006  0.00  0.00    +0.000 C 
ATOM     23  C   UNL     1       0.482   3.242  19.838  0.00  0.00    +0.000 C 
ATOM     24  C   UNL     1       2.836   2.665  19.306  0.00  0.00    +0.000 C 
BRANCH  24  25
ATOM     25  C   UNL     1       4.340   2.811  19.312  0.00  0.00    +0.000 C 
BRANCH  25  26
ATOM     26  C   UNL     1       4.792   4.229  18.908  0.00  0.00    +0.000 C 
ATOM     27  O   UNL     1       5.802   4.687  19.821  0.00  0.00    +0.000 OA
ATOM     28  C   UNL     1       6.910   5.037  19.114  0.00  0.00    +0.000 C 
ATOM     29  O   UNL     1       7.942   5.465  19.596  0.00  0.00    +0.000 OA
ATOM     30  C   UNL     1       6.675   4.818  17.694  0.00  0.00    +0.000 C 
ATOM     31  C   UNL     1       5.445   4.317  17.577  0.00  0.00    +0.000 C 
ATOM     32  C   UNL     1       4.774   3.915  16.311  0.00  0.00    +0.000 C 
ENDBRANCH  25  26
BRANCH  25  33
ATOM     33  O   UNL     1       4.826   2.427  20.598  0.00  0.00    +0.000 OA
ATOM     34  H   UNL     1       4.136   1.884  21.017  0.00  0.00    +0.000 HD
ENDBRANCH  25  33
ENDBRANCH  24  25
ENDBRANCH  21  22
ENDBRANCH  20  21
ENDBRANCH   8  20
TORSDOF 9
ENDMDL
MODEL 8
REMARK VINA RESULT:      -6.6      2.028      3.463
REMARK  Name = 
REMARK  15 active torsions:
REMARK  status: ('A' for Active; 'I' for Inactive)
REMARK    1  A    between atoms: C_1  and  O_2
REMARK    2  A    between atoms: O_2  and  C_3
REMARK    3  A    between atoms: C_3  and  C_5
REMARK    4  A    between atoms: C_5  and  C_6
REMARK    5  A    between atoms: C_10  and  C_11
REMARK    6  A    between atoms: C_12  and  C_13
REMARK    7  A    between atoms: C_13  and  C_14
REMARK    8  A    between atoms: C_14  and  C_15
REMARK    9  A    between atoms: C_15  and  C_16
REMARK   10  A    between atoms: C_17  and  C_18
REMARK   11  A    between atoms: C_18  and  O_19
REMARK   12  A    between atoms: C_18  and  C_20
REMARK   13  A    between atoms: C_25  and  C_26
REMARK   14  A    between atoms: C_27  and  C_28
REMARK   15  A    between atoms: C_27  and  O_29
REMARK                            x       y       z     vdW  Elec       q    Type
REMARK                         _______ _______ _______ _____ _____    ______ ____
ROOT
ATOM      1  C   UNL     1      -1.429  13.091  21.874  0.00  0.00    +0.000 C 
ATOM      2  C   UNL     1      -1.739  11.980  22.923  0.00  0.00    +0.000 C 
ATOM      3  C   UNL     1       0.033  13.669  21.954  0.00  0.00    +0.000 C 
ATOM      4  C   UNL     1       1.138  13.120  21.028  0.00  0.00    +0.000 C 
ATOM      5  C   UNL     1       0.677  12.597  19.664  0.00  0.00    +0.000 C 
ATOM      6  C   UNL     1      -0.597  11.713  19.777  0.00  0.00    +0.000 C 
ATOM      7  C   UNL     1      -0.266  10.587  20.807  0.00  0.00    +0.000 C 
ATOM      8  C   UNL     1      -0.922  11.046  18.304  0.00  0.00    +0.000 C 
ATOM      9  C   UNL     1      -2.397  11.189  17.770  0.00  0.00    +0.000 C 
ATOM     10  C   UNL     1      -3.262   9.926  17.809  0.00  0.00    +0.000 C 
ATOM     11  C   UNL     1      -3.188  12.311  18.449  0.00  0.00    +0.000 C 
ATOM     12  C   UNL     1      -3.088  12.241  19.970  0.00  0.00    +0.000 C 
ATOM     13  C   UNL     1      -1.686  12.700  20.363  0.00  0.00    +0.000 C 
ENDROOT
BRANCH   1  14
ATOM     14  C   UNL     1      -2.388  14.199  22.382  0.00  0.00    +0.000 C 
ATOM     15  O   UNL     1      -2.454  15.341  21.950  0.00  0.00    +0.000 OA
BRANCH  14  17
ATOM     16  C   UNL     1      -3.986  14.610  24.061  0.00  0.00    +0.000 C 
ATOM     17  O   UNL     1      -3.322  13.662  23.229  0.00  0.00    +0.000 OA
ENDBRANCH  14  17
ENDBRANCH   1  14
BRANCH   9  18
ATOM     18  O   UNL     1      -2.331  11.561  16.376  0.00  0.00    +0.000 OA
ATOM     19  H   UNL     1      -3.223  11.824  16.091  0.00  0.00    +0.000 HD
ENDBRANCH   9  18
BRANCH   8  20
ATOM     20  C   UNL     1      -0.338   9.593  18.328  0.00  0.00    +0.000 C 
BRANCH  20  21
ATOM     21  C   UNL     1       0.764   8.927  17.530  0.00  0.00    +0.000 C 
BRANCH  21  22
ATOM     22  C   UNL     1       2.192   9.207  17.868  0.00  0.00    +0.000 C 
ATOM     23  C   UNL     1       2.652  10.637  17.784  0.00  0.00    +0.000 C 
ATOM     24  C   UNL     1       2.972   8.266  18.445  0.00  0.00    +0.000 C 
BRANCH  24  25
ATOM     25  C   UNL     1       2.590   6.823  18.677  0.00  0.00    +0.000 C 
BRANCH  25  26
ATOM     26  C   UNL     1       3.479   5.847  17.879  0.00  0.00    +0.000 C 
ATOM     27  O   UNL     1       4.832   5.938  18.353  0.00  0.00    +0.000 OA
ATOM     28  C   UNL     1       5.253   4.700  18.727  0.00  0.00    +0.000 C 
ATOM     29  O   UNL     1       6.354   4.439  19.174  0.00  0.00    +0.000 OA
ATOM     30  C   UNL     1       4.183   3.734  18.517  0.00  0.00    +0.000 C 
ATOM     31  C   UNL     1       3.135   4.412  18.048  0.00  0.00    +0.000 C 
ATOM     32  C   UNL     1       1.801   3.847  17.706  0.00  0.00    +0.000 C 
ENDBRANCH  25  26
BRANCH  25  33
ATOM     33  O   UNL     1       2.618   6.567  20.080  0.00  0.00    +0.000 OA
ATOM     34  H   UNL     1       3.236   7.205  20.478  0.00  0.00    +0.000 HD
ENDBRANCH  25  33
ENDBRANCH  24  25
ENDBRANCH  21  22
ENDBRANCH  20  21
ENDBRANCH   8  20
TORSDOF 9
ENDMDL
MODEL 9
REMARK VINA RESULT:      -6.5      2.153      3.048
REMARK  Name = 
REMARK  15 active torsions:
REMARK  status: ('A' for Active; 'I' for Inactive)
REMARK    1  A    between atoms: C_1  and  O_2
REMARK    2  A    between atoms: O_2  and  C_3
REMARK    3  A    between atoms: C_3  and  C_5
REMARK    4  A    between atoms: C_5  and  C_6
REMARK    5  A    between atoms: C_10  and  C_11
REMARK    6  A    between atoms: C_12  and  C_13
REMARK    7  A    between atoms: C_13  and  C_14
REMARK    8  A    between atoms: C_14  and  C_15
REMARK    9  A    between atoms: C_15  and  C_16
REMARK   10  A    between atoms: C_17  and  C_18
REMARK   11  A    between atoms: C_18  and  O_19
REMARK   12  A    between atoms: C_18  and  C_20
REMARK   13  A    between atoms: C_25  and  C_26
REMARK   14  A    between atoms: C_27  and  C_28
REMARK   15  A    between atoms: C_27  and  O_29
REMARK                            x       y       z     vdW  Elec       q    Type
REMARK                         _______ _______ _______ _____ _____    ______ ____
ROOT
ATOM      1  C   UNL     1      -1.199  12.552  20.320  0.00  0.00    +0.000 C 
ATOM      2  C   UNL     1      -0.050  13.597  20.452  0.00  0.00    +0.000 C 
ATOM      3  C   UNL     1      -1.952  12.585  18.938  0.00  0.00    +0.000 C 
ATOM      4  C   UNL     1      -1.550  11.613  17.810  0.00  0.00    +0.000 C 
ATOM      5  C   UNL     1      -0.985  10.260  18.255  0.00  0.00    +0.000 C 
ATOM      6  C   UNL     1       0.050  10.409  19.405  0.00  0.00    +0.000 C 
ATOM      7  C   UNL     1       1.134  11.411  18.900  0.00  0.00    +0.000 C 
ATOM      8  C   UNL     1       0.739   8.940  19.702  0.00  0.00    +0.000 C 
ATOM      9  C   UNL     1       0.774   8.462  21.202  0.00  0.00    +0.000 C 
ATOM     10  C   UNL     1       2.135   8.517  21.903  0.00  0.00    +0.000 C 
ATOM     11  C   UNL     1      -0.236   9.184  22.098  0.00  0.00    +0.000 C 
ATOM     12  C   UNL     1      -0.167  10.699  21.933  0.00  0.00    +0.000 C 
ATOM     13  C   UNL     1      -0.791  11.046  20.584  0.00  0.00    +0.000 C 
ENDROOT
BRANCH   1  14
ATOM     14  C   UNL     1      -2.177  13.108  21.388  0.00  0.00    +0.000 C 
ATOM     15  O   UNL     1      -1.875  13.832  22.326  0.00  0.00    +0.000 OA
BRANCH  14  17
ATOM     16  C   UNL     1      -4.453  13.570  21.772  0.00  0.00    +0.000 C 
ATOM     17  O   UNL     1      -3.472  12.873  21.008  0.00  0.00    +0.000 OA
ENDBRANCH  14  17
ENDBRANCH   1  14
BRANCH   9  18
ATOM     18  O   UNL     1       0.387   7.072  21.235  0.00  0.00    +0.000 OA
ATOM     19  H   UNL     1       0.112   6.855  22.143  0.00  0.00    +0.000 HD
ENDBRANCH   9  18
BRANCH   8  20
ATOM     20  C   UNL     1       2.109   8.925  18.943  0.00  0.00    +0.000 C 
BRANCH  20  21
ATOM     21  C   UNL     1       2.635   8.066  17.811  0.00  0.00    +0.000 C 
BRANCH  21  22
ATOM     22  C   UNL     1       3.134   6.688  18.101  0.00  0.00    +0.000 C 
ATOM     23  C   UNL     1       2.187   5.744  18.789  0.00  0.00    +0.000 C 
ATOM     24  C   UNL     1       4.291   6.236  17.568  0.00  0.00    +0.000 C 
BRANCH  24  25
ATOM     25  C   UNL     1       5.279   7.058  16.773  0.00  0.00    +0.000 C 
BRANCH  25  26
ATOM     26  C   UNL     1       6.740   6.657  17.061  0.00  0.00    +0.000 C 
ATOM     27  O   UNL     1       7.002   6.787  18.467  0.00  0.00    +0.000 OA
ATOM     28  C   UNL     1       7.460   5.599  18.943  0.00  0.00    +0.000 C 
ATOM     29  O   UNL     1       7.773   5.379  20.098  0.00  0.00    +0.000 OA
ATOM     30  C   UNL     1       7.515   4.626  17.860  0.00  0.00    +0.000 C 
ATOM     31  C   UNL     1       7.065   5.239  16.765  0.00  0.00    +0.000 C 
ATOM     32  C   UNL     1       6.917   4.633  15.414  0.00  0.00    +0.000 C 
ENDBRANCH  25  26
BRANCH  25  33
ATOM     33  O   UNL     1       4.944   6.954  15.390  0.00  0.00    +0.000 OA
ATOM     34  H   UNL     1       3.991   6.761  15.337  0.00  0.00    +0.000 HD
ENDBRANCH  25  33
ENDBRANCH  24  25
ENDBRANCH  21  22
ENDBRANCH  20  21
ENDBRANCH   8  20
TORSDOF 9
ENDMDL
