MODEL 1
REMARK VINA RESULT:      -7.7      0.000      0.000
REMARK  Name = 
REMARK  9 active torsions:
REMARK  status: ('A' for Active; 'I' for Inactive)
REMARK    1  A    between atoms: C_1  and  C_2
REMARK    2  A    between atoms: C_2  and  O_3
REMARK    3  A    between atoms: O_3  and  C_4
REMARK    4  A    between atoms: C_10  and  O_11
REMARK    5  A    between atoms: O_11  and  C_12
REMARK    6  A    between atoms: C_15  and  C_16
REMARK    7  A    between atoms: C_16  and  C_17
REMARK    8  A    between atoms: C_16  and  N_18
REMARK    9  A    between atoms: C_19  and  C_20
REMARK                            x       y       z     vdW  Elec       q    Type
REMARK                         _______ _______ _______ _____ _____    ______ ____
ROOT
ATOM      1  O   UNL     1       7.632   5.086  16.214  0.00  0.00    +0.000 OA
ENDROOT
BRANCH   1   8
ATOM      2  C   UNL     1       2.096   4.346  19.226  0.00  0.00    +0.000 A 
ATOM      3  C   UNL     1       2.939   4.992  20.120  0.00  0.00    +0.000 A 
ATOM      4  C   UNL     1       4.027   5.716  19.641  0.00  0.00    +0.000 A 
ATOM      5  C   UNL     1       4.262   5.799  18.270  0.00  0.00    +0.000 A 
ATOM      6  N   UNL     1       5.376   6.559  17.839  0.00  0.00    +0.000 N 
ATOM      7  C   UNL     1       5.756   6.742  16.470  0.00  0.00    +0.000 C 
ATOM      8  C   UNL     1       7.187   6.325  16.819  0.00  0.00    +0.000 C 
ATOM      9  C   UNL     1       6.715   6.268  18.275  0.00  0.00    +0.000 C 
ATOM     10  N   UNL     1       3.448   5.190  17.383  0.00  0.00    +0.000 NA
ATOM     11  C   UNL     1       2.402   4.472  17.876  0.00  0.00    +0.000 A 
BRANCH   2  12
ATOM     12  O   UNL     1       0.997   3.602  19.560  0.00  0.00    +0.000 OA
BRANCH  12  14
ATOM     13  C   UNL     1       1.366   2.514  21.679  0.00  0.00    +0.000 C 
ATOM     14  C   UNL     1       1.272   2.340  20.175  0.00  0.00    +0.000 C 
ENDBRANCH  12  14
ENDBRANCH   2  12
ENDBRANCH   1   8
BRANCH   1  15
ATOM     15  C   UNL     1       6.978   4.628  15.099  0.00  0.00    +0.000 A 
ATOM     16  C   UNL     1       7.569   4.930  13.872  0.00  0.00    +0.000 A 
ATOM     17  C   UNL     1       7.010   4.461  12.680  0.00  0.00    +0.000 A 
ATOM     18  C   UNL     1       5.851   3.673  12.704  0.00  0.00    +0.000 A 
ATOM     19  C   UNL     1       5.262   3.386  13.947  0.00  0.00    +0.000 A 
ATOM     20  C   UNL     1       5.824   3.853  15.136  0.00  0.00    +0.000 A 
BRANCH  18  21
ATOM     21  C   UNL     1       5.260   3.109  11.420  0.00  0.00    +0.000 C 
ATOM     22  C   UNL     1       3.839   3.641  11.207  0.00  0.00    +0.000 C 
BRANCH  21  23
ATOM     23  N   UNL     1       5.295   1.652  11.475  0.00  0.00    +0.000 N 
ATOM     24  C   UNL     1       6.427   0.923  11.193  0.00  0.00    +0.000 C 
ATOM     25  C   UNL     1       6.232  -0.566  11.319  0.00  0.00    +0.000 C 
ATOM     26  O   UNL     1       7.487   1.414  10.831  0.00  0.00    +0.000 OA
ATOM     27  H   UNL     1       4.528   1.189  11.946  0.00  0.00    +0.000 HD
ENDBRANCH  21  23
ENDBRANCH  18  21
ENDBRANCH   1  15
TORSDOF 6
ENDMDL
MODEL 2
REMARK VINA RESULT:      -7.3      4.176      9.020
REMARK  Name = 
REMARK  9 active torsions:
REMARK  status: ('A' for Active; 'I' for Inactive)
REMARK    1  A    between atoms: C_1  and  C_2
REMARK    2  A    between atoms: C_2  and  O_3
REMARK    3  A    between atoms: O_3  and  C_4
REMARK    4  A    between atoms: C_10  and  O_11
REMARK    5  A    between atoms: O_11  and  C_12
REMARK    6  A    between atoms: C_15  and  C_16
REMARK    7  A    between atoms: C_16  and  C_17
REMARK    8  A    between atoms: C_16  and  N_18
REMARK    9  A    between atoms: C_19  and  C_20
REMARK                            x       y       z     vdW  Elec       q    Type
REMARK                         _______ _______ _______ _____ _____    ______ ____
ROOT
ATOM      1  O   UNL     1       3.108   5.377  19.069  0.00  0.00    +0.000 OA
ENDROOT
BRANCH   1   8
ATOM      2  C   UNL     1       6.478   4.161  13.830  0.00  0.00    +0.000 A 
ATOM      3  C   UNL     1       7.095   5.241  14.446  0.00  0.00    +0.000 A 
ATOM      4  C   UNL     1       6.917   5.452  15.810  0.00  0.00    +0.000 A 
ATOM      5  C   UNL     1       6.131   4.576  16.555  0.00  0.00    +0.000 A 
ATOM      6  N   UNL     1       5.995   4.833  17.942  0.00  0.00    +0.000 N 
ATOM      7  C   UNL     1       5.222   4.033  18.845  0.00  0.00    +0.000 C 
ATOM      8  C   UNL     1       4.526   5.296  19.357  0.00  0.00    +0.000 C 
ATOM      9  C   UNL     1       5.475   6.077  18.442  0.00  0.00    +0.000 C 
ATOM     10  N   UNL     1       5.531   3.513  15.981  0.00  0.00    +0.000 NA
ATOM     11  C   UNL     1       5.705   3.338  14.643  0.00  0.00    +0.000 A 
BRANCH   2  12
ATOM     12  O   UNL     1       6.566   3.839  12.504  0.00  0.00    +0.000 OA
BRANCH  12  14
ATOM     13  C   UNL     1       4.473   3.316  11.428  0.00  0.00    +0.000 C 
ATOM     14  C   UNL     1       5.728   2.762  12.075  0.00  0.00    +0.000 C 
ENDBRANCH  12  14
ENDBRANCH   2  12
ENDBRANCH   1   8
BRANCH   1  15
ATOM     15  C   UNL     1       2.503   6.608  19.088  0.00  0.00    +0.000 A 
ATOM     16  C   UNL     1       2.014   7.033  20.324  0.00  0.00    +0.000 A 
ATOM     17  C   UNL     1       1.430   8.296  20.460  0.00  0.00    +0.000 A 
ATOM     18  C   UNL     1       1.337   9.154  19.356  0.00  0.00    +0.000 A 
ATOM     19  C   UNL     1       1.825   8.708  18.117  0.00  0.00    +0.000 A 
ATOM     20  C   UNL     1       2.410   7.447  17.984  0.00  0.00    +0.000 A 
BRANCH  18  21
ATOM     21  C   UNL     1       0.754  10.553  19.499  0.00  0.00    +0.000 C 
ATOM     22  C   UNL     1       0.704  10.963  20.975  0.00  0.00    +0.000 C 
BRANCH  21  23
ATOM     23  N   UNL     1      -0.565  10.589  18.878  0.00  0.00    +0.000 N 
ATOM     24  C   UNL     1      -1.079  11.721  18.287  0.00  0.00    +0.000 C 
ATOM     25  C   UNL     1      -2.455  11.524  17.705  0.00  0.00    +0.000 C 
ATOM     26  O   UNL     1      -0.509  12.802  18.264  0.00  0.00    +0.000 OA
ATOM     27  H   UNL     1      -1.011   9.701  18.687  0.00  0.00    +0.000 HD
ENDBRANCH  21  23
ENDBRANCH  18  21
ENDBRANCH   1  15
TORSDOF 6
ENDMDL
MODEL 3
REMARK VINA RESULT:      -7.3      4.121      8.886
REMARK  Name = 
REMARK  9 active torsions:
REMARK  status: ('A' for Active; 'I' for Inactive)
REMARK    1  A    between atoms: C_1  and  C_2
REMARK    2  A    between atoms: C_2  and  O_3
REMARK    3  A    between atoms: O_3  and  C_4
REMARK    4  A    between atoms: C_10  and  O_11
REMARK    5  A    between atoms: O_11  and  C_12
REMARK    6  A    between atoms: C_15  and  C_16
REMARK    7  A    between atoms: C_16  and  C_17
REMARK    8  A    between atoms: C_16  and  N_18
REMARK    9  A    between atoms: C_19  and  C_20
REMARK                            x       y       z     vdW  Elec       q    Type
REMARK                         _______ _______ _______ _____ _____    ______ ____
ROOT
ATOM      1  O   UNL     1       2.356   3.943  18.144  0.00  0.00    +0.000 OA
ENDROOT
BRANCH   1   8
ATOM      2  C   UNL     1       7.696   7.324  17.573  0.00  0.00    +0.000 A 
ATOM      3  C   UNL     1       7.788   6.657  18.787  0.00  0.00    +0.000 A 
ATOM      4  C   UNL     1       7.045   5.499  18.996  0.00  0.00    +0.000 A 
ATOM      5  C   UNL     1       6.221   5.006  17.986  0.00  0.00    +0.000 A 
ATOM      6  N   UNL     1       5.498   3.817  18.250  0.00  0.00    +0.000 N 
ATOM      7  C   UNL     1       4.609   3.183  17.322  0.00  0.00    +0.000 C 
ATOM      8  C   UNL     1       3.528   3.132  18.405  0.00  0.00    +0.000 C 
ATOM      9  C   UNL     1       4.584   3.707  19.355  0.00  0.00    +0.000 C 
ATOM     10  N   UNL     1       6.126   5.631  16.794  0.00  0.00    +0.000 NA
ATOM     11  C   UNL     1       6.847   6.772  16.621  0.00  0.00    +0.000 A 
BRANCH   2  12
ATOM     12  O   UNL     1       8.366   8.469  17.238  0.00  0.00    +0.000 OA
BRANCH  12  14
ATOM     13  C   UNL     1       9.238   9.911  18.960  0.00  0.00    +0.000 C 
ATOM     14  C   UNL     1       8.069   9.614  18.043  0.00  0.00    +0.000 C 
ENDBRANCH  12  14
ENDBRANCH   2  12
ENDBRANCH   1   8
BRANCH   1  15
ATOM     15  C   UNL     1       2.161   5.075  18.893  0.00  0.00    +0.000 A 
ATOM     16  C   UNL     1       2.451   6.286  18.265  0.00  0.00    +0.000 A 
ATOM     17  C   UNL     1       2.234   7.499  18.926  0.00  0.00    +0.000 A 
ATOM     18  C   UNL     1       1.712   7.512  20.226  0.00  0.00    +0.000 A 
ATOM     19  C   UNL     1       1.434   6.284  20.849  0.00  0.00    +0.000 A 
ATOM     20  C   UNL     1       1.650   5.074  20.187  0.00  0.00    +0.000 A 
BRANCH  18  21
ATOM     21  C   UNL     1       1.418   8.824  20.939  0.00  0.00    +0.000 C 
ATOM     22  C   UNL     1       0.387   8.608  22.053  0.00  0.00    +0.000 C 
BRANCH  21  23
ATOM     23  N   UNL     1       0.968   9.810  19.963  0.00  0.00    +0.000 N 
ATOM     24  C   UNL     1       0.973  11.163  20.215  0.00  0.00    +0.000 C 
ATOM     25  C   UNL     1       0.470  11.992  19.061  0.00  0.00    +0.000 C 
ATOM     26  O   UNL     1       1.307  11.661  21.280  0.00  0.00    +0.000 OA
ATOM     27  H   UNL     1       0.861   9.499  19.006  0.00  0.00    +0.000 HD
ENDBRANCH  21  23
ENDBRANCH  18  21
ENDBRANCH   1  15
TORSDOF 6
ENDMDL
MODEL 4
REMARK VINA RESULT:      -7.2      4.119      9.137
REMARK  Name = 
REMARK  9 active torsions:
REMARK  status: ('A' for Active; 'I' for Inactive)
REMARK    1  A    between atoms: C_1  and  C_2
REMARK    2  A    between atoms: C_2  and  O_3
REMARK    3  A    between atoms: O_3  and  C_4
REMARK    4  A    between atoms: C_10  and  O_11
REMARK    5  A    between atoms: O_11  and  C_12
REMARK    6  A    between atoms: C_15  and  C_16
REMARK    7  A    between atoms: C_16  and  C_17
REMARK    8  A    between atoms: C_16  and  N_18
REMARK    9  A    between atoms: C_19  and  C_20
REMARK                            x       y       z     vdW  Elec       q    Type
REMARK                         _______ _______ _______ _____ _____    ______ ____
ROOT
ATOM      1  O   UNL     1       3.007   5.547  18.816  0.00  0.00    +0.000 OA
ENDROOT
BRANCH   1   8
ATOM      2  C   UNL     1       6.579   4.150  13.760  0.00  0.00    +0.000 A 
ATOM      3  C   UNL     1       7.228   5.187  14.417  0.00  0.00    +0.000 A 
ATOM      4  C   UNL     1       6.988   5.401  15.772  0.00  0.00    +0.000 A 
ATOM      5  C   UNL     1       6.109   4.572  16.465  0.00  0.00    +0.000 A 
ATOM      6  N   UNL     1       5.913   4.829  17.844  0.00  0.00    +0.000 N 
ATOM      7  C   UNL     1       5.044   4.075  18.697  0.00  0.00    +0.000 C 
ATOM      8  C   UNL     1       4.399   5.376  19.180  0.00  0.00    +0.000 C 
ATOM      9  C   UNL     1       5.445   6.101  18.326  0.00  0.00    +0.000 C 
ATOM     10  N   UNL     1       5.477   3.551  15.850  0.00  0.00    +0.000 NA
ATOM     11  C   UNL     1       5.713   3.374  14.521  0.00  0.00    +0.000 A 
BRANCH   2  12
ATOM     12  O   UNL     1       6.720   3.831  12.437  0.00  0.00    +0.000 OA
BRANCH  12  14
ATOM     13  C   UNL     1       6.716   1.801  11.138  0.00  0.00    +0.000 C 
ATOM     14  C   UNL     1       5.891   2.762  11.971  0.00  0.00    +0.000 C 
ENDBRANCH  12  14
ENDBRANCH   2  12
ENDBRANCH   1   8
BRANCH   1  15
ATOM     15  C   UNL     1       2.429   6.778  18.993  0.00  0.00    +0.000 A 
ATOM     16  C   UNL     1       1.980   7.067  20.282  0.00  0.00    +0.000 A 
ATOM     17  C   UNL     1       1.426   8.316  20.578  0.00  0.00    +0.000 A 
ATOM     18  C   UNL     1       1.323   9.297  19.582  0.00  0.00    +0.000 A 
ATOM     19  C   UNL     1       1.770   8.987  18.287  0.00  0.00    +0.000 A 
ATOM     20  C   UNL     1       2.325   7.740  17.995  0.00  0.00    +0.000 A 
BRANCH  18  21
ATOM     21  C   UNL     1       0.772  10.680  19.900  0.00  0.00    +0.000 C 
ATOM     22  C   UNL     1      -0.760  10.655  19.916  0.00  0.00    +0.000 C 
BRANCH  21  23
ATOM     23  N   UNL     1       1.292  11.637  18.930  0.00  0.00    +0.000 N 
ATOM     24  C   UNL     1       2.012  12.751  19.296  0.00  0.00    +0.000 C 
ATOM     25  C   UNL     1       2.452  13.595  18.127  0.00  0.00    +0.000 C 
ATOM     26  O   UNL     1       2.246  13.067  20.454  0.00  0.00    +0.000 OA
ATOM     27  H   UNL     1       1.308  11.351  17.960  0.00  0.00    +0.000 HD
ENDBRANCH  21  23
ENDBRANCH  18  21
ENDBRANCH   1  15
TORSDOF 6
ENDMDL
MODEL 5
REMARK VINA RESULT:      -7.2      7.560      9.597
REMARK  Name = 
REMARK  9 active torsions:
REMARK  status: ('A' for Active; 'I' for Inactive)
REMARK    1  A    between atoms: C_1  and  C_2
REMARK    2  A    between atoms: C_2  and  O_3
REMARK    3  A    between atoms: O_3  and  C_4
REMARK    4  A    between atoms: C_10  and  O_11
REMARK    5  A    between atoms: O_11  and  C_12
REMARK    6  A    between atoms: C_15  and  C_16
REMARK    7  A    between atoms: C_16  and  C_17
REMARK    8  A    between atoms: C_16  and  N_18
REMARK    9  A    between atoms: C_19  and  C_20
REMARK                            x       y       z     vdW  Elec       q    Type
REMARK                         _______ _______ _______ _____ _____    ______ ____
ROOT
ATOM      1  O   UNL     1       0.408   9.902  19.846  0.00  0.00    +0.000 OA
ENDROOT
BRANCH   1   8
ATOM      2  C   UNL     1      -4.429  13.085  22.443  0.00  0.00    +0.000 A 
ATOM      3  C   UNL     1      -3.823  12.390  23.480  0.00  0.00    +0.000 A 
ATOM      4  C   UNL     1      -2.494  11.993  23.359  0.00  0.00    +0.000 A 
ATOM      5  C   UNL     1      -1.775  12.302  22.208  0.00  0.00    +0.000 A 
ATOM      6  N   UNL     1      -0.423  11.884  22.145  0.00  0.00    +0.000 N 
ATOM      7  C   UNL     1       0.452  12.118  21.035  0.00  0.00    +0.000 C 
ATOM      8  C   UNL     1       0.826  10.634  21.024  0.00  0.00    +0.000 C 
ATOM      9  C   UNL     1      -0.042  10.503  22.280  0.00  0.00    +0.000 C 
ATOM     10  N   UNL     1      -2.339  12.988  21.192  0.00  0.00    +0.000 NA
ATOM     11  C   UNL     1      -3.645  13.348  21.325  0.00  0.00    +0.000 A 
BRANCH   2  12
ATOM     12  O   UNL     1      -5.723  13.531  22.428  0.00  0.00    +0.000 OA
BRANCH  12  14
ATOM     13  C   UNL     1      -7.465  13.569  24.094  0.00  0.00    +0.000 C 
ATOM     14  C   UNL     1      -6.161  14.184  23.623  0.00  0.00    +0.000 C 
ENDBRANCH  12  14
ENDBRANCH   2  12
ENDBRANCH   1   8
BRANCH   1  15
ATOM     15  C   UNL     1       1.279   8.999  19.291  0.00  0.00    +0.000 A 
ATOM     16  C   UNL     1       1.634   7.915  20.093  0.00  0.00    +0.000 A 
ATOM     17  C   UNL     1       2.473   6.911  19.600  0.00  0.00    +0.000 A 
ATOM     18  C   UNL     1       2.961   6.979  18.288  0.00  0.00    +0.000 A 
ATOM     19  C   UNL     1       2.602   8.083  17.496  0.00  0.00    +0.000 A 
ATOM     20  C   UNL     1       1.762   9.082  17.990  0.00  0.00    +0.000 A 
BRANCH  18  21
ATOM     21  C   UNL     1       3.830   5.868  17.717  0.00  0.00    +0.000 C 
ATOM     22  C   UNL     1       3.328   4.500  18.190  0.00  0.00    +0.000 C 
BRANCH  21  23
ATOM     23  N   UNL     1       5.219   6.102  18.098  0.00  0.00    +0.000 N 
ATOM     24  C   UNL     1       6.157   6.598  17.223  0.00  0.00    +0.000 C 
ATOM     25  C   UNL     1       7.524   6.762  17.836  0.00  0.00    +0.000 C 
ATOM     26  O   UNL     1       5.935   6.846  16.046  0.00  0.00    +0.000 OA
ATOM     27  H   UNL     1       5.432   6.105  19.087  0.00  0.00    +0.000 HD
ENDBRANCH  21  23
ENDBRANCH  18  21
ENDBRANCH   1  15
TORSDOF 6
ENDMDL
MODEL 6
REMARK VINA RESULT:      -7.2      5.241      9.057
REMARK  Name = 
REMARK  9 active torsions:
REMARK  status: ('A' for Active; 'I' for Inactive)
REMARK    1  A    between atoms: C_1  and  C_2
REMARK    2  A    between atoms: C_2  and  O_3
REMARK    3  A    between atoms: O_3  and  C_4
REMARK    4  A    between atoms: C_10  and  O_11
REMARK    5  A    between atoms: O_11  and  C_12
REMARK    6  A    between atoms: C_15  and  C_16
REMARK    7  A    between atoms: C_16  and  C_17
REMARK    8  A    between atoms: C_16  and  N_18
REMARK    9  A    between atoms: C_19  and  C_20
REMARK                            x       y       z     vdW  Elec       q    Type
REMARK                         _______ _______ _______ _____ _____    ______ ____
ROOT
ATOM      1  O   UNL     1       7.330   8.619  17.645  0.00  0.00    +0.000 OA
ENDROOT
BRANCH   1   8
ATOM      2  C   UNL     1       2.661   4.480  18.802  0.00  0.00    +0.000 A 
ATOM      3  C   UNL     1       3.202   4.120  17.576  0.00  0.00    +0.000 A 
ATOM      4  C   UNL     1       4.505   4.495  17.260  0.00  0.00    +0.000 A 
ATOM      5  C   UNL     1       5.264   5.221  18.175  0.00  0.00    +0.000 A 
ATOM      6  N   UNL     1       6.587   5.565  17.804  0.00  0.00    +0.000 N 
ATOM      7  C   UNL     1       7.495   6.309  18.627  0.00  0.00    +0.000 C 
ATOM      8  C   UNL     1       7.773   7.253  17.454  0.00  0.00    +0.000 C 
ATOM      9  C   UNL     1       6.875   6.332  16.622  0.00  0.00    +0.000 C 
ATOM     10  N   UNL     1       4.763   5.571  19.378  0.00  0.00    +0.000 NA
ATOM     11  C   UNL     1       3.481   5.209  19.656  0.00  0.00    +0.000 A 
BRANCH   2  12
ATOM     12  O   UNL     1       1.399   4.180  19.238  0.00  0.00    +0.000 OA
BRANCH  12  14
ATOM     13  C   UNL     1       1.304   2.780  21.198  0.00  0.00    +0.000 C 
ATOM     14  C   UNL     1       1.207   2.835  19.686  0.00  0.00    +0.000 C 
ENDBRANCH  12  14
ENDBRANCH   2  12
ENDBRANCH   1   8
BRANCH   1  15
ATOM     15  C   UNL     1       8.228   9.539  18.122  0.00  0.00    +0.000 A 
ATOM     16  C   UNL     1       8.240  10.777  17.479  0.00  0.00    +0.000 A 
ATOM     17  C   UNL     1       9.081  11.802  17.925  0.00  0.00    +0.000 A 
ATOM     18  C   UNL     1       9.917  11.598  19.031  0.00  0.00    +0.000 A 
ATOM     19  C   UNL     1       9.901  10.342  19.662  0.00  0.00    +0.000 A 
ATOM     20  C   UNL     1       9.059   9.322  19.215  0.00  0.00    +0.000 A 
BRANCH  18  21
ATOM     21  C   UNL     1      10.798  12.719  19.564  0.00  0.00    +0.000 C 
ATOM     22  C   UNL     1      12.227  12.214  19.792  0.00  0.00    +0.000 C 
BRANCH  21  23
ATOM     23  N   UNL     1      10.207  13.255  20.785  0.00  0.00    +0.000 N 
ATOM     24  C   UNL     1      10.280  14.587  21.124  0.00  0.00    +0.000 C 
ATOM     25  C   UNL     1       9.594  14.914  22.426  0.00  0.00    +0.000 C 
ATOM     26  O   UNL     1      10.875  15.430  20.470  0.00  0.00    +0.000 OA
ATOM     27  H   UNL     1       9.543  12.669  21.273  0.00  0.00    +0.000 HD
ENDBRANCH  21  23
ENDBRANCH  18  21
ENDBRANCH   1  15
TORSDOF 6
ENDMDL
MODEL 7
REMARK VINA RESULT:      -7.1      5.943      8.063
REMARK  Name = 
REMARK  9 active torsions:
REMARK  status: ('A' for Active; 'I' for Inactive)
REMARK    1  A    between atoms: C_1  and  C_2
REMARK    2  A    between atoms: C_2  and  O_3
REMARK    3  A    between atoms: O_3  and  C_4
REMARK    4  A    between atoms: C_10  and  O_11
REMARK    5  A    between atoms: O_11  and  C_12
REMARK    6  A    between atoms: C_15  and  C_16
REMARK    7  A    between atoms: C_16  and  C_17
REMARK    8  A    between atoms: C_16  and  N_18
REMARK    9  A    between atoms: C_19  and  C_20
REMARK                            x       y       z     vdW  Elec       q    Type
REMARK                         _______ _______ _______ _____ _____    ______ ____
ROOT
ATOM      1  O   UNL     1       1.150   8.110  20.276  0.00  0.00    +0.000 OA
ENDROOT
BRANCH   1   8
ATOM      2  C   UNL     1      -3.976  10.940  17.828  0.00  0.00    +0.000 A 
ATOM      3  C   UNL     1      -3.301  11.917  18.548  0.00  0.00    +0.000 A 
ATOM      4  C   UNL     1      -1.940  11.772  18.798  0.00  0.00    +0.000 A 
ATOM      5  C   UNL     1      -1.257  10.656  18.320  0.00  0.00    +0.000 A 
ATOM      6  N   UNL     1       0.130  10.567  18.595  0.00  0.00    +0.000 N 
ATOM      7  C   UNL     1       0.975   9.487  18.178  0.00  0.00    +0.000 C 
ATOM      8  C   UNL     1       1.495   9.350  19.611  0.00  0.00    +0.000 C 
ATOM      9  C   UNL     1       0.647  10.584  19.937  0.00  0.00    +0.000 C 
ATOM     10  N   UNL     1      -1.889   9.700  17.608  0.00  0.00    +0.000 NA
ATOM     11  C   UNL     1      -3.223   9.855  17.392  0.00  0.00    +0.000 A 
BRANCH   2  12
ATOM     12  O   UNL     1      -5.307  10.955  17.514  0.00  0.00    +0.000 OA
BRANCH  12  14
ATOM     13  C   UNL     1      -6.832  10.078  19.162  0.00  0.00    +0.000 C 
ATOM     14  C   UNL     1      -6.187  11.322  18.581  0.00  0.00    +0.000 C 
ENDBRANCH  12  14
ENDBRANCH   2  12
ENDBRANCH   1   8
BRANCH   1  15
ATOM     15  C   UNL     1       1.838   6.972  19.940  0.00  0.00    +0.000 A 
ATOM     16  C   UNL     1       2.656   7.058  18.813  0.00  0.00    +0.000 A 
ATOM     17  C   UNL     1       3.441   5.970  18.420  0.00  0.00    +0.000 A 
ATOM     18  C   UNL     1       3.421   4.780  19.160  0.00  0.00    +0.000 A 
ATOM     19  C   UNL     1       2.584   4.705  20.287  0.00  0.00    +0.000 A 
ATOM     20  C   UNL     1       1.803   5.794  20.678  0.00  0.00    +0.000 A 
BRANCH  18  21
ATOM     21  C   UNL     1       4.309   3.605  18.779  0.00  0.00    +0.000 C 
ATOM     22  C   UNL     1       4.083   2.430  19.737  0.00  0.00    +0.000 C 
BRANCH  21  23
ATOM     23  N   UNL     1       5.701   4.039  18.767  0.00  0.00    +0.000 N 
ATOM     24  C   UNL     1       6.386   4.312  17.605  0.00  0.00    +0.000 C 
ATOM     25  C   UNL     1       7.810   4.750  17.834  0.00  0.00    +0.000 C 
ATOM     26  O   UNL     1       5.918   4.176  16.484  0.00  0.00    +0.000 OA
ATOM     27  H   UNL     1       6.094   4.357  19.644  0.00  0.00    +0.000 HD
ENDBRANCH  21  23
ENDBRANCH  18  21
ENDBRANCH   1  15
TORSDOF 6
ENDMDL
MODEL 8
REMARK VINA RESULT:      -7.1      4.027      9.315
REMARK  Name = 
REMARK  9 active torsions:
REMARK  status: ('A' for Active; 'I' for Inactive)
REMARK    1  A    between atoms: C_1  and  C_2
REMARK    2  A    between atoms: C_2  and  O_3
REMARK    3  A    between atoms: O_3  and  C_4
REMARK    4  A    between atoms: C_10  and  O_11
REMARK    5  A    between atoms: O_11  and  C_12
REMARK    6  A    between atoms: C_15  and  C_16
REMARK    7  A    between atoms: C_16  and  C_17
REMARK    8  A    between atoms: C_16  and  N_18
REMARK    9  A    between atoms: C_19  and  C_20
REMARK                            x       y       z     vdW  Elec       q    Type
REMARK                         _______ _______ _______ _____ _____    ______ ____
ROOT
ATOM      1  O   UNL     1       3.206   5.472  18.785  0.00  0.00    +0.000 OA
ENDROOT
BRANCH   1   8
ATOM      2  C   UNL     1       6.605   4.131  13.596  0.00  0.00    +0.000 A 
ATOM      3  C   UNL     1       7.222   5.223  14.191  0.00  0.00    +0.000 A 
ATOM      4  C   UNL     1       7.036   5.464  15.550  0.00  0.00    +0.000 A 
ATOM      5  C   UNL     1       6.242   4.607  16.309  0.00  0.00    +0.000 A 
ATOM      6  N   UNL     1       6.099   4.895  17.689  0.00  0.00    +0.000 N 
ATOM      7  C   UNL     1       5.318   4.117  18.605  0.00  0.00    +0.000 C 
ATOM      8  C   UNL     1       4.622   5.394  19.084  0.00  0.00    +0.000 C 
ATOM      9  C   UNL     1       5.579   6.152  18.158  0.00  0.00    +0.000 C 
ATOM     10  N   UNL     1       5.643   3.533  15.755  0.00  0.00    +0.000 NA
ATOM     11  C   UNL     1       5.825   3.329  14.422  0.00  0.00    +0.000 A 
BRANCH   2  12
ATOM     12  O   UNL     1       6.700   3.780  12.278  0.00  0.00    +0.000 OA
BRANCH  12  14
ATOM     13  C   UNL     1       6.715   1.664  11.124  0.00  0.00    +0.000 C 
ATOM     14  C   UNL     1       5.877   2.682  11.873  0.00  0.00    +0.000 C 
ENDBRANCH  12  14
ENDBRANCH   2  12
ENDBRANCH   1   8
BRANCH   1  15
ATOM     15  C   UNL     1       2.595   6.699  18.820  0.00  0.00    +0.000 A 
ATOM     16  C   UNL     1       2.056   7.083  20.048  0.00  0.00    +0.000 A 
ATOM     17  C   UNL     1       1.461   8.339  20.201  0.00  0.00    +0.000 A 
ATOM     18  C   UNL     1       1.406   9.231  19.122  0.00  0.00    +0.000 A 
ATOM     19  C   UNL     1       1.944   8.826  17.889  0.00  0.00    +0.000 A 
ATOM     20  C   UNL     1       2.539   7.572  17.740  0.00  0.00    +0.000 A 
BRANCH  18  21
ATOM     21  C   UNL     1       0.810  10.622  19.286  0.00  0.00    +0.000 C 
ATOM     22  C   UNL     1       1.763  11.681  18.720  0.00  0.00    +0.000 C 
BRANCH  21  23
ATOM     23  N   UNL     1       0.512  10.854  20.694  0.00  0.00    +0.000 N 
ATOM     24  C   UNL     1      -0.699  11.344  21.128  0.00  0.00    +0.000 C 
ATOM     25  C   UNL     1      -0.785  11.498  22.625  0.00  0.00    +0.000 C 
ATOM     26  O   UNL     1      -1.613  11.671  20.384  0.00  0.00    +0.000 OA
ATOM     27  H   UNL     1       1.133  10.434  21.374  0.00  0.00    +0.000 HD
ENDBRANCH  21  23
ENDBRANCH  18  21
ENDBRANCH   1  15
TORSDOF 6
ENDMDL
MODEL 9
REMARK VINA RESULT:      -7.1      1.691      2.493
REMARK  Name = 
REMARK  9 active torsions:
REMARK  status: ('A' for Active; 'I' for Inactive)
REMARK    1  A    between atoms: C_1  and  C_2
REMARK    2  A    between atoms: C_2  and  O_3
REMARK    3  A    between atoms: O_3  and  C_4
REMARK    4  A    between atoms: C_10  and  O_11
REMARK    5  A    between atoms: O_11  and  C_12
REMARK    6  A    between atoms: C_15  and  C_16
REMARK    7  A    between atoms: C_16  and  C_17
REMARK    8  A    between atoms: C_16  and  N_18
REMARK    9  A    between atoms: C_19  and  C_20
REMARK                            x       y       z     vdW  Elec       q    Type
REMARK                         _______ _______ _______ _____ _____    ______ ____
ROOT
ATOM      1  O   UNL     1       7.219   6.347  16.007  0.00  0.00    +0.000 OA
ENDROOT
BRANCH   1   8
ATOM      2  C   UNL     1       2.495   3.359  19.013  0.00  0.00    +0.000 A 
ATOM      3  C   UNL     1       3.582   2.497  19.048  0.00  0.00    +0.000 A 
ATOM      4  C   UNL     1       4.871   3.007  18.918  0.00  0.00    +0.000 A 
ATOM      5  C   UNL     1       5.067   4.377  18.762  0.00  0.00    +0.000 A 
ATOM      6  N   UNL     1       6.401   4.841  18.647  0.00  0.00    +0.000 N 
ATOM      7  C   UNL     1       6.773   6.214  18.480  0.00  0.00    +0.000 C 
ATOM      8  C   UNL     1       7.651   5.824  17.288  0.00  0.00    +0.000 C 
ATOM      9  C   UNL     1       7.286   4.372  17.615  0.00  0.00    +0.000 C 
ATOM     10  N   UNL     1       4.026   5.235  18.738  0.00  0.00    +0.000 NA
ATOM     11  C   UNL     1       2.775   4.711  18.848  0.00  0.00    +0.000 A 
BRANCH   2  12
ATOM     12  O   UNL     1       1.181   2.994  19.126  0.00  0.00    +0.000 OA
BRANCH  12  14
ATOM     13  C   UNL     1       1.376   2.712  21.512  0.00  0.00    +0.000 C 
ATOM     14  C   UNL     1       0.563   3.305  20.378  0.00  0.00    +0.000 C 
ENDBRANCH  12  14
ENDBRANCH   2  12
ENDBRANCH   1   8
BRANCH   1  15
ATOM     15  C   UNL     1       6.826   5.462  15.036  0.00  0.00    +0.000 A 
ATOM     16  C   UNL     1       5.516   4.991  15.127  0.00  0.00    +0.000 A 
ATOM     17  C   UNL     1       5.002   4.128  14.154  0.00  0.00    +0.000 A 
ATOM     18  C   UNL     1       5.797   3.732  13.070  0.00  0.00    +0.000 A 
ATOM     19  C   UNL     1       7.117   4.206  12.998  0.00  0.00    +0.000 A 
ATOM     20  C   UNL     1       7.627   5.069  13.970  0.00  0.00    +0.000 A 
BRANCH  18  21
ATOM     21  C   UNL     1       5.236   2.837  11.975  0.00  0.00    +0.000 C 
ATOM     22  C   UNL     1       6.344   1.960  11.381  0.00  0.00    +0.000 C 
BRANCH  21  23
ATOM     23  N   UNL     1       4.594   3.665  10.960  0.00  0.00    +0.000 N 
ATOM     24  C   UNL     1       3.326   3.414  10.488  0.00  0.00    +0.000 C 
ATOM     25  C   UNL     1       2.865   4.402   9.448  0.00  0.00    +0.000 C 
ATOM     26  O   UNL     1       2.641   2.461  10.833  0.00  0.00    +0.000 OA
ATOM     27  H   UNL     1       5.010   4.567  10.769  0.00  0.00    +0.000 HD
ENDBRANCH  21  23
ENDBRANCH  18  21
ENDBRANCH   1  15
TORSDOF 6
ENDMDL
