MODEL 1
REMARK VINA RESULT:      -8.2      0.000      0.000
REMARK  Name = 
REMARK  6 active torsions:
REMARK  status: ('A' for Active; 'I' for Inactive)
REMARK    1  A    between atoms: C_1  and  C_2
REMARK    2  A    between atoms: C_7  and  C_8
REMARK    3  A    between atoms: C_11  and  C_12
REMARK    4  A    between atoms: C_12  and  O_13
REMARK    5  A    between atoms: N_17  and  C_18
REMARK    6  A    between atoms: C_18  and  C_19
REMARK                            x       y       z     vdW  Elec       q    Type
REMARK                         _______ _______ _______ _____ _____    ______ ____
ROOT
ATOM      1  C   UNL     1       1.384   2.561  21.615  0.00  0.00    +0.000 C 
ATOM      2  C   UNL     1       2.290   3.364  20.764  0.00  0.00    +0.000 A 
ATOM      3  C   UNL     1       3.501   3.088  20.151  0.00  0.00    +0.000 A 
ATOM      4  C   UNL     1       3.792   4.292  19.477  0.00  0.00    +0.000 A 
ATOM      5  C   UNL     1       2.805   5.176  19.725  0.00  0.00    +0.000 A 
ATOM      6  O   UNL     1       1.852   4.637  20.522  0.00  0.00    +0.000 OA
ATOM      7  C   UNL     1       3.122   6.386  19.057  0.00  0.00    +0.000 A 
ATOM      8  N   UNL     1       4.288   6.305  18.371  0.00  0.00    +0.000 NA
ATOM      9  N   UNL     1       4.656   5.003  18.667  0.00  0.00    +0.000 N 
ENDROOT
BRANCH   7  10
ATOM     10  C   UNL     1       2.259   7.561  19.113  0.00  0.00    +0.000 A 
ATOM     11  C   UNL     1       2.030   8.332  17.964  0.00  0.00    +0.000 A 
ATOM     12  C   UNL     1       1.263   9.498  18.022  0.00  0.00    +0.000 A 
ATOM     13  C   UNL     1       0.694   9.916  19.230  0.00  0.00    +0.000 A 
ATOM     14  C   UNL     1       0.921   9.145  20.380  0.00  0.00    +0.000 A 
ATOM     15  C   UNL     1       1.683   7.970  20.320  0.00  0.00    +0.000 A 
BRANCH  13  16
ATOM     16  C   UNL     1      -0.071  11.214  19.277  0.00  0.00    +0.000 C 
BRANCH  16  17
ATOM     17  O   UNL     1      -0.181  11.815  17.993  0.00  0.00    +0.000 OA
ATOM     18  H   UNL     1       0.262  11.217  17.368  0.00  0.00    +0.000 HD
ENDBRANCH  16  17
ENDBRANCH  13  16
ENDBRANCH   7  10
BRANCH   9  19
ATOM     19  C   UNL     1       5.947   4.492  18.219  0.00  0.00    +0.000 C 
BRANCH  19  20
ATOM     20  C   UNL     1       6.093   4.503  16.717  0.00  0.00    +0.000 A 
ATOM     21  C   UNL     1       7.277   4.962  16.118  0.00  0.00    +0.000 A 
ATOM     22  C   UNL     1       7.432   4.928  14.731  0.00  0.00    +0.000 A 
ATOM     23  C   UNL     1       6.410   4.432  13.926  0.00  0.00    +0.000 A 
ATOM     24  C   UNL     1       5.231   3.970  14.506  0.00  0.00    +0.000 A 
ATOM     25  C   UNL     1       5.072   4.005  15.894  0.00  0.00    +0.000 A 
ENDBRANCH  19  20
ENDBRANCH   9  19
TORSDOF 5
ENDMDL
MODEL 2
REMARK VINA RESULT:      -8.0      0.400      1.062
REMARK  Name = 
REMARK  6 active torsions:
REMARK  status: ('A' for Active; 'I' for Inactive)
REMARK    1  A    between atoms: C_1  and  C_2
REMARK    2  A    between atoms: C_7  and  C_8
REMARK    3  A    between atoms: C_11  and  C_12
REMARK    4  A    between atoms: C_12  and  O_13
REMARK    5  A    between atoms: N_17  and  C_18
REMARK    6  A    between atoms: C_18  and  C_19
REMARK                            x       y       z     vdW  Elec       q    Type
REMARK                         _______ _______ _______ _____ _____    ______ ____
ROOT
ATOM      1  C   UNL     1       1.333   2.605  21.609  0.00  0.00    +0.000 C 
ATOM      2  C   UNL     1       2.255   3.398  20.766  0.00  0.00    +0.000 A 
ATOM      3  C   UNL     1       3.461   3.106  20.152  0.00  0.00    +0.000 A 
ATOM      4  C   UNL     1       3.775   4.310  19.489  0.00  0.00    +0.000 A 
ATOM      5  C   UNL     1       2.802   5.209  19.742  0.00  0.00    +0.000 A 
ATOM      6  O   UNL     1       1.839   4.680  20.533  0.00  0.00    +0.000 OA
ATOM      7  C   UNL     1       3.141   6.419  19.084  0.00  0.00    +0.000 A 
ATOM      8  N   UNL     1       4.306   6.323  18.399  0.00  0.00    +0.000 NA
ATOM      9  N   UNL     1       4.652   5.013  18.685  0.00  0.00    +0.000 N 
ENDROOT
BRANCH   7  10
ATOM     10  C   UNL     1       2.299   7.608  19.148  0.00  0.00    +0.000 A 
ATOM     11  C   UNL     1       1.690   7.987  20.353  0.00  0.00    +0.000 A 
ATOM     12  C   UNL     1       0.825   9.083  20.408  0.00  0.00    +0.000 A 
ATOM     13  C   UNL     1       0.558   9.836  19.260  0.00  0.00    +0.000 A 
ATOM     14  C   UNL     1       1.166   9.460  18.053  0.00  0.00    +0.000 A 
ATOM     15  C   UNL     1       2.041   8.366  18.000  0.00  0.00    +0.000 A 
BRANCH  13  16
ATOM     16  C   UNL     1      -0.433  10.971  19.334  0.00  0.00    +0.000 C 
BRANCH  16  17
ATOM     17  O   UNL     1      -1.601  10.711  18.566  0.00  0.00    +0.000 OA
ATOM     18  H   UNL     1      -1.440  11.087  17.683  0.00  0.00    +0.000 HD
ENDBRANCH  16  17
ENDBRANCH  13  16
ENDBRANCH   7  10
BRANCH   9  19
ATOM     19  C   UNL     1       5.934   4.483  18.236  0.00  0.00    +0.000 C 
BRANCH  19  20
ATOM     20  C   UNL     1       6.078   4.492  16.733  0.00  0.00    +0.000 A 
ATOM     21  C   UNL     1       7.270   4.926  16.132  0.00  0.00    +0.000 A 
ATOM     22  C   UNL     1       7.423   4.889  14.745  0.00  0.00    +0.000 A 
ATOM     23  C   UNL     1       6.389   4.415  13.941  0.00  0.00    +0.000 A 
ATOM     24  C   UNL     1       5.201   3.979  14.523  0.00  0.00    +0.000 A 
ATOM     25  C   UNL     1       5.045   4.016  15.911  0.00  0.00    +0.000 A 
ENDBRANCH  19  20
ENDBRANCH   9  19
TORSDOF 5
ENDMDL
MODEL 3
REMARK VINA RESULT:      -7.9      2.125      2.778
REMARK  Name = 
REMARK  6 active torsions:
REMARK  status: ('A' for Active; 'I' for Inactive)
REMARK    1  A    between atoms: C_1  and  C_2
REMARK    2  A    between atoms: C_7  and  C_8
REMARK    3  A    between atoms: C_11  and  C_12
REMARK    4  A    between atoms: C_12  and  O_13
REMARK    5  A    between atoms: N_17  and  C_18
REMARK    6  A    between atoms: C_18  and  C_19
REMARK                            x       y       z     vdW  Elec       q    Type
REMARK                         _______ _______ _______ _____ _____    ______ ____
ROOT
ATOM      1  C   UNL     1       1.395   2.782  21.708  0.00  0.00    +0.000 C 
ATOM      2  C   UNL     1       1.945   3.800  20.786  0.00  0.00    +0.000 A 
ATOM      3  C   UNL     1       2.852   3.737  19.742  0.00  0.00    +0.000 A 
ATOM      4  C   UNL     1       2.895   5.069  19.283  0.00  0.00    +0.000 A 
ATOM      5  C   UNL     1       2.070   5.816  20.045  0.00  0.00    +0.000 A 
ATOM      6  O   UNL     1       1.460   5.063  20.991  0.00  0.00    +0.000 OA
ATOM      7  C   UNL     1       2.139   7.155  19.584  0.00  0.00    +0.000 A 
ATOM      8  N   UNL     1       2.980   7.294  18.530  0.00  0.00    +0.000 NA
ATOM      9  N   UNL     1       3.418   5.988  18.392  0.00  0.00    +0.000 N 
ENDROOT
BRANCH   7  10
ATOM     10  C   UNL     1       1.364   8.233  20.189  0.00  0.00    +0.000 A 
ATOM     11  C   UNL     1       0.993   9.355  19.434  0.00  0.00    +0.000 A 
ATOM     12  C   UNL     1       0.312  10.424  20.022  0.00  0.00    +0.000 A 
ATOM     13  C   UNL     1      -0.025  10.392  21.379  0.00  0.00    +0.000 A 
ATOM     14  C   UNL     1       0.344   9.270  22.136  0.00  0.00    +0.000 A 
ATOM     15  C   UNL     1       1.019   8.193  21.544  0.00  0.00    +0.000 A 
BRANCH  13  16
ATOM     16  C   UNL     1      -0.698  11.589  22.002  0.00  0.00    +0.000 C 
BRANCH  16  17
ATOM     17  O   UNL     1      -0.988  11.382  23.378  0.00  0.00    +0.000 OA
ATOM     18  H   UNL     1      -0.178  11.604  23.869  0.00  0.00    +0.000 HD
ENDBRANCH  16  17
ENDBRANCH  13  16
ENDBRANCH   7  10
BRANCH   9  19
ATOM     19  C   UNL     1       4.458   5.666  17.422  0.00  0.00    +0.000 C 
BRANCH  19  20
ATOM     20  C   UNL     1       5.817   6.182  17.826  0.00  0.00    +0.000 A 
ATOM     21  C   UNL     1       6.584   5.500  18.785  0.00  0.00    +0.000 A 
ATOM     22  C   UNL     1       7.862   5.949  19.125  0.00  0.00    +0.000 A 
ATOM     23  C   UNL     1       8.391   7.080  18.510  0.00  0.00    +0.000 A 
ATOM     24  C   UNL     1       7.643   7.766  17.555  0.00  0.00    +0.000 A 
ATOM     25  C   UNL     1       6.364   7.320  17.214  0.00  0.00    +0.000 A 
ENDBRANCH  19  20
ENDBRANCH   9  19
TORSDOF 5
ENDMDL
MODEL 4
REMARK VINA RESULT:      -7.8      2.128      2.979
REMARK  Name = 
REMARK  6 active torsions:
REMARK  status: ('A' for Active; 'I' for Inactive)
REMARK    1  A    between atoms: C_1  and  C_2
REMARK    2  A    between atoms: C_7  and  C_8
REMARK    3  A    between atoms: C_11  and  C_12
REMARK    4  A    between atoms: C_12  and  O_13
REMARK    5  A    between atoms: N_17  and  C_18
REMARK    6  A    between atoms: C_18  and  C_19
REMARK                            x       y       z     vdW  Elec       q    Type
REMARK                         _______ _______ _______ _____ _____    ______ ____
ROOT
ATOM      1  C   UNL     1       1.205   2.875  21.343  0.00  0.00    +0.000 C 
ATOM      2  C   UNL     1       1.812   3.917  20.486  0.00  0.00    +0.000 A 
ATOM      3  C   UNL     1       2.745   3.873  19.464  0.00  0.00    +0.000 A 
ATOM      4  C   UNL     1       2.843   5.224  19.071  0.00  0.00    +0.000 A 
ATOM      5  C   UNL     1       2.022   5.960  19.848  0.00  0.00    +0.000 A 
ATOM      6  O   UNL     1       1.363   5.184  20.740  0.00  0.00    +0.000 OA
ATOM      7  C   UNL     1       2.146   7.318  19.454  0.00  0.00    +0.000 A 
ATOM      8  N   UNL     1       3.020   7.479  18.431  0.00  0.00    +0.000 NA
ATOM      9  N   UNL     1       3.419   6.166  18.240  0.00  0.00    +0.000 N 
ENDROOT
BRANCH   7  10
ATOM     10  C   UNL     1       1.391   8.390  20.091  0.00  0.00    +0.000 A 
ATOM     11  C   UNL     1       1.118   8.352  21.466  0.00  0.00    +0.000 A 
ATOM     12  C   UNL     1       0.336   9.338  22.072  0.00  0.00    +0.000 A 
ATOM     13  C   UNL     1      -0.184  10.396  21.318  0.00  0.00    +0.000 A 
ATOM     14  C   UNL     1       0.088  10.437  19.943  0.00  0.00    +0.000 A 
ATOM     15  C   UNL     1       0.881   9.453  19.337  0.00  0.00    +0.000 A 
BRANCH  13  16
ATOM     16  C   UNL     1      -1.082  11.407  21.986  0.00  0.00    +0.000 C 
BRANCH  16  17
ATOM     17  O   UNL     1      -1.038  11.306  23.403  0.00  0.00    +0.000 OA
ATOM     18  H   UNL     1      -0.515  10.513  23.609  0.00  0.00    +0.000 HD
ENDBRANCH  16  17
ENDBRANCH  13  16
ENDBRANCH   7  10
BRANCH   9  19
ATOM     19  C   UNL     1       4.474   5.857  17.282  0.00  0.00    +0.000 C 
BRANCH  19  20
ATOM     20  C   UNL     1       5.837   6.311  17.744  0.00  0.00    +0.000 A 
ATOM     21  C   UNL     1       6.539   5.588  18.721  0.00  0.00    +0.000 A 
ATOM     22  C   UNL     1       7.820   5.979  19.115  0.00  0.00    +0.000 A 
ATOM     23  C   UNL     1       8.417   7.095  18.535  0.00  0.00    +0.000 A 
ATOM     24  C   UNL     1       7.735   7.822  17.562  0.00  0.00    +0.000 A 
ATOM     25  C   UNL     1       6.452   7.433  17.168  0.00  0.00    +0.000 A 
ENDBRANCH  19  20
ENDBRANCH   9  19
TORSDOF 5
ENDMDL
MODEL 5
REMARK VINA RESULT:      -7.8      1.250      1.285
REMARK  Name = 
REMARK  6 active torsions:
REMARK  status: ('A' for Active; 'I' for Inactive)
REMARK    1  A    between atoms: C_1  and  C_2
REMARK    2  A    between atoms: C_7  and  C_8
REMARK    3  A    between atoms: C_11  and  C_12
REMARK    4  A    between atoms: C_12  and  O_13
REMARK    5  A    between atoms: N_17  and  C_18
REMARK    6  A    between atoms: C_18  and  C_19
REMARK                            x       y       z     vdW  Elec       q    Type
REMARK                         _______ _______ _______ _____ _____    ______ ____
ROOT
ATOM      1  C   UNL     1       0.715   2.138  18.845  0.00  0.00    +0.000 C 
ATOM      2  C   UNL     1       1.829   3.060  18.531  0.00  0.00    +0.000 A 
ATOM      3  C   UNL     1       3.118   2.860  18.066  0.00  0.00    +0.000 A 
ATOM      4  C   UNL     1       3.623   4.174  17.968  0.00  0.00    +0.000 A 
ATOM      5  C   UNL     1       2.667   5.035  18.374  0.00  0.00    +0.000 A 
ATOM      6  O   UNL     1       1.537   4.381  18.732  0.00  0.00    +0.000 OA
ATOM      7  C   UNL     1       3.196   6.348  18.287  0.00  0.00    +0.000 A 
ATOM      8  N   UNL     1       4.469   6.361  17.824  0.00  0.00    +0.000 NA
ATOM      9  N   UNL     1       4.680   5.004  17.650  0.00  0.00    +0.000 N 
ENDROOT
BRANCH   7  10
ATOM     10  C   UNL     1       2.421   7.530  18.650  0.00  0.00    +0.000 A 
ATOM     11  C   UNL     1       2.233   8.570  17.729  0.00  0.00    +0.000 A 
ATOM     12  C   UNL     1       1.554   9.736  18.090  0.00  0.00    +0.000 A 
ATOM     13  C   UNL     1       1.033   9.885  19.380  0.00  0.00    +0.000 A 
ATOM     14  C   UNL     1       1.219   8.846  20.303  0.00  0.00    +0.000 A 
ATOM     15  C   UNL     1       1.893   7.672  19.938  0.00  0.00    +0.000 A 
BRANCH  13  16
ATOM     16  C   UNL     1       0.365  11.182  19.761  0.00  0.00    +0.000 C 
BRANCH  16  17
ATOM     17  O   UNL     1      -1.046  11.125  19.595  0.00  0.00    +0.000 OA
ATOM     18  H   UNL     1      -1.219  10.434  18.934  0.00  0.00    +0.000 HD
ENDBRANCH  16  17
ENDBRANCH  13  16
ENDBRANCH   7  10
BRANCH   9  19
ATOM     19  C   UNL     1       5.997   4.515  17.257  0.00  0.00    +0.000 C 
BRANCH  19  20
ATOM     20  C   UNL     1       6.189   4.482  15.760  0.00  0.00    +0.000 A 
ATOM     21  C   UNL     1       7.313   5.079  15.170  0.00  0.00    +0.000 A 
ATOM     22  C   UNL     1       7.516   5.007  13.790  0.00  0.00    +0.000 A 
ATOM     23  C   UNL     1       6.601   4.335  12.985  0.00  0.00    +0.000 A 
ATOM     24  C   UNL     1       5.481   3.734  13.556  0.00  0.00    +0.000 A 
ATOM     25  C   UNL     1       5.275   3.807  14.936  0.00  0.00    +0.000 A 
ENDBRANCH  19  20
ENDBRANCH   9  19
TORSDOF 5
ENDMDL
MODEL 6
REMARK VINA RESULT:      -7.8      1.398      1.738
REMARK  Name = 
REMARK  6 active torsions:
REMARK  status: ('A' for Active; 'I' for Inactive)
REMARK    1  A    between atoms: C_1  and  C_2
REMARK    2  A    between atoms: C_7  and  C_8
REMARK    3  A    between atoms: C_11  and  C_12
REMARK    4  A    between atoms: C_12  and  O_13
REMARK    5  A    between atoms: N_17  and  C_18
REMARK    6  A    between atoms: C_18  and  C_19
REMARK                            x       y       z     vdW  Elec       q    Type
REMARK                         _______ _______ _______ _____ _____    ______ ____
ROOT
ATOM      1  C   UNL     1       0.713   2.187  18.751  0.00  0.00    +0.000 C 
ATOM      2  C   UNL     1       1.838   3.099  18.444  0.00  0.00    +0.000 A 
ATOM      3  C   UNL     1       3.120   2.889  17.963  0.00  0.00    +0.000 A 
ATOM      4  C   UNL     1       3.642   4.197  17.884  0.00  0.00    +0.000 A 
ATOM      5  C   UNL     1       2.703   5.064  18.313  0.00  0.00    +0.000 A 
ATOM      6  O   UNL     1       1.566   4.420  18.669  0.00  0.00    +0.000 OA
ATOM      7  C   UNL     1       3.249   6.371  18.244  0.00  0.00    +0.000 A 
ATOM      8  N   UNL     1       4.519   6.374  17.769  0.00  0.00    +0.000 NA
ATOM      9  N   UNL     1       4.708   5.017  17.569  0.00  0.00    +0.000 N 
ENDROOT
BRANCH   7  10
ATOM     10  C   UNL     1       2.495   7.557  18.634  0.00  0.00    +0.000 A 
ATOM     11  C   UNL     1       1.975   7.677  19.931  0.00  0.00    +0.000 A 
ATOM     12  C   UNL     1       1.193   8.776  20.294  0.00  0.00    +0.000 A 
ATOM     13  C   UNL     1       0.920   9.790  19.370  0.00  0.00    +0.000 A 
ATOM     14  C   UNL     1       1.440   9.673  18.072  0.00  0.00    +0.000 A 
ATOM     15  C   UNL     1       2.233   8.575  17.712  0.00  0.00    +0.000 A 
BRANCH  13  16
ATOM     16  C   UNL     1       0.016  10.929  19.768  0.00  0.00    +0.000 C 
BRANCH  16  17
ATOM     17  O   UNL     1       0.090  11.208  21.161  0.00  0.00    +0.000 OA
ATOM     18  H   UNL     1       0.129  10.348  21.614  0.00  0.00    +0.000 HD
ENDBRANCH  16  17
ENDBRANCH  13  16
ENDBRANCH   7  10
BRANCH   9  19
ATOM     19  C   UNL     1       6.015   4.517  17.157  0.00  0.00    +0.000 C 
BRANCH  19  20
ATOM     20  C   UNL     1       6.176   4.465  15.657  0.00  0.00    +0.000 A 
ATOM     21  C   UNL     1       7.287   5.057  15.036  0.00  0.00    +0.000 A 
ATOM     22  C   UNL     1       7.462   4.969  13.654  0.00  0.00    +0.000 A 
ATOM     23  C   UNL     1       6.533   4.284  12.875  0.00  0.00    +0.000 A 
ATOM     24  C   UNL     1       5.426   3.689  13.477  0.00  0.00    +0.000 A 
ATOM     25  C   UNL     1       5.248   3.778  14.860  0.00  0.00    +0.000 A 
ENDBRANCH  19  20
ENDBRANCH   9  19
TORSDOF 5
ENDMDL
MODEL 7
REMARK VINA RESULT:      -7.7      1.445      2.096
REMARK  Name = 
REMARK  6 active torsions:
REMARK  status: ('A' for Active; 'I' for Inactive)
REMARK    1  A    between atoms: C_1  and  C_2
REMARK    2  A    between atoms: C_7  and  C_8
REMARK    3  A    between atoms: C_11  and  C_12
REMARK    4  A    between atoms: C_12  and  O_13
REMARK    5  A    between atoms: N_17  and  C_18
REMARK    6  A    between atoms: C_18  and  C_19
REMARK                            x       y       z     vdW  Elec       q    Type
REMARK                         _______ _______ _______ _____ _____    ______ ____
ROOT
ATOM      1  C   UNL     1       1.458   1.895  18.678  0.00  0.00    +0.000 C 
ATOM      2  C   UNL     1       2.500   2.881  18.314  0.00  0.00    +0.000 A 
ATOM      3  C   UNL     1       3.772   2.757  17.781  0.00  0.00    +0.000 A 
ATOM      4  C   UNL     1       4.196   4.097  17.667  0.00  0.00    +0.000 A 
ATOM      5  C   UNL     1       3.216   4.901  18.128  0.00  0.00    +0.000 A 
ATOM      6  O   UNL     1       2.144   4.182  18.539  0.00  0.00    +0.000 OA
ATOM      7  C   UNL     1       3.664   6.242  18.024  0.00  0.00    +0.000 A 
ATOM      8  N   UNL     1       4.909   6.330  17.495  0.00  0.00    +0.000 NA
ATOM      9  N   UNL     1       5.187   4.987  17.300  0.00  0.00    +0.000 N 
ENDROOT
BRANCH   7  10
ATOM     10  C   UNL     1       2.844   7.376  18.436  0.00  0.00    +0.000 A 
ATOM     11  C   UNL     1       2.229   7.391  19.696  0.00  0.00    +0.000 A 
ATOM     12  C   UNL     1       1.385   8.440  20.071  0.00  0.00    +0.000 A 
ATOM     13  C   UNL     1       1.146   9.507  19.199  0.00  0.00    +0.000 A 
ATOM     14  C   UNL     1       1.761   9.495  17.939  0.00  0.00    +0.000 A 
ATOM     15  C   UNL     1       2.615   8.448  17.566  0.00  0.00    +0.000 A 
BRANCH  13  16
ATOM     16  C   UNL     1       0.177  10.589  19.605  0.00  0.00    +0.000 C 
BRANCH  16  17
ATOM     17  O   UNL     1      -1.166  10.253  19.280  0.00  0.00    +0.000 OA
ATOM     18  H   UNL     1      -1.284  10.463  18.338  0.00  0.00    +0.000 HD
ENDBRANCH  16  17
ENDBRANCH  13  16
ENDBRANCH   7  10
BRANCH   9  19
ATOM     19  C   UNL     1       6.507   4.576  16.837  0.00  0.00    +0.000 C 
BRANCH  19  20
ATOM     20  C   UNL     1       6.590   4.455  15.334  0.00  0.00    +0.000 A 
ATOM     21  C   UNL     1       5.670   3.663  14.629  0.00  0.00    +0.000 A 
ATOM     22  C   UNL     1       5.715   3.588  13.236  0.00  0.00    +0.000 A 
ATOM     23  C   UNL     1       6.675   4.307  12.529  0.00  0.00    +0.000 A 
ATOM     24  C   UNL     1       7.594   5.100  13.214  0.00  0.00    +0.000 A 
ATOM     25  C   UNL     1       7.552   5.174  14.609  0.00  0.00    +0.000 A 
ENDBRANCH  19  20
ENDBRANCH   9  19
TORSDOF 5
ENDMDL
MODEL 8
REMARK VINA RESULT:      -7.6      1.389      1.801
REMARK  Name = 
REMARK  6 active torsions:
REMARK  status: ('A' for Active; 'I' for Inactive)
REMARK    1  A    between atoms: C_1  and  C_2
REMARK    2  A    between atoms: C_7  and  C_8
REMARK    3  A    between atoms: C_11  and  C_12
REMARK    4  A    between atoms: C_12  and  O_13
REMARK    5  A    between atoms: N_17  and  C_18
REMARK    6  A    between atoms: C_18  and  C_19
REMARK                            x       y       z     vdW  Elec       q    Type
REMARK                         _______ _______ _______ _____ _____    ______ ____
ROOT
ATOM      1  C   UNL     1       1.537   1.802  18.940  0.00  0.00    +0.000 C 
ATOM      2  C   UNL     1       2.548   2.801  18.527  0.00  0.00    +0.000 A 
ATOM      3  C   UNL     1       3.821   2.691  17.994  0.00  0.00    +0.000 A 
ATOM      4  C   UNL     1       4.204   4.037  17.818  0.00  0.00    +0.000 A 
ATOM      5  C   UNL     1       3.202   4.831  18.248  0.00  0.00    +0.000 A 
ATOM      6  O   UNL     1       2.154   4.100  18.696  0.00  0.00    +0.000 OA
ATOM      7  C   UNL     1       3.610   6.180  18.082  0.00  0.00    +0.000 A 
ATOM      8  N   UNL     1       4.849   6.280  17.543  0.00  0.00    +0.000 NA
ATOM      9  N   UNL     1       5.167   4.939  17.407  0.00  0.00    +0.000 N 
ENDROOT
BRANCH   7  10
ATOM     10  C   UNL     1       2.758   7.306  18.446  0.00  0.00    +0.000 A 
ATOM     11  C   UNL     1       2.528   8.349  17.538  0.00  0.00    +0.000 A 
ATOM     12  C   UNL     1       1.771   9.466  17.902  0.00  0.00    +0.000 A 
ATOM     13  C   UNL     1       1.214   9.561  19.182  0.00  0.00    +0.000 A 
ATOM     14  C   UNL     1       1.442   8.518  20.092  0.00  0.00    +0.000 A 
ATOM     15  C   UNL     1       2.193   7.393  19.723  0.00  0.00    +0.000 A 
BRANCH  13  16
ATOM     16  C   UNL     1       0.461  10.809  19.570  0.00  0.00    +0.000 C 
BRANCH  16  17
ATOM     17  O   UNL     1      -0.779  10.510  20.197  0.00  0.00    +0.000 OA
ATOM     18  H   UNL     1      -1.429  10.390  19.484  0.00  0.00    +0.000 HD
ENDBRANCH  16  17
ENDBRANCH  13  16
ENDBRANCH   7  10
BRANCH   9  19
ATOM     19  C   UNL     1       6.497   4.547  16.956  0.00  0.00    +0.000 C 
BRANCH  19  20
ATOM     20  C   UNL     1       6.601   4.446  15.453  0.00  0.00    +0.000 A 
ATOM     21  C   UNL     1       5.686   3.670  14.724  0.00  0.00    +0.000 A 
ATOM     22  C   UNL     1       5.750   3.614  13.331  0.00  0.00    +0.000 A 
ATOM     23  C   UNL     1       6.726   4.336  12.648  0.00  0.00    +0.000 A 
ATOM     24  C   UNL     1       7.640   5.113  13.357  0.00  0.00    +0.000 A 
ATOM     25  C   UNL     1       7.578   5.168  14.752  0.00  0.00    +0.000 A 
ENDBRANCH  19  20
ENDBRANCH   9  19
TORSDOF 5
ENDMDL
MODEL 9
REMARK VINA RESULT:      -7.6      2.292      2.962
REMARK  Name = 
REMARK  6 active torsions:
REMARK  status: ('A' for Active; 'I' for Inactive)
REMARK    1  A    between atoms: C_1  and  C_2
REMARK    2  A    between atoms: C_7  and  C_8
REMARK    3  A    between atoms: C_11  and  C_12
REMARK    4  A    between atoms: C_12  and  O_13
REMARK    5  A    between atoms: N_17  and  C_18
REMARK    6  A    between atoms: C_18  and  C_19
REMARK                            x       y       z     vdW  Elec       q    Type
REMARK                         _______ _______ _______ _____ _____    ______ ____
ROOT
ATOM      1  C   UNL     1       0.976   2.495  19.013  0.00  0.00    +0.000 C 
ATOM      2  C   UNL     1       1.775   3.678  18.622  0.00  0.00    +0.000 A 
ATOM      3  C   UNL     1       2.873   3.844  17.795  0.00  0.00    +0.000 A 
ATOM      4  C   UNL     1       3.102   5.234  17.855  0.00  0.00    +0.000 A 
ATOM      5  C   UNL     1       2.191   5.787  18.681  0.00  0.00    +0.000 A 
ATOM      6  O   UNL     1       1.347   4.852  19.178  0.00  0.00    +0.000 OA
ATOM      7  C   UNL     1       2.446   7.181  18.746  0.00  0.00    +0.000 A 
ATOM      8  N   UNL     1       3.496   7.549  17.971  0.00  0.00    +0.000 NA
ATOM      9  N   UNL     1       3.861   6.317  17.453  0.00  0.00    +0.000 N 
ENDROOT
BRANCH   7  10
ATOM     10  C   UNL     1       1.640   8.089  19.554  0.00  0.00    +0.000 A 
ATOM     11  C   UNL     1       1.083   9.245  18.987  0.00  0.00    +0.000 A 
ATOM     12  C   UNL     1       0.368  10.156  19.768  0.00  0.00    +0.000 A 
ATOM     13  C   UNL     1       0.182   9.927  21.136  0.00  0.00    +0.000 A 
ATOM     14  C   UNL     1       0.737   8.772  21.705  0.00  0.00    +0.000 A 
ATOM     15  C   UNL     1       1.445   7.852  20.919  0.00  0.00    +0.000 A 
BRANCH  13  16
ATOM     16  C   UNL     1      -0.534  10.962  21.967  0.00  0.00    +0.000 C 
BRANCH  16  17
ATOM     17  O   UNL     1      -0.452  10.679  23.358  0.00  0.00    +0.000 OA
ATOM     18  H   UNL     1      -0.762   9.765  23.473  0.00  0.00    +0.000 HD
ENDBRANCH  16  17
ENDBRANCH  13  16
ENDBRANCH   7  10
BRANCH   9  19
ATOM     19  C   UNL     1       5.055   6.200  16.624  0.00  0.00    +0.000 C 
BRANCH  19  20
ATOM     20  C   UNL     1       6.311   6.634  17.340  0.00  0.00    +0.000 A 
ATOM     21  C   UNL     1       6.892   7.884  17.071  0.00  0.00    +0.000 A 
ATOM     22  C   UNL     1       8.026   8.307  17.767  0.00  0.00    +0.000 A 
ATOM     23  C   UNL     1       8.591   7.490  18.743  0.00  0.00    +0.000 A 
ATOM     24  C   UNL     1       8.025   6.249  19.023  0.00  0.00    +0.000 A 
ATOM     25  C   UNL     1       6.891   5.822  18.327  0.00  0.00    +0.000 A 
ENDBRANCH  19  20
ENDBRANCH   9  19
TORSDOF 5
ENDMDL
