MODEL 1
REMARK VINA RESULT:      -7.8      0.000      0.000
REMARK  Name = 
REMARK  6 active torsions:
REMARK  status: ('A' for Active; 'I' for Inactive)
REMARK    1  A    between atoms: C_1  and  C_2
REMARK    2  A    between atoms: C_2  and  N_3
REMARK    3  A    between atoms: C_2  and  C_19
REMARK    4  A    between atoms: C_4  and  C_6
REMARK    5  A    between atoms: C_6  and  C_7
REMARK    6  A    between atoms: C_6  and  N_8
REMARK                            x       y       z     vdW  Elec       q    Type
REMARK                         _______ _______ _______ _____ _____    ______ ____
ROOT
ATOM      1  C   UNL     1       6.150   5.606  17.183  0.00  0.00    +0.000 C 
ATOM      2  C   UNL     1       5.547   6.943  16.755  0.00  0.00    +0.000 C 
ENDROOT
BRANCH   1   3
ATOM      3  N   UNL     1       5.151   4.702  17.761  0.00  0.00    +0.000 N 
ATOM      4  C   UNL     1       4.810   4.740  19.088  0.00  0.00    +0.000 C 
ATOM      5  O   UNL     1       5.275   5.423  19.962  0.00  0.00    +0.000 OA
ATOM      6  C   UNL     1       3.656   3.848  19.248  0.00  0.00    +0.000 A 
ATOM      7  C   UNL     1       2.859   3.587  20.345  0.00  0.00    +0.000 A 
ATOM      8  C   UNL     1       1.789   2.701  20.159  0.00  0.00    +0.000 A 
ATOM      9  C   UNL     1       1.555   2.093  18.907  0.00  0.00    +0.000 A 
ATOM     10  C   UNL     1       2.356   2.404  17.807  0.00  0.00    +0.000 A 
ATOM     11  C   UNL     1       3.377   3.312  18.008  0.00  0.00    +0.000 A 
ATOM     12  C   UNL     1       4.235   3.983  17.042  0.00  0.00    +0.000 C 
ATOM     13  O   UNL     1       4.016   3.957  15.846  0.00  0.00    +0.000 OA
ENDBRANCH   1   3
BRANCH   1  15
ATOM     14  N   UNL     1       6.650   5.160  14.757  0.00  0.00    +0.000 N 
ATOM     15  C   UNL     1       6.999   4.921  16.076  0.00  0.00    +0.000 C 
ATOM     16  O   UNL     1       7.937   4.171  16.369  0.00  0.00    +0.000 OA
ATOM     17  H   UNL     1       5.702   5.453  14.554  0.00  0.00    +0.000 HD
BRANCH  14  19
ATOM     18  C   UNL     1       8.182   5.717  12.859  0.00  0.00    +0.000 C 
ATOM     19  C   UNL     1       7.443   4.621  13.651  0.00  0.00    +0.000 C 
BRANCH  19  20
ATOM     20  C   UNL     1       6.625   3.836  12.632  0.00  0.00    +0.000 A 
ATOM     21  C   UNL     1       5.236   4.064  12.573  0.00  0.00    +0.000 A 
ATOM     22  C   UNL     1       4.399   3.207  11.859  0.00  0.00    +0.000 A 
ATOM     23  C   UNL     1       4.938   2.131  11.160  0.00  0.00    +0.000 A 
ATOM     24  C   UNL     1       6.316   1.924  11.160  0.00  0.00    +0.000 A 
ATOM     25  C   UNL     1       7.155   2.764  11.899  0.00  0.00    +0.000 A 
ENDBRANCH  19  20
ENDBRANCH  14  19
ENDBRANCH   1  15
TORSDOF 4
ENDMDL
MODEL 2
REMARK VINA RESULT:      -7.3      0.311      1.800
REMARK  Name = 
REMARK  6 active torsions:
REMARK  status: ('A' for Active; 'I' for Inactive)
REMARK    1  A    between atoms: C_1  and  C_2
REMARK    2  A    between atoms: C_2  and  N_3
REMARK    3  A    between atoms: C_2  and  C_19
REMARK    4  A    between atoms: C_4  and  C_6
REMARK    5  A    between atoms: C_6  and  C_7
REMARK    6  A    between atoms: C_6  and  N_8
REMARK                            x       y       z     vdW  Elec       q    Type
REMARK                         _______ _______ _______ _____ _____    ______ ____
ROOT
ATOM      1  C   UNL     1       6.092   5.919  16.940  0.00  0.00    +0.000 C 
ATOM      2  C   UNL     1       5.570   7.244  16.388  0.00  0.00    +0.000 C 
ENDROOT
BRANCH   1   3
ATOM      3  N   UNL     1       5.034   5.119  17.567  0.00  0.00    +0.000 N 
ATOM      4  C   UNL     1       4.271   4.229  16.856  0.00  0.00    +0.000 C 
ATOM      5  O   UNL     1       4.284   4.008  15.674  0.00  0.00    +0.000 OA
ATOM      6  C   UNL     1       3.478   3.482  17.838  0.00  0.00    +0.000 A 
ATOM      7  C   UNL     1       2.620   2.412  17.683  0.00  0.00    +0.000 A 
ATOM      8  C   UNL     1       2.038   1.886  18.844  0.00  0.00    +0.000 A 
ATOM      9  C   UNL     1       2.309   2.446  20.111  0.00  0.00    +0.000 A 
ATOM     10  C   UNL     1       3.208   3.505  20.242  0.00  0.00    +0.000 A 
ATOM     11  C   UNL     1       3.799   3.975  19.085  0.00  0.00    +0.000 A 
ATOM     12  C   UNL     1       4.905   4.906  18.912  0.00  0.00    +0.000 C 
ATOM     13  O   UNL     1       5.606   5.265  19.839  0.00  0.00    +0.000 OA
ENDBRANCH   1   3
BRANCH   1  15
ATOM     14  N   UNL     1       6.649   5.279  14.570  0.00  0.00    +0.000 N 
ATOM     15  C   UNL     1       6.926   5.099  15.916  0.00  0.00    +0.000 C 
ATOM     16  O   UNL     1       7.787   4.299  16.295  0.00  0.00    +0.000 OA
ATOM     17  H   UNL     1       5.737   5.633  14.309  0.00  0.00    +0.000 HD
BRANCH  14  19
ATOM     18  C   UNL     1       8.270   5.595  12.691  0.00  0.00    +0.000 C 
ATOM     19  C   UNL     1       7.439   4.610  13.535  0.00  0.00    +0.000 C 
BRANCH  19  20
ATOM     20  C   UNL     1       6.603   3.802  12.550  0.00  0.00    +0.000 A 
ATOM     21  C   UNL     1       5.235   4.111  12.425  0.00  0.00    +0.000 A 
ATOM     22  C   UNL     1       4.366   3.256  11.747  0.00  0.00    +0.000 A 
ATOM     23  C   UNL     1       4.855   2.097  11.151  0.00  0.00    +0.000 A 
ATOM     24  C   UNL     1       6.216   1.805  11.216  0.00  0.00    +0.000 A 
ATOM     25  C   UNL     1       7.084   2.645  11.919  0.00  0.00    +0.000 A 
ENDBRANCH  19  20
ENDBRANCH  14  19
ENDBRANCH   1  15
TORSDOF 4
ENDMDL
MODEL 3
REMARK VINA RESULT:      -7.3      1.665      6.581
REMARK  Name = 
REMARK  6 active torsions:
REMARK  status: ('A' for Active; 'I' for Inactive)
REMARK    1  A    between atoms: C_1  and  C_2
REMARK    2  A    between atoms: C_2  and  N_3
REMARK    3  A    between atoms: C_2  and  C_19
REMARK    4  A    between atoms: C_4  and  C_6
REMARK    5  A    between atoms: C_6  and  C_7
REMARK    6  A    between atoms: C_6  and  N_8
REMARK                            x       y       z     vdW  Elec       q    Type
REMARK                         _______ _______ _______ _____ _____    ______ ____
ROOT
ATOM      1  C   UNL     1       6.320   5.641  17.778  0.00  0.00    +0.000 C 
ATOM      2  C   UNL     1       7.334   4.794  18.545  0.00  0.00    +0.000 C 
ENDROOT
BRANCH   1   3
ATOM      3  N   UNL     1       6.232   5.262  16.364  0.00  0.00    +0.000 N 
ATOM      4  C   UNL     1       7.139   5.697  15.432  0.00  0.00    +0.000 C 
ATOM      5  O   UNL     1       8.059   6.458  15.580  0.00  0.00    +0.000 OA
ATOM      6  C   UNL     1       6.852   4.962  14.196  0.00  0.00    +0.000 A 
ATOM      7  C   UNL     1       7.510   4.938  12.982  0.00  0.00    +0.000 A 
ATOM      8  C   UNL     1       7.001   4.083  11.997  0.00  0.00    +0.000 A 
ATOM      9  C   UNL     1       5.853   3.297  12.236  0.00  0.00    +0.000 A 
ATOM     10  C   UNL     1       5.229   3.314  13.484  0.00  0.00    +0.000 A 
ATOM     11  C   UNL     1       5.778   4.135  14.450  0.00  0.00    +0.000 A 
ATOM     12  C   UNL     1       5.493   4.219  15.876  0.00  0.00    +0.000 C 
ATOM     13  O   UNL     1       4.818   3.390  16.457  0.00  0.00    +0.000 OA
ENDBRANCH   1   3
BRANCH   1  15
ATOM     14  N   UNL     1       3.882   6.264  17.732  0.00  0.00    +0.000 N 
ATOM     15  C   UNL     1       4.925   5.714  18.459  0.00  0.00    +0.000 C 
ATOM     16  O   UNL     1       4.763   5.315  19.618  0.00  0.00    +0.000 OA
ATOM     17  H   UNL     1       4.104   6.894  16.972  0.00  0.00    +0.000 HD
BRANCH  14  19
ATOM     18  C   UNL     1       2.336   7.358  19.367  0.00  0.00    +0.000 C 
ATOM     19  C   UNL     1       2.518   6.298  18.264  0.00  0.00    +0.000 C 
BRANCH  19  20
ATOM     20  C   UNL     1       2.059   4.975  18.864  0.00  0.00    +0.000 A 
ATOM     21  C   UNL     1       1.765   3.911  17.988  0.00  0.00    +0.000 A 
ATOM     22  C   UNL     1       1.100   2.772  18.441  0.00  0.00    +0.000 A 
ATOM     23  C   UNL     1       0.750   2.659  19.783  0.00  0.00    +0.000 A 
ATOM     24  C   UNL     1       1.083   3.676  20.675  0.00  0.00    +0.000 A 
ATOM     25  C   UNL     1       1.724   4.832  20.218  0.00  0.00    +0.000 A 
ENDBRANCH  19  20
ENDBRANCH  14  19
ENDBRANCH   1  15
TORSDOF 4
ENDMDL
MODEL 4
REMARK VINA RESULT:      -7.2      2.899      4.237
REMARK  Name = 
REMARK  6 active torsions:
REMARK  status: ('A' for Active; 'I' for Inactive)
REMARK    1  A    between atoms: C_1  and  C_2
REMARK    2  A    between atoms: C_2  and  N_3
REMARK    3  A    between atoms: C_2  and  C_19
REMARK    4  A    between atoms: C_4  and  C_6
REMARK    5  A    between atoms: C_6  and  C_7
REMARK    6  A    between atoms: C_6  and  N_8
REMARK                            x       y       z     vdW  Elec       q    Type
REMARK                         _______ _______ _______ _____ _____    ______ ____
ROOT
ATOM      1  C   UNL     1       3.550   4.286  18.628  0.00  0.00    +0.000 C 
ATOM      2  C   UNL     1       3.300   3.218  19.692  0.00  0.00    +0.000 C 
ENDROOT
BRANCH   1   3
ATOM      3  N   UNL     1       3.049   5.604  19.030  0.00  0.00    +0.000 N 
ATOM      4  C   UNL     1       3.055   6.680  18.181  0.00  0.00    +0.000 C 
ATOM      5  O   UNL     1       3.495   6.750  17.064  0.00  0.00    +0.000 OA
ATOM      6  C   UNL     1       2.303   7.746  18.852  0.00  0.00    +0.000 A 
ATOM      7  C   UNL     1       1.923   8.999  18.415  0.00  0.00    +0.000 A 
ATOM      8  C   UNL     1       1.160   9.778  19.295  0.00  0.00    +0.000 A 
ATOM      9  C   UNL     1       0.815   9.301  20.578  0.00  0.00    +0.000 A 
ATOM     10  C   UNL     1       1.183   8.016  20.979  0.00  0.00    +0.000 A 
ATOM     11  C   UNL     1       1.898   7.255  20.076  0.00  0.00    +0.000 A 
ATOM     12  C   UNL     1       2.243   5.840  20.111  0.00  0.00    +0.000 C 
ATOM     13  O   UNL     1       1.750   5.069  20.912  0.00  0.00    +0.000 OA
ENDBRANCH   1   3
BRANCH   1  15
ATOM     14  N   UNL     1       5.234   4.561  16.778  0.00  0.00    +0.000 N 
ATOM     15  C   UNL     1       5.021   4.339  18.128  0.00  0.00    +0.000 C 
ATOM     16  O   UNL     1       5.962   4.164  18.910  0.00  0.00    +0.000 OA
ATOM     17  H   UNL     1       4.490   4.336  16.129  0.00  0.00    +0.000 HD
BRANCH  14  19
ATOM     18  C   UNL     1       7.258   6.027  16.657  0.00  0.00    +0.000 C 
ATOM     19  C   UNL     1       6.586   4.707  16.235  0.00  0.00    +0.000 C 
BRANCH  19  20
ATOM     20  C   UNL     1       6.645   4.664  14.713  0.00  0.00    +0.000 A 
ATOM     21  C   UNL     1       5.821   3.741  14.038  0.00  0.00    +0.000 A 
ATOM     22  C   UNL     1       6.011   3.469  12.683  0.00  0.00    +0.000 A 
ATOM     23  C   UNL     1       7.000   4.139  11.970  0.00  0.00    +0.000 A 
ATOM     24  C   UNL     1       7.786   5.097  12.608  0.00  0.00    +0.000 A 
ATOM     25  C   UNL     1       7.618   5.351  13.973  0.00  0.00    +0.000 A 
ENDBRANCH  19  20
ENDBRANCH  14  19
ENDBRANCH   1  15
TORSDOF 4
ENDMDL
MODEL 5
REMARK VINA RESULT:      -7.2      1.700      6.469
REMARK  Name = 
REMARK  6 active torsions:
REMARK  status: ('A' for Active; 'I' for Inactive)
REMARK    1  A    between atoms: C_1  and  C_2
REMARK    2  A    between atoms: C_2  and  N_3
REMARK    3  A    between atoms: C_2  and  C_19
REMARK    4  A    between atoms: C_4  and  C_6
REMARK    5  A    between atoms: C_6  and  C_7
REMARK    6  A    between atoms: C_6  and  N_8
REMARK                            x       y       z     vdW  Elec       q    Type
REMARK                         _______ _______ _______ _____ _____    ______ ____
ROOT
ATOM      1  C   UNL     1       6.177   5.724  18.017  0.00  0.00    +0.000 C 
ATOM      2  C   UNL     1       7.201   4.908  18.805  0.00  0.00    +0.000 C 
ENDROOT
BRANCH   1   3
ATOM      3  N   UNL     1       6.141   5.355  16.598  0.00  0.00    +0.000 N 
ATOM      4  C   UNL     1       7.048   5.841  15.692  0.00  0.00    +0.000 C 
ATOM      5  O   UNL     1       7.927   6.643  15.868  0.00  0.00    +0.000 OA
ATOM      6  C   UNL     1       6.826   5.104  14.443  0.00  0.00    +0.000 A 
ATOM      7  C   UNL     1       7.513   5.123  13.246  0.00  0.00    +0.000 A 
ATOM      8  C   UNL     1       7.069   4.254  12.241  0.00  0.00    +0.000 A 
ATOM      9  C   UNL     1       5.954   3.412  12.446  0.00  0.00    +0.000 A 
ATOM     10  C   UNL     1       5.301   3.388  13.678  0.00  0.00    +0.000 A 
ATOM     11  C   UNL     1       5.786   4.225  14.665  0.00  0.00    +0.000 A 
ATOM     12  C   UNL     1       5.465   4.282  16.084  0.00  0.00    +0.000 C 
ATOM     13  O   UNL     1       4.815   3.418  16.641  0.00  0.00    +0.000 OA
ENDBRANCH   1   3
BRANCH   1  15
ATOM     14  N   UNL     1       3.752   6.398  17.977  0.00  0.00    +0.000 N 
ATOM     15  C   UNL     1       4.762   5.741  18.660  0.00  0.00    +0.000 C 
ATOM     16  O   UNL     1       4.557   5.205  19.755  0.00  0.00    +0.000 OA
ATOM     17  H   UNL     1       4.009   7.113  17.308  0.00  0.00    +0.000 HD
BRANCH  14  19
ATOM     18  C   UNL     1       2.200   7.212  19.762  0.00  0.00    +0.000 C 
ATOM     19  C   UNL     1       2.373   6.394  18.469  0.00  0.00    +0.000 C 
BRANCH  19  20
ATOM     20  C   UNL     1       1.831   5.002  18.767  0.00  0.00    +0.000 A 
ATOM     21  C   UNL     1       1.476   4.694  20.096  0.00  0.00    +0.000 A 
ATOM     22  C   UNL     1       1.223   3.378  20.484  0.00  0.00    +0.000 A 
ATOM     23  C   UNL     1       1.283   2.352  19.545  0.00  0.00    +0.000 A 
ATOM     24  C   UNL     1       1.576   2.646  18.215  0.00  0.00    +0.000 A 
ATOM     25  C   UNL     1       1.859   3.960  17.829  0.00  0.00    +0.000 A 
ENDBRANCH  19  20
ENDBRANCH  14  19
ENDBRANCH   1  15
TORSDOF 4
ENDMDL
MODEL 6
REMARK VINA RESULT:      -7.1      3.870      8.064
REMARK  Name = 
REMARK  6 active torsions:
REMARK  status: ('A' for Active; 'I' for Inactive)
REMARK    1  A    between atoms: C_1  and  C_2
REMARK    2  A    between atoms: C_2  and  N_3
REMARK    3  A    between atoms: C_2  and  C_19
REMARK    4  A    between atoms: C_4  and  C_6
REMARK    5  A    between atoms: C_6  and  C_7
REMARK    6  A    between atoms: C_6  and  N_8
REMARK                            x       y       z     vdW  Elec       q    Type
REMARK                         _______ _______ _______ _____ _____    ______ ____
ROOT
ATOM      1  C   UNL     1       3.373   4.610  20.136  0.00  0.00    +0.000 C 
ATOM      2  C   UNL     1       2.902   3.280  20.720  0.00  0.00    +0.000 C 
ENDROOT
BRANCH   1   3
ATOM      3  N   UNL     1       4.273   4.431  18.992  0.00  0.00    +0.000 N 
ATOM      4  C   UNL     1       3.812   4.113  17.740  0.00  0.00    +0.000 C 
ATOM      5  O   UNL     1       2.684   3.879  17.394  0.00  0.00    +0.000 OA
ATOM      6  C   UNL     1       4.960   4.219  16.834  0.00  0.00    +0.000 A 
ATOM      7  C   UNL     1       5.043   4.101  15.460  0.00  0.00    +0.000 A 
ATOM      8  C   UNL     1       6.301   4.304  14.878  0.00  0.00    +0.000 A 
ATOM      9  C   UNL     1       7.433   4.597  15.669  0.00  0.00    +0.000 A 
ATOM     10  C   UNL     1       7.312   4.746  17.051  0.00  0.00    +0.000 A 
ATOM     11  C   UNL     1       6.052   4.582  17.594  0.00  0.00    +0.000 A 
ATOM     12  C   UNL     1       5.569   4.868  18.938  0.00  0.00    +0.000 C 
ATOM     13  O   UNL     1       6.224   5.498  19.746  0.00  0.00    +0.000 OA
ENDBRANCH   1   3
BRANCH   1  15
ATOM     14  N   UNL     1       2.556   6.910  19.517  0.00  0.00    +0.000 N 
ATOM     15  C   UNL     1       2.217   5.603  19.829  0.00  0.00    +0.000 C 
ATOM     16  O   UNL     1       1.037   5.240  19.886  0.00  0.00    +0.000 OA
ATOM     17  H   UNL     1       3.452   7.262  19.829  0.00  0.00    +0.000 HD
BRANCH  14  19
ATOM     18  C   UNL     1       1.956   8.743  17.924  0.00  0.00    +0.000 C 
ATOM     19  C   UNL     1       1.537   7.890  19.136  0.00  0.00    +0.000 C 
BRANCH  19  20
ATOM     20  C   UNL     1       1.182   8.871  20.247  0.00  0.00    +0.000 A 
ATOM     21  C   UNL     1       0.961   8.362  21.542  0.00  0.00    +0.000 A 
ATOM     22  C   UNL     1       0.385   9.155  22.535  0.00  0.00    +0.000 A 
ATOM     23  C   UNL     1       0.056  10.479  22.264  0.00  0.00    +0.000 A 
ATOM     24  C   UNL     1       0.321  11.016  21.006  0.00  0.00    +0.000 A 
ATOM     25  C   UNL     1       0.871  10.216  19.999  0.00  0.00    +0.000 A 
ENDBRANCH  19  20
ENDBRANCH  14  19
ENDBRANCH   1  15
TORSDOF 4
ENDMDL
MODEL 7
REMARK VINA RESULT:      -7.1      0.355      2.056
REMARK  Name = 
REMARK  6 active torsions:
REMARK  status: ('A' for Active; 'I' for Inactive)
REMARK    1  A    between atoms: C_1  and  C_2
REMARK    2  A    between atoms: C_2  and  N_3
REMARK    3  A    between atoms: C_2  and  C_19
REMARK    4  A    between atoms: C_4  and  C_6
REMARK    5  A    between atoms: C_6  and  C_7
REMARK    6  A    between atoms: C_6  and  N_8
REMARK                            x       y       z     vdW  Elec       q    Type
REMARK                         _______ _______ _______ _____ _____    ______ ____
ROOT
ATOM      1  C   UNL     1       5.853   5.948  17.039  0.00  0.00    +0.000 C 
ATOM      2  C   UNL     1       5.307   7.247  16.449  0.00  0.00    +0.000 C 
ENDROOT
BRANCH   1   3
ATOM      3  N   UNL     1       4.817   5.165  17.720  0.00  0.00    +0.000 N 
ATOM      4  C   UNL     1       4.013   4.277  17.054  0.00  0.00    +0.000 C 
ATOM      5  O   UNL     1       3.971   4.044  15.874  0.00  0.00    +0.000 OA
ATOM      6  C   UNL     1       3.258   3.548  18.078  0.00  0.00    +0.000 A 
ATOM      7  C   UNL     1       2.383   2.485  17.972  0.00  0.00    +0.000 A 
ATOM      8  C   UNL     1       1.849   1.977  19.164  0.00  0.00    +0.000 A 
ATOM      9  C   UNL     1       2.182   2.545  20.412  0.00  0.00    +0.000 A 
ATOM     10  C   UNL     1       3.097   3.596  20.492  0.00  0.00    +0.000 A 
ATOM     11  C   UNL     1       3.640   4.049  19.305  0.00  0.00    +0.000 A 
ATOM     12  C   UNL     1       4.746   4.966  19.073  0.00  0.00    +0.000 C 
ATOM     13  O   UNL     1       5.492   5.327  19.963  0.00  0.00    +0.000 OA
ENDBRANCH   1   3
BRANCH   1  15
ATOM     14  N   UNL     1       6.385   5.251  14.680  0.00  0.00    +0.000 N 
ATOM     15  C   UNL     1       6.669   5.096  16.027  0.00  0.00    +0.000 C 
ATOM     16  O   UNL     1       7.522   4.292  16.418  0.00  0.00    +0.000 OA
ATOM     17  H   UNL     1       5.476   5.610  14.416  0.00  0.00    +0.000 HD
BRANCH  14  19
ATOM     18  C   UNL     1       7.873   5.511  12.685  0.00  0.00    +0.000 C 
ATOM     19  C   UNL     1       7.159   4.549  13.654  0.00  0.00    +0.000 C 
BRANCH  19  20
ATOM     20  C   UNL     1       6.326   3.611  12.789  0.00  0.00    +0.000 A 
ATOM     21  C   UNL     1       6.991   2.592  12.079  0.00  0.00    +0.000 A 
ATOM     22  C   UNL     1       6.336   1.871  11.079  0.00  0.00    +0.000 A 
ATOM     23  C   UNL     1       4.998   2.130  10.798  0.00  0.00    +0.000 A 
ATOM     24  C   UNL     1       4.310   3.095  11.530  0.00  0.00    +0.000 A 
ATOM     25  C   UNL     1       4.970   3.839  12.512  0.00  0.00    +0.000 A 
ENDBRANCH  19  20
ENDBRANCH  14  19
ENDBRANCH   1  15
TORSDOF 4
ENDMDL
MODEL 8
REMARK VINA RESULT:      -7.1      2.720      3.877
REMARK  Name = 
REMARK  6 active torsions:
REMARK  status: ('A' for Active; 'I' for Inactive)
REMARK    1  A    between atoms: C_1  and  C_2
REMARK    2  A    between atoms: C_2  and  N_3
REMARK    3  A    between atoms: C_2  and  C_19
REMARK    4  A    between atoms: C_4  and  C_6
REMARK    5  A    between atoms: C_6  and  C_7
REMARK    6  A    between atoms: C_6  and  N_8
REMARK                            x       y       z     vdW  Elec       q    Type
REMARK                         _______ _______ _______ _____ _____    ______ ____
ROOT
ATOM      1  C   UNL     1       3.686   3.946  18.686  0.00  0.00    +0.000 C 
ATOM      2  C   UNL     1       3.601   2.998  19.880  0.00  0.00    +0.000 C 
ENDROOT
BRANCH   1   3
ATOM      3  N   UNL     1       2.955   5.197  18.911  0.00  0.00    +0.000 N 
ATOM      4  C   UNL     1       2.388   5.506  20.121  0.00  0.00    +0.000 C 
ATOM      5  O   UNL     1       2.336   4.834  21.117  0.00  0.00    +0.000 OA
ATOM      6  C   UNL     1       1.933   6.897  20.025  0.00  0.00    +0.000 A 
ATOM      7  C   UNL     1       1.383   7.737  20.973  0.00  0.00    +0.000 A 
ATOM      8  C   UNL     1       1.090   9.047  20.572  0.00  0.00    +0.000 A 
ATOM      9  C   UNL     1       1.333   9.475  19.249  0.00  0.00    +0.000 A 
ATOM     10  C   UNL     1       1.923   8.616  18.322  0.00  0.00    +0.000 A 
ATOM     11  C   UNL     1       2.240   7.343  18.757  0.00  0.00    +0.000 A 
ATOM     12  C   UNL     1       3.031   6.305  18.111  0.00  0.00    +0.000 C 
ATOM     13  O   UNL     1       3.704   6.518  17.120  0.00  0.00    +0.000 OA
ENDBRANCH   1   3
BRANCH   1  15
ATOM     14  N   UNL     1       5.341   4.266  16.816  0.00  0.00    +0.000 N 
ATOM     15  C   UNL     1       5.137   4.191  18.184  0.00  0.00    +0.000 C 
ATOM     16  O   UNL     1       6.076   4.290  18.982  0.00  0.00    +0.000 OA
ATOM     17  H   UNL     1       4.664   3.830  16.203  0.00  0.00    +0.000 HD
BRANCH  14  19
ATOM     18  C   UNL     1       7.193   5.945  16.716  0.00  0.00    +0.000 C 
ATOM     19  C   UNL     1       6.659   4.574  16.259  0.00  0.00    +0.000 C 
BRANCH  19  20
ATOM     20  C   UNL     1       6.695   4.588  14.736  0.00  0.00    +0.000 A 
ATOM     21  C   UNL     1       5.860   3.692  14.040  0.00  0.00    +0.000 A 
ATOM     22  C   UNL     1       6.028   3.470  12.673  0.00  0.00    +0.000 A 
ATOM     23  C   UNL     1       7.007   4.166  11.970  0.00  0.00    +0.000 A 
ATOM     24  C   UNL     1       7.805   5.098  12.631  0.00  0.00    +0.000 A 
ATOM     25  C   UNL     1       7.658   5.302  14.007  0.00  0.00    +0.000 A 
ENDBRANCH  19  20
ENDBRANCH  14  19
ENDBRANCH   1  15
TORSDOF 4
ENDMDL
MODEL 9
REMARK VINA RESULT:      -7.0      1.025      1.025
REMARK  Name = 
REMARK  6 active torsions:
REMARK  status: ('A' for Active; 'I' for Inactive)
REMARK    1  A    between atoms: C_1  and  C_2
REMARK    2  A    between atoms: C_2  and  N_3
REMARK    3  A    between atoms: C_2  and  C_19
REMARK    4  A    between atoms: C_4  and  C_6
REMARK    5  A    between atoms: C_6  and  C_7
REMARK    6  A    between atoms: C_6  and  N_8
REMARK                            x       y       z     vdW  Elec       q    Type
REMARK                         _______ _______ _______ _____ _____    ______ ____
ROOT
ATOM      1  C   UNL     1       6.166   5.829  17.403  0.00  0.00    +0.000 C 
ATOM      2  C   UNL     1       5.792   7.259  17.015  0.00  0.00    +0.000 C 
ENDROOT
BRANCH   1   3
ATOM      3  N   UNL     1       5.010   5.054  17.863  0.00  0.00    +0.000 N 
ATOM      4  C   UNL     1       5.108   4.109  18.852  0.00  0.00    +0.000 C 
ATOM      5  O   UNL     1       6.092   3.730  19.431  0.00  0.00    +0.000 OA
ATOM      6  C   UNL     1       3.737   3.701  19.176  0.00  0.00    +0.000 A 
ATOM      7  C   UNL     1       3.251   2.856  20.154  0.00  0.00    +0.000 A 
ATOM      8  C   UNL     1       1.861   2.704  20.233  0.00  0.00    +0.000 A 
ATOM      9  C   UNL     1       1.002   3.374  19.336  0.00  0.00    +0.000 A 
ATOM     10  C   UNL     1       1.519   4.250  18.380  0.00  0.00    +0.000 A 
ATOM     11  C   UNL     1       2.891   4.413  18.352  0.00  0.00    +0.000 A 
ATOM     12  C   UNL     1       3.702   5.385  17.633  0.00  0.00    +0.000 C 
ATOM     13  O   UNL     1       3.219   6.350  17.072  0.00  0.00    +0.000 OA
ENDBRANCH   1   3
BRANCH   1  15
ATOM     14  N   UNL     1       6.652   5.306  14.989  0.00  0.00    +0.000 N 
ATOM     15  C   UNL     1       6.986   5.081  16.314  0.00  0.00    +0.000 C 
ATOM     16  O   UNL     1       7.887   4.295  16.628  0.00  0.00    +0.000 OA
ATOM     17  H   UNL     1       5.719   5.638  14.776  0.00  0.00    +0.000 HD
BRANCH  14  19
ATOM     18  C   UNL     1       8.259   5.741  13.122  0.00  0.00    +0.000 C 
ATOM     19  C   UNL     1       7.422   4.707  13.898  0.00  0.00    +0.000 C 
BRANCH  19  20
ATOM     20  C   UNL     1       6.566   3.987  12.863  0.00  0.00    +0.000 A 
ATOM     21  C   UNL     1       5.166   4.131  12.938  0.00  0.00    +0.000 A 
ATOM     22  C   UNL     1       4.320   3.306  12.197  0.00  0.00    +0.000 A 
ATOM     23  C   UNL     1       4.856   2.348  11.342  0.00  0.00    +0.000 A 
ATOM     24  C   UNL     1       6.239   2.229  11.213  0.00  0.00    +0.000 A 
ATOM     25  C   UNL     1       7.089   3.035  11.975  0.00  0.00    +0.000 A 
ENDBRANCH  19  20
ENDBRANCH  14  19
ENDBRANCH   1  15
TORSDOF 4
ENDMDL
