MODEL 1
REMARK VINA RESULT:      -7.3      0.000      0.000
REMARK  Name = 
REMARK  8 active torsions:
REMARK  status: ('A' for Active; 'I' for Inactive)
REMARK    1  A    between atoms: C_1  and  C_2
REMARK    2  A    between atoms: C_8  and  C_9
REMARK    3  A    between atoms: C_9  and  N_10
REMARK    4  A    between atoms: N_10  and  C_11
REMARK    5  A    between atoms: C_11  and  C_12
REMARK    6  A    between atoms: C_15  and  O_16
REMARK    7  A    between atoms: O_16  and  C_17
REMARK    8  A    between atoms: C_17  and  C_18
REMARK                            x       y       z     vdW  Elec       q    Type
REMARK                         _______ _______ _______ _____ _____    ______ ____
ROOT
ATOM      1  N   UNL     1       8.547   8.546  18.358  0.00  0.00    +0.000 NA
ATOM      2  H   UNL     1       8.261   8.189  19.269  0.00  0.00    +0.000 HD
ENDROOT
BRANCH   1   3
ATOM      3  C   UNL     1       8.458  10.004  18.327  0.00  0.00    +0.000 C 
BRANCH   3  11
ATOM      4  C   UNL     1      11.965  15.957  17.129  0.00  0.00    +0.000 C 
ATOM      5  C   UNL     1      11.364  14.789  17.816  0.00  0.00    +0.000 A 
ATOM      6  C   UNL     1      10.844  14.726  19.135  0.00  0.00    +0.000 A 
ATOM      7  C   UNL     1      10.468  13.417  19.302  0.00  0.00    +0.000 A 
ATOM      8  N   UNL     1      10.737  12.799  18.117  0.00  0.00    +0.000 N 
ATOM      9  N   UNL     1      11.286  13.607  17.192  0.00  0.00    +0.000 NA
ATOM     10  C   UNL     1      10.511  11.409  17.841  0.00  0.00    +0.000 C 
ATOM     11  C   UNL     1       9.724  10.650  18.928  0.00  0.00    +0.000 C 
ATOM     12  C   UNL     1       9.320  11.453  20.177  0.00  0.00    +0.000 C 
ATOM     13  N   UNL     1       9.977  12.736  20.354  0.00  0.00    +0.000 N 
ATOM     14  H   UNL     1       9.666  13.266  21.168  0.00  0.00    +0.000 HD
ENDBRANCH   3  11
ENDBRANCH   1   3
BRANCH   1  15
ATOM     15  C   UNL     1       7.706   7.937  17.326  0.00  0.00    +0.000 C 
BRANCH  15  16
ATOM     16  C   UNL     1       6.930   6.779  17.883  0.00  0.00    +0.000 A 
ATOM     17  C   UNL     1       5.651   6.454  17.418  0.00  0.00    +0.000 A 
ATOM     18  C   UNL     1       4.969   5.372  17.972  0.00  0.00    +0.000 A 
ATOM     19  C   UNL     1       5.580   4.668  18.993  0.00  0.00    +0.000 A 
ATOM     20  N   UNL     1       6.813   4.950  19.466  0.00  0.00    +0.000 NA
ATOM     21  C   UNL     1       7.458   5.991  18.896  0.00  0.00    +0.000 A 
BRANCH  19  22
ATOM     22  O   UNL     1       4.881   3.602  19.526  0.00  0.00    +0.000 OA
BRANCH  22  23
ATOM     23  C   UNL     1       3.491   3.662  19.212  0.00  0.00    +0.000 C 
BRANCH  23  24
ATOM     24  C   UNL     1       2.725   3.843  20.489  0.00  0.00    +0.000 C 
ATOM     25  C   UNL     1       1.375   4.512  20.469  0.00  0.00    +0.000 C 
ATOM     26  C   UNL     1       1.473   3.039  20.749  0.00  0.00    +0.000 C 
ENDBRANCH  23  24
ENDBRANCH  22  23
ENDBRANCH  19  22
ENDBRANCH  15  16
ENDBRANCH   1  15
TORSDOF 7
ENDMDL
MODEL 2
REMARK VINA RESULT:      -7.2      0.899      1.093
REMARK  Name = 
REMARK  8 active torsions:
REMARK  status: ('A' for Active; 'I' for Inactive)
REMARK    1  A    between atoms: C_1  and  C_2
REMARK    2  A    between atoms: C_8  and  C_9
REMARK    3  A    between atoms: C_9  and  N_10
REMARK    4  A    between atoms: N_10  and  C_11
REMARK    5  A    between atoms: C_11  and  C_12
REMARK    6  A    between atoms: C_15  and  O_16
REMARK    7  A    between atoms: O_16  and  C_17
REMARK    8  A    between atoms: C_17  and  C_18
REMARK                            x       y       z     vdW  Elec       q    Type
REMARK                         _______ _______ _______ _____ _____    ______ ____
ROOT
ATOM      1  N   UNL     1       8.906   8.810  18.815  0.00  0.00    +0.000 NA
ATOM      2  H   UNL     1       8.600   8.300  19.644  0.00  0.00    +0.000 HD
ENDROOT
BRANCH   1   3
ATOM      3  C   UNL     1       8.769  10.250  19.020  0.00  0.00    +0.000 C 
BRANCH   3  11
ATOM      4  C   UNL     1      11.443  16.389  16.939  0.00  0.00    +0.000 C 
ATOM      5  C   UNL     1      11.165  15.171  17.736  0.00  0.00    +0.000 A 
ATOM      6  C   UNL     1      11.165  15.034  19.148  0.00  0.00    +0.000 A 
ATOM      7  C   UNL     1      10.909  13.705  19.372  0.00  0.00    +0.000 A 
ATOM      8  N   UNL     1      10.741  13.145  18.140  0.00  0.00    +0.000 N 
ATOM      9  N   UNL     1      10.894  14.012  17.122  0.00  0.00    +0.000 NA
ATOM     10  C   UNL     1      10.465  11.759  17.893  0.00  0.00    +0.000 C 
ATOM     11  C   UNL     1      10.151  10.925  19.151  0.00  0.00    +0.000 C 
ATOM     12  C   UNL     1      10.212  11.661  20.502  0.00  0.00    +0.000 C 
ATOM     13  N   UNL     1      10.855  12.963  20.493  0.00  0.00    +0.000 N 
ATOM     14  H   UNL     1      10.850  13.447  21.392  0.00  0.00    +0.000 HD
ENDBRANCH   3  11
ENDBRANCH   1   3
BRANCH   1  15
ATOM     15  C   UNL     1       8.120   8.357  17.666  0.00  0.00    +0.000 C 
BRANCH  15  16
ATOM     16  C   UNL     1       7.346   7.115  18.003  0.00  0.00    +0.000 A 
ATOM     17  C   UNL     1       6.107   6.834  17.415  0.00  0.00    +0.000 A 
ATOM     18  C   UNL     1       5.425   5.671  17.766  0.00  0.00    +0.000 A 
ATOM     19  C   UNL     1       5.993   4.841  18.714  0.00  0.00    +0.000 A 
ATOM     20  N   UNL     1       7.186   5.078  19.301  0.00  0.00    +0.000 NA
ATOM     21  C   UNL     1       7.834   6.201  18.927  0.00  0.00    +0.000 A 
BRANCH  19  22
ATOM     22  O   UNL     1       5.294   3.696  19.046  0.00  0.00    +0.000 OA
BRANCH  22  23
ATOM     23  C   UNL     1       3.942   3.978  19.401  0.00  0.00    +0.000 C 
BRANCH  23  24
ATOM     24  C   UNL     1       3.041   3.204  18.485  0.00  0.00    +0.000 C 
ATOM     25  C   UNL     1       1.552   3.207  18.714  0.00  0.00    +0.000 C 
ATOM     26  C   UNL     1       2.125   3.925  17.525  0.00  0.00    +0.000 C 
ENDBRANCH  23  24
ENDBRANCH  22  23
ENDBRANCH  19  22
ENDBRANCH  15  16
ENDBRANCH   1  15
TORSDOF 7
ENDMDL
MODEL 3
REMARK VINA RESULT:      -7.2      1.461      1.964
REMARK  Name = 
REMARK  8 active torsions:
REMARK  status: ('A' for Active; 'I' for Inactive)
REMARK    1  A    between atoms: C_1  and  C_2
REMARK    2  A    between atoms: C_8  and  C_9
REMARK    3  A    between atoms: C_9  and  N_10
REMARK    4  A    between atoms: N_10  and  C_11
REMARK    5  A    between atoms: C_11  and  C_12
REMARK    6  A    between atoms: C_15  and  O_16
REMARK    7  A    between atoms: O_16  and  C_17
REMARK    8  A    between atoms: C_17  and  C_18
REMARK                            x       y       z     vdW  Elec       q    Type
REMARK                         _______ _______ _______ _____ _____    ______ ____
ROOT
ATOM      1  N   UNL     1       9.022   9.233  19.240  0.00  0.00    +0.000 NA
ATOM      2  H   UNL     1       8.417   8.933  20.004  0.00  0.00    +0.000 HD
ENDROOT
BRANCH   1   3
ATOM      3  C   UNL     1       9.404  10.633  19.408  0.00  0.00    +0.000 C 
BRANCH   3  11
ATOM      4  C   UNL     1      10.932  17.142  17.293  0.00  0.00    +0.000 C 
ATOM      5  C   UNL     1      10.936  15.666  17.425  0.00  0.00    +0.000 A 
ATOM      6  C   UNL     1      12.037  14.781  17.285  0.00  0.00    +0.000 A 
ATOM      7  C   UNL     1      11.503  13.527  17.443  0.00  0.00    +0.000 A 
ATOM      8  N   UNL     1      10.175  13.718  17.694  0.00  0.00    +0.000 N 
ATOM      9  N   UNL     1       9.798  15.009  17.687  0.00  0.00    +0.000 NA
ATOM     10  C   UNL     1       9.218  12.672  17.913  0.00  0.00    +0.000 C 
ATOM     11  C   UNL     1       9.821  11.259  18.060  0.00  0.00    +0.000 C 
ATOM     12  C   UNL     1      11.348  11.141  17.914  0.00  0.00    +0.000 C 
ATOM     13  N   UNL     1      12.029  12.293  17.350  0.00  0.00    +0.000 N 
ATOM     14  H   UNL     1      13.045  12.205  17.298  0.00  0.00    +0.000 HD
ENDBRANCH   3  11
ENDBRANCH   1   3
BRANCH   1  15
ATOM     15  C   UNL     1       8.324   9.018  17.971  0.00  0.00    +0.000 C 
BRANCH  15  16
ATOM     16  C   UNL     1       7.647   7.678  17.953  0.00  0.00    +0.000 A 
ATOM     17  C   UNL     1       6.545   7.417  17.131  0.00  0.00    +0.000 A 
ATOM     18  C   UNL     1       5.949   6.157  17.155  0.00  0.00    +0.000 A 
ATOM     19  C   UNL     1       6.458   5.209  18.023  0.00  0.00    +0.000 A 
ATOM     20  N   UNL     1       7.520   5.424  18.829  0.00  0.00    +0.000 NA
ATOM     21  C   UNL     1       8.091   6.646  18.769  0.00  0.00    +0.000 A 
BRANCH  19  22
ATOM     22  O   UNL     1       5.846   3.970  18.029  0.00  0.00    +0.000 OA
BRANCH  22  23
ATOM     23  C   UNL     1       4.860   3.866  19.054  0.00  0.00    +0.000 C 
BRANCH  23  24
ATOM     24  C   UNL     1       3.635   3.227  18.468  0.00  0.00    +0.000 C 
ATOM     25  C   UNL     1       3.558   1.728  18.337  0.00  0.00    +0.000 C 
ATOM     26  C   UNL     1       2.694   2.434  19.343  0.00  0.00    +0.000 C 
ENDBRANCH  23  24
ENDBRANCH  22  23
ENDBRANCH  19  22
ENDBRANCH  15  16
ENDBRANCH   1  15
TORSDOF 7
ENDMDL
MODEL 4
REMARK VINA RESULT:      -7.2      6.949      8.848
REMARK  Name = 
REMARK  8 active torsions:
REMARK  status: ('A' for Active; 'I' for Inactive)
REMARK    1  A    between atoms: C_1  and  C_2
REMARK    2  A    between atoms: C_8  and  C_9
REMARK    3  A    between atoms: C_9  and  N_10
REMARK    4  A    between atoms: N_10  and  C_11
REMARK    5  A    between atoms: C_11  and  C_12
REMARK    6  A    between atoms: C_15  and  O_16
REMARK    7  A    between atoms: O_16  and  C_17
REMARK    8  A    between atoms: C_17  and  C_18
REMARK                            x       y       z     vdW  Elec       q    Type
REMARK                         _______ _______ _______ _____ _____    ______ ____
ROOT
ATOM      1  N   UNL     1       2.821   5.616  19.612  0.00  0.00    +0.000 NA
ATOM      2  H   UNL     1       3.659   5.452  20.170  0.00  0.00    +0.000 HD
ENDROOT
BRANCH   1   3
ATOM      3  C   UNL     1       2.335   4.363  19.037  0.00  0.00    +0.000 C 
BRANCH   3  11
ATOM      4  C   UNL     1       7.189   4.934  14.008  0.00  0.00    +0.000 C 
ATOM      5  C   UNL     1       6.518   4.606  15.288  0.00  0.00    +0.000 A 
ATOM      6  C   UNL     1       7.089   4.564  16.587  0.00  0.00    +0.000 A 
ATOM      7  C   UNL     1       6.069   4.154  17.407  0.00  0.00    +0.000 A 
ATOM      8  N   UNL     1       4.978   4.011  16.600  0.00  0.00    +0.000 N 
ATOM      9  N   UNL     1       5.220   4.276  15.304  0.00  0.00    +0.000 NA
ATOM     10  C   UNL     1       3.680   3.582  17.036  0.00  0.00    +0.000 C 
ATOM     11  C   UNL     1       3.508   3.479  18.565  0.00  0.00    +0.000 C 
ATOM     12  C   UNL     1       4.745   3.802  19.423  0.00  0.00    +0.000 C 
ATOM     13  N   UNL     1       6.014   3.864  18.719  0.00  0.00    +0.000 N 
ATOM     14  H   UNL     1       6.813   4.116  19.303  0.00  0.00    +0.000 HD
ENDBRANCH   3  11
ENDBRANCH   1   3
BRANCH   1  15
ATOM     15  C   UNL     1       3.129   6.597  18.571  0.00  0.00    +0.000 C 
BRANCH  15  16
ATOM     16  C   UNL     1       2.321   7.848  18.757  0.00  0.00    +0.000 A 
ATOM     17  C   UNL     1       2.208   8.813  17.750  0.00  0.00    +0.000 A 
ATOM     18  C   UNL     1       1.450   9.960  17.975  0.00  0.00    +0.000 A 
ATOM     19  C   UNL     1       0.852  10.117  19.212  0.00  0.00    +0.000 A 
ATOM     20  N   UNL     1       0.937   9.208  20.207  0.00  0.00    +0.000 NA
ATOM     21  C   UNL     1       1.661   8.096  19.954  0.00  0.00    +0.000 A 
BRANCH  19  22
ATOM     22  O   UNL     1       0.109  11.265  19.410  0.00  0.00    +0.000 OA
BRANCH  22  23
ATOM     23  C   UNL     1      -1.288  10.991  19.492  0.00  0.00    +0.000 C 
BRANCH  23  24
ATOM     24  C   UNL     1      -1.851  10.984  18.102  0.00  0.00    +0.000 C 
ATOM     25  C   UNL     1      -2.723   9.841  17.649  0.00  0.00    +0.000 C 
ATOM     26  C   UNL     1      -3.329  11.198  17.875  0.00  0.00    +0.000 C 
ENDBRANCH  23  24
ENDBRANCH  22  23
ENDBRANCH  19  22
ENDBRANCH  15  16
ENDBRANCH   1  15
TORSDOF 7
ENDMDL
MODEL 5
REMARK VINA RESULT:      -7.2      4.685      7.988
REMARK  Name = 
REMARK  8 active torsions:
REMARK  status: ('A' for Active; 'I' for Inactive)
REMARK    1  A    between atoms: C_1  and  C_2
REMARK    2  A    between atoms: C_8  and  C_9
REMARK    3  A    between atoms: C_9  and  N_10
REMARK    4  A    between atoms: N_10  and  C_11
REMARK    5  A    between atoms: C_11  and  C_12
REMARK    6  A    between atoms: C_15  and  O_16
REMARK    7  A    between atoms: O_16  and  C_17
REMARK    8  A    between atoms: C_17  and  C_18
REMARK                            x       y       z     vdW  Elec       q    Type
REMARK                         _______ _______ _______ _____ _____    ______ ____
ROOT
ATOM      1  N   UNL     1       2.282   5.634  18.023  0.00  0.00    +0.000 NA
ATOM      2  H   UNL     1       1.276   5.693  17.867  0.00  0.00    +0.000 HD
ENDROOT
BRANCH   1   3
ATOM      3  C   UNL     1       2.729   4.244  17.969  0.00  0.00    +0.000 C 
BRANCH   3  11
ATOM      4  C   UNL     1       8.191   8.635  17.713  0.00  0.00    +0.000 C 
ATOM      5  C   UNL     1       7.380   7.399  17.819  0.00  0.00    +0.000 A 
ATOM      6  C   UNL     1       7.657   6.238  18.587  0.00  0.00    +0.000 A 
ATOM      7  C   UNL     1       6.637   5.370  18.292  0.00  0.00    +0.000 A 
ATOM      8  N   UNL     1       5.818   6.037  17.430  0.00  0.00    +0.000 N 
ATOM      9  N   UNL     1       6.245   7.275  17.120  0.00  0.00    +0.000 NA
ATOM     10  C   UNL     1       4.621   5.503  16.846  0.00  0.00    +0.000 C 
ATOM     11  C   UNL     1       4.168   4.145  17.421  0.00  0.00    +0.000 C 
ATOM     12  C   UNL     1       5.065   3.519  18.504  0.00  0.00    +0.000 C 
ATOM     13  N   UNL     1       6.389   4.098  18.653  0.00  0.00    +0.000 N 
ATOM     14  H   UNL     1       6.950   3.691  19.402  0.00  0.00    +0.000 HD
ENDBRANCH   3  11
ENDBRANCH   1   3
BRANCH   1  15
ATOM     15  C   UNL     1       2.597   6.246  19.315  0.00  0.00    +0.000 C 
BRANCH  15  16
ATOM     16  C   UNL     1       2.043   7.640  19.396  0.00  0.00    +0.000 A 
ATOM     17  C   UNL     1       1.421   8.122  20.553  0.00  0.00    +0.000 A 
ATOM     18  C   UNL     1       0.918   9.421  20.576  0.00  0.00    +0.000 A 
ATOM     19  C   UNL     1       1.029  10.186  19.430  0.00  0.00    +0.000 A 
ATOM     20  N   UNL     1       1.623   9.755  18.296  0.00  0.00    +0.000 NA
ATOM     21  C   UNL     1       2.120   8.500  18.309  0.00  0.00    +0.000 A 
BRANCH  19  22
ATOM     22  O   UNL     1       0.519  11.469  19.479  0.00  0.00    +0.000 OA
BRANCH  22  23
ATOM     23  C   UNL     1      -0.905  11.476  19.565  0.00  0.00    +0.000 C 
BRANCH  23  24
ATOM     24  C   UNL     1      -1.464  11.258  18.190  0.00  0.00    +0.000 C 
ATOM     25  C   UNL     1      -2.437  10.135  17.943  0.00  0.00    +0.000 C 
ATOM     26  C   UNL     1      -2.914  11.559  17.898  0.00  0.00    +0.000 C 
ENDBRANCH  23  24
ENDBRANCH  22  23
ENDBRANCH  19  22
ENDBRANCH  15  16
ENDBRANCH   1  15
TORSDOF 7
ENDMDL
MODEL 6
REMARK VINA RESULT:      -7.1      1.290      1.477
REMARK  Name = 
REMARK  8 active torsions:
REMARK  status: ('A' for Active; 'I' for Inactive)
REMARK    1  A    between atoms: C_1  and  C_2
REMARK    2  A    between atoms: C_8  and  C_9
REMARK    3  A    between atoms: C_9  and  N_10
REMARK    4  A    between atoms: N_10  and  C_11
REMARK    5  A    between atoms: C_11  and  C_12
REMARK    6  A    between atoms: C_15  and  O_16
REMARK    7  A    between atoms: O_16  and  C_17
REMARK    8  A    between atoms: C_17  and  C_18
REMARK                            x       y       z     vdW  Elec       q    Type
REMARK                         _______ _______ _______ _____ _____    ______ ____
ROOT
ATOM      1  N   UNL     1       8.591   8.842  18.660  0.00  0.00    +0.000 NA
ATOM      2  H   UNL     1       8.002   8.701  19.480  0.00  0.00    +0.000 HD
ENDROOT
BRANCH   1   3
ATOM      3  C   UNL     1       8.858  10.264  18.459  0.00  0.00    +0.000 C 
BRANCH   3  11
ATOM      4  C   UNL     1      11.547  16.554  20.002  0.00  0.00    +0.000 C 
ATOM      5  C   UNL     1      11.072  15.155  20.126  0.00  0.00    +0.000 A 
ATOM      6  C   UNL     1      10.468  14.536  21.252  0.00  0.00    +0.000 A 
ATOM      7  C   UNL     1      10.274  13.232  20.873  0.00  0.00    +0.000 A 
ATOM      8  N   UNL     1      10.718  13.148  19.586  0.00  0.00    +0.000 N 
ATOM      9  N   UNL     1      11.212  14.302  19.103  0.00  0.00    +0.000 NA
ATOM     10  C   UNL     1      10.717  11.956  18.789  0.00  0.00    +0.000 C 
ATOM     11  C   UNL     1       9.969  10.759  19.410  0.00  0.00    +0.000 C 
ATOM     12  C   UNL     1       9.360  10.973  20.807  0.00  0.00    +0.000 C 
ATOM     13  N   UNL     1       9.810  12.152  21.527  0.00  0.00    +0.000 N 
ATOM     14  H   UNL     1       9.364  12.293  22.435  0.00  0.00    +0.000 HD
ENDBRANCH   3  11
ENDBRANCH   1   3
BRANCH   1  15
ATOM     15  C   UNL     1       7.928   8.253  17.495  0.00  0.00    +0.000 C 
BRANCH  15  16
ATOM     16  C   UNL     1       7.172   7.015  17.878  0.00  0.00    +0.000 A 
ATOM     17  C   UNL     1       5.930   6.702  17.313  0.00  0.00    +0.000 A 
ATOM     18  C   UNL     1       5.264   5.543  17.707  0.00  0.00    +0.000 A 
ATOM     19  C   UNL     1       5.852   4.748  18.674  0.00  0.00    +0.000 A 
ATOM     20  N   UNL     1       7.048   5.016  19.240  0.00  0.00    +0.000 NA
ATOM     21  C   UNL     1       7.680   6.135  18.824  0.00  0.00    +0.000 A 
BRANCH  19  22
ATOM     22  O   UNL     1       5.169   3.607  19.049  0.00  0.00    +0.000 OA
BRANCH  22  23
ATOM     23  C   UNL     1       3.836   3.893  19.467  0.00  0.00    +0.000 C 
BRANCH  23  24
ATOM     24  C   UNL     1       2.890   3.125  18.592  0.00  0.00    +0.000 C 
ATOM     25  C   UNL     1       1.424   3.071  18.934  0.00  0.00    +0.000 C 
ATOM     26  C   UNL     1       1.882   3.852  17.734  0.00  0.00    +0.000 C 
ENDBRANCH  23  24
ENDBRANCH  22  23
ENDBRANCH  19  22
ENDBRANCH  15  16
ENDBRANCH   1  15
TORSDOF 7
ENDMDL
MODEL 7
REMARK VINA RESULT:      -7.1      6.898      8.885
REMARK  Name = 
REMARK  8 active torsions:
REMARK  status: ('A' for Active; 'I' for Inactive)
REMARK    1  A    between atoms: C_1  and  C_2
REMARK    2  A    between atoms: C_8  and  C_9
REMARK    3  A    between atoms: C_9  and  N_10
REMARK    4  A    between atoms: N_10  and  C_11
REMARK    5  A    between atoms: C_11  and  C_12
REMARK    6  A    between atoms: C_15  and  O_16
REMARK    7  A    between atoms: O_16  and  C_17
REMARK    8  A    between atoms: C_17  and  C_18
REMARK                            x       y       z     vdW  Elec       q    Type
REMARK                         _______ _______ _______ _____ _____    ______ ____
ROOT
ATOM      1  N   UNL     1       2.646   5.469  19.696  0.00  0.00    +0.000 NA
ATOM      2  H   UNL     1       3.369   5.223  20.372  0.00  0.00    +0.000 HD
ENDROOT
BRANCH   1   3
ATOM      3  C   UNL     1       2.211   4.285  18.958  0.00  0.00    +0.000 C 
BRANCH   3  11
ATOM      4  C   UNL     1       7.225   4.956  14.102  0.00  0.00    +0.000 C 
ATOM      5  C   UNL     1       6.516   4.614  15.358  0.00  0.00    +0.000 A 
ATOM      6  C   UNL     1       7.043   4.586  16.676  0.00  0.00    +0.000 A 
ATOM      7  C   UNL     1       6.003   4.154  17.460  0.00  0.00    +0.000 A 
ATOM      8  N   UNL     1       4.945   3.988  16.616  0.00  0.00    +0.000 N 
ATOM      9  N   UNL     1       5.226   4.257  15.328  0.00  0.00    +0.000 NA
ATOM     10  C   UNL     1       3.642   3.532  17.006  0.00  0.00    +0.000 C 
ATOM     11  C   UNL     1       3.418   3.426  18.528  0.00  0.00    +0.000 C 
ATOM     12  C   UNL     1       4.617   3.776  19.429  0.00  0.00    +0.000 C 
ATOM     13  N   UNL     1       5.908   3.864  18.770  0.00  0.00    +0.000 N 
ATOM     14  H   UNL     1       6.681   4.133  19.381  0.00  0.00    +0.000 HD
ENDBRANCH   3  11
ENDBRANCH   1   3
BRANCH   1  15
ATOM     15  C   UNL     1       3.169   6.497  18.797  0.00  0.00    +0.000 C 
BRANCH  15  16
ATOM     16  C   UNL     1       2.342   7.748  18.874  0.00  0.00    +0.000 A 
ATOM     17  C   UNL     1       1.660   8.112  20.040  0.00  0.00    +0.000 A 
ATOM     18  C   UNL     1       0.901   9.281  20.059  0.00  0.00    +0.000 A 
ATOM     19  C   UNL     1       0.827  10.031  18.900  0.00  0.00    +0.000 A 
ATOM     20  N   UNL     1       1.472   9.713  17.758  0.00  0.00    +0.000 NA
ATOM     21  C   UNL     1       2.217   8.587  17.775  0.00  0.00    +0.000 A 
BRANCH  19  22
ATOM     22  O   UNL     1       0.065  11.183  18.946  0.00  0.00    +0.000 OA
BRANCH  22  23
ATOM     23  C   UNL     1      -1.329  10.898  19.053  0.00  0.00    +0.000 C 
BRANCH  23  24
ATOM     24  C   UNL     1      -1.838  10.510  17.696  0.00  0.00    +0.000 C 
ATOM     25  C   UNL     1      -3.118   9.724  17.569  0.00  0.00    +0.000 C 
ATOM     26  C   UNL     1      -3.077  11.161  17.130  0.00  0.00    +0.000 C 
ENDBRANCH  23  24
ENDBRANCH  22  23
ENDBRANCH  19  22
ENDBRANCH  15  16
ENDBRANCH   1  15
TORSDOF 7
ENDMDL
MODEL 8
REMARK VINA RESULT:      -7.1      4.795      7.965
REMARK  Name = 
REMARK  8 active torsions:
REMARK  status: ('A' for Active; 'I' for Inactive)
REMARK    1  A    between atoms: C_1  and  C_2
REMARK    2  A    between atoms: C_8  and  C_9
REMARK    3  A    between atoms: C_9  and  N_10
REMARK    4  A    between atoms: N_10  and  C_11
REMARK    5  A    between atoms: C_11  and  C_12
REMARK    6  A    between atoms: C_15  and  O_16
REMARK    7  A    between atoms: O_16  and  C_17
REMARK    8  A    between atoms: C_17  and  C_18
REMARK                            x       y       z     vdW  Elec       q    Type
REMARK                         _______ _______ _______ _____ _____    ______ ____
ROOT
ATOM      1  N   UNL     1       2.327   4.921  19.399  0.00  0.00    +0.000 NA
ATOM      2  H   UNL     1       2.688   4.158  19.972  0.00  0.00    +0.000 HD
ENDROOT
BRANCH   1   3
ATOM      3  C   UNL     1       2.342   4.552  17.986  0.00  0.00    +0.000 C 
BRANCH   3  11
ATOM      4  C   UNL     1       8.292   8.250  17.666  0.00  0.00    +0.000 C 
ATOM      5  C   UNL     1       7.337   7.126  17.820  0.00  0.00    +0.000 A 
ATOM      6  C   UNL     1       7.448   5.999  18.676  0.00  0.00    +0.000 A 
ATOM      7  C   UNL     1       6.343   5.236  18.397  0.00  0.00    +0.000 A 
ATOM      8  N   UNL     1       5.639   5.931  17.458  0.00  0.00    +0.000 N 
ATOM      9  N   UNL     1       6.220   7.085  17.083  0.00  0.00    +0.000 NA
ATOM     10  C   UNL     1       4.408   5.498  16.862  0.00  0.00    +0.000 C 
ATOM     11  C   UNL     1       3.777   4.247  17.507  0.00  0.00    +0.000 C 
ATOM     12  C   UNL     1       4.556   3.601  18.667  0.00  0.00    +0.000 C 
ATOM     13  N   UNL     1       5.933   4.031  18.832  0.00  0.00    +0.000 N 
ATOM     14  H   UNL     1       6.416   3.617  19.630  0.00  0.00    +0.000 HD
ENDBRANCH   3  11
ENDBRANCH   1   3
BRANCH   1  15
ATOM     15  C   UNL     1       3.132   6.119  19.646  0.00  0.00    +0.000 C 
BRANCH  15  16
ATOM     16  C   UNL     1       2.334   7.363  19.383  0.00  0.00    +0.000 A 
ATOM     17  C   UNL     1       2.296   7.965  18.121  0.00  0.00    +0.000 A 
ATOM     18  C   UNL     1       1.545   9.123  17.930  0.00  0.00    +0.000 A 
ATOM     19  C   UNL     1       0.877   9.656  19.017  0.00  0.00    +0.000 A 
ATOM     20  N   UNL     1       0.889   9.103  20.249  0.00  0.00    +0.000 NA
ATOM     21  C   UNL     1       1.608   7.970  20.400  0.00  0.00    +0.000 A 
BRANCH  19  22
ATOM     22  O   UNL     1       0.143  10.806  18.801  0.00  0.00    +0.000 OA
BRANCH  22  23
ATOM     23  C   UNL     1      -1.258  10.581  18.947  0.00  0.00    +0.000 C 
BRANCH  23  24
ATOM     24  C   UNL     1      -1.925  10.885  17.638  0.00  0.00    +0.000 C 
ATOM     25  C   UNL     1      -2.451   9.762  16.782  0.00  0.00    +0.000 C 
ATOM     26  C   UNL     1      -3.413  10.685  17.474  0.00  0.00    +0.000 C 
ENDBRANCH  23  24
ENDBRANCH  22  23
ENDBRANCH  19  22
ENDBRANCH  15  16
ENDBRANCH   1  15
TORSDOF 7
ENDMDL
MODEL 9
REMARK VINA RESULT:      -7.0      6.858      8.859
REMARK  Name = 
REMARK  8 active torsions:
REMARK  status: ('A' for Active; 'I' for Inactive)
REMARK    1  A    between atoms: C_1  and  C_2
REMARK    2  A    between atoms: C_8  and  C_9
REMARK    3  A    between atoms: C_9  and  N_10
REMARK    4  A    between atoms: N_10  and  C_11
REMARK    5  A    between atoms: C_11  and  C_12
REMARK    6  A    between atoms: C_15  and  O_16
REMARK    7  A    between atoms: O_16  and  C_17
REMARK    8  A    between atoms: C_17  and  C_18
REMARK                            x       y       z     vdW  Elec       q    Type
REMARK                         _______ _______ _______ _____ _____    ______ ____
ROOT
ATOM      1  N   UNL     1       1.864   2.404  20.576  0.00  0.00    +0.000 NA
ATOM      2  H   UNL     1       2.733   2.870  20.838  0.00  0.00    +0.000 HD
ENDROOT
BRANCH   1   3
ATOM      3  C   UNL     1       2.064   1.574  19.391  0.00  0.00    +0.000 C 
BRANCH   3  11
ATOM      4  C   UNL     1       5.584   6.088  15.340  0.00  0.00    +0.000 C 
ATOM      5  C   UNL     1       5.255   5.112  16.406  0.00  0.00    +0.000 A 
ATOM      6  C   UNL     1       5.775   5.052  17.724  0.00  0.00    +0.000 A 
ATOM      7  C   UNL     1       5.198   3.939  18.280  0.00  0.00    +0.000 A 
ATOM      8  N   UNL     1       4.370   3.432  17.322  0.00  0.00    +0.000 N 
ATOM      9  N   UNL     1       4.384   4.122  16.167  0.00  0.00    +0.000 NA
ATOM     10  C   UNL     1       3.566   2.252  17.465  0.00  0.00    +0.000 C 
ATOM     11  C   UNL     1       3.521   1.665  18.890  0.00  0.00    +0.000 C 
ATOM     12  C   UNL     1       4.365   2.381  19.960  0.00  0.00    +0.000 C 
ATOM     13  N   UNL     1       5.350   3.329  19.470  0.00  0.00    +0.000 N 
ATOM     14  H   UNL     1       5.871   3.819  20.199  0.00  0.00    +0.000 HD
ENDBRANCH   3  11
ENDBRANCH   1   3
BRANCH   1  15
ATOM     15  C   UNL     1       0.833   3.418  20.350  0.00  0.00    +0.000 C 
BRANCH  15  16
ATOM     16  C   UNL     1       1.435   4.683  19.811  0.00  0.00    +0.000 A 
ATOM     17  C   UNL     1       1.887   5.705  20.654  0.00  0.00    +0.000 A 
ATOM     18  C   UNL     1       2.433   6.863  20.104  0.00  0.00    +0.000 A 
ATOM     19  C   UNL     1       2.484   6.972  18.727  0.00  0.00    +0.000 A 
ATOM     20  N   UNL     1       2.060   6.007  17.882  0.00  0.00    +0.000 NA
ATOM     21  C   UNL     1       1.554   4.887  18.443  0.00  0.00    +0.000 A 
BRANCH  19  22
ATOM     22  O   UNL     1       3.027   8.131  18.208  0.00  0.00    +0.000 OA
BRANCH  22  23
ATOM     23  C   UNL     1       2.032   8.984  17.646  0.00  0.00    +0.000 C 
BRANCH  23  24
ATOM     24  C   UNL     1       1.267   9.621  18.769  0.00  0.00    +0.000 C 
ATOM     25  C   UNL     1       1.014  11.106  18.760  0.00  0.00    +0.000 C 
ATOM     26  C   UNL     1      -0.127  10.154  18.538  0.00  0.00    +0.000 C 
ENDBRANCH  23  24
ENDBRANCH  22  23
ENDBRANCH  19  22
ENDBRANCH  15  16
ENDBRANCH   1  15
TORSDOF 7
ENDMDL
