MODEL 1
REMARK VINA RESULT:      -7.0      0.000      0.000
REMARK  Name = 
REMARK  3 active torsions:
REMARK  status: ('A' for Active; 'I' for Inactive)
REMARK    1  A    between atoms: C_1  and  C_16
REMARK    2  A    between atoms: C_2  and  N_3
REMARK    3  A    between atoms: N_7  and  C_8
REMARK                            x       y       z     vdW  Elec       q    Type
REMARK                         _______ _______ _______ _____ _____    ______ ____
ROOT
ATOM      1  N   UNL     1       9.356  11.132  19.019  0.00  0.00    +0.000 N 
ATOM      2  C   UNL     1       9.990  11.716  20.209  0.00  0.00    +0.000 C 
ATOM      3  C   UNL     1      11.511  11.744  20.102  0.00  0.00    +0.000 C 
ATOM      4  C   UNL     1      12.112  12.478  18.899  0.00  0.00    +0.000 C 
ATOM      5  N   UNL     1      11.171  13.389  18.244  0.00  0.00    +0.000 N 
ATOM      6  C   UNL     1      10.226  12.760  17.300  0.00  0.00    +0.000 C 
ATOM      7  C   UNL     1       9.000  12.130  17.984  0.00  0.00    +0.000 C 
ENDROOT
BRANCH   5   8
ATOM      8  C   UNL     1      11.226  14.762  18.391  0.00  0.00    +0.000 A 
ATOM      9  C   UNL     1      11.118  15.629  17.295  0.00  0.00    +0.000 A 
ATOM     10  C   UNL     1      11.172  17.016  17.454  0.00  0.00    +0.000 A 
ATOM     11  C   UNL     1      11.347  17.526  18.724  0.00  0.00    +0.000 A 
ATOM     12  N   UNL     1      11.468  16.753  19.819  0.00  0.00    +0.000 NA
ATOM     13  C   UNL     1      11.405  15.409  19.619  0.00  0.00    +0.000 A 
ENDBRANCH   5   8
BRANCH   1  15
ATOM     14  C   UNL     1       8.258   9.195  17.947  0.00  0.00    +0.000 C 
ATOM     15  C   UNL     1       8.986   9.798  18.898  0.00  0.00    +0.000 C 
BRANCH  14  16
ATOM     16  C   UNL     1       7.897   7.766  17.937  0.00  0.00    +0.000 A 
ATOM     17  C   UNL     1       8.270   6.980  19.036  0.00  0.00    +0.000 A 
ATOM     18  C   UNL     1       7.983   5.613  19.071  0.00  0.00    +0.000 A 
ATOM     19  C   UNL     1       7.300   5.017  18.014  0.00  0.00    +0.000 A 
ATOM     20  C   UNL     1       6.890   5.791  16.931  0.00  0.00    +0.000 A 
ATOM     21  C   UNL     1       7.178   7.161  16.897  0.00  0.00    +0.000 A 
ENDBRANCH  14  16
ENDBRANCH   1  15
TORSDOF 3
ENDMDL
MODEL 2
REMARK VINA RESULT:      -7.0      0.619      1.043
REMARK  Name = 
REMARK  3 active torsions:
REMARK  status: ('A' for Active; 'I' for Inactive)
REMARK    1  A    between atoms: C_1  and  C_16
REMARK    2  A    between atoms: C_2  and  N_3
REMARK    3  A    between atoms: N_7  and  C_8
REMARK                            x       y       z     vdW  Elec       q    Type
REMARK                         _______ _______ _______ _____ _____    ______ ____
ROOT
ATOM      1  N   UNL     1       9.326  11.031  18.972  0.00  0.00    +0.000 N 
ATOM      2  C   UNL     1       9.910  11.605  20.193  0.00  0.00    +0.000 C 
ATOM      3  C   UNL     1      11.430  11.697  20.121  0.00  0.00    +0.000 C 
ATOM      4  C   UNL     1      12.026  12.490  18.954  0.00  0.00    +0.000 C 
ATOM      5  N   UNL     1      11.063  13.382  18.304  0.00  0.00    +0.000 N 
ATOM      6  C   UNL     1      10.165  12.743  17.321  0.00  0.00    +0.000 C 
ATOM      7  C   UNL     1       8.951  12.044  17.959  0.00  0.00    +0.000 C 
ENDROOT
BRANCH   5   8
ATOM      8  C   UNL     1      11.059  14.751  18.491  0.00  0.00    +0.000 A 
ATOM      9  C   UNL     1      10.848  15.326  19.752  0.00  0.00    +0.000 A 
ATOM     10  C   UNL     1      10.848  16.711  19.931  0.00  0.00    +0.000 A 
ATOM     11  C   UNL     1      11.052  17.517  18.829  0.00  0.00    +0.000 A 
ATOM     12  N   UNL     1      11.251  17.033  17.588  0.00  0.00    +0.000 NA
ATOM     13  C   UNL     1      11.247  15.679  17.461  0.00  0.00    +0.000 A 
ENDBRANCH   5   8
BRANCH   1  15
ATOM     14  C   UNL     1       8.127   9.112  17.980  0.00  0.00    +0.000 C 
ATOM     15  C   UNL     1       9.014   9.687  18.805  0.00  0.00    +0.000 C 
BRANCH  14  16
ATOM     16  C   UNL     1       7.853   7.664  17.909  0.00  0.00    +0.000 A 
ATOM     17  C   UNL     1       8.169   6.874  19.023  0.00  0.00    +0.000 A 
ATOM     18  C   UNL     1       7.961   5.493  19.005  0.00  0.00    +0.000 A 
ATOM     19  C   UNL     1       7.415   4.885  17.878  0.00  0.00    +0.000 A 
ATOM     20  C   UNL     1       7.062   5.661  16.777  0.00  0.00    +0.000 A 
ATOM     21  C   UNL     1       7.270   7.045  16.795  0.00  0.00    +0.000 A 
ENDBRANCH  14  16
ENDBRANCH   1  15
TORSDOF 3
ENDMDL
MODEL 3
REMARK VINA RESULT:      -7.0      0.715      1.522
REMARK  Name = 
REMARK  3 active torsions:
REMARK  status: ('A' for Active; 'I' for Inactive)
REMARK    1  A    between atoms: C_1  and  C_16
REMARK    2  A    between atoms: C_2  and  N_3
REMARK    3  A    between atoms: N_7  and  C_8
REMARK                            x       y       z     vdW  Elec       q    Type
REMARK                         _______ _______ _______ _____ _____    ______ ____
ROOT
ATOM      1  N   UNL     1       9.544  11.168  19.133  0.00  0.00    +0.000 N 
ATOM      2  C   UNL     1      10.606  11.598  20.052  0.00  0.00    +0.000 C 
ATOM      3  C   UNL     1      11.978  11.613  19.387  0.00  0.00    +0.000 C 
ATOM      4  C   UNL     1      12.134  12.473  18.129  0.00  0.00    +0.000 C 
ATOM      5  N   UNL     1      11.073  13.471  17.971  0.00  0.00    +0.000 N 
ATOM      6  C   UNL     1       9.810  12.972  17.390  0.00  0.00    +0.000 C 
ATOM      7  C   UNL     1       8.889  12.286  18.415  0.00  0.00    +0.000 C 
ENDROOT
BRANCH   5   8
ATOM      8  C   UNL     1      11.259  14.816  18.226  0.00  0.00    +0.000 A 
ATOM      9  C   UNL     1      11.460  15.303  19.525  0.00  0.00    +0.000 A 
ATOM     10  C   UNL     1      11.651  16.665  19.772  0.00  0.00    +0.000 A 
ATOM     11  C   UNL     1      11.627  17.537  18.703  0.00  0.00    +0.000 A 
ATOM     12  N   UNL     1      11.429  17.140  17.432  0.00  0.00    +0.000 NA
ATOM     13  C   UNL     1      11.252  15.805  17.237  0.00  0.00    +0.000 A 
ENDBRANCH   5   8
BRANCH   1  15
ATOM     14  C   UNL     1       8.417   9.274  18.016  0.00  0.00    +0.000 C 
ATOM     15  C   UNL     1       9.077   9.864  19.023  0.00  0.00    +0.000 C 
BRANCH  14  16
ATOM     16  C   UNL     1       7.938   7.879  18.021  0.00  0.00    +0.000 A 
ATOM     17  C   UNL     1       7.081   7.469  16.990  0.00  0.00    +0.000 A 
ATOM     18  C   UNL     1       6.570   6.169  16.957  0.00  0.00    +0.000 A 
ATOM     19  C   UNL     1       6.925   5.255  17.945  0.00  0.00    +0.000 A 
ATOM     20  C   UNL     1       7.804   5.635  18.956  0.00  0.00    +0.000 A 
ATOM     21  C   UNL     1       8.316   6.938  18.989  0.00  0.00    +0.000 A 
ENDBRANCH  14  16
ENDBRANCH   1  15
TORSDOF 3
ENDMDL
MODEL 4
REMARK VINA RESULT:      -6.8      3.853      9.962
REMARK  Name = 
REMARK  3 active torsions:
REMARK  status: ('A' for Active; 'I' for Inactive)
REMARK    1  A    between atoms: C_1  and  C_16
REMARK    2  A    between atoms: C_2  and  N_3
REMARK    3  A    between atoms: N_7  and  C_8
REMARK                            x       y       z     vdW  Elec       q    Type
REMARK                         _______ _______ _______ _____ _____    ______ ____
ROOT
ATOM      1  N   UNL     1       6.826   7.311  17.389  0.00  0.00    +0.000 N 
ATOM      2  C   UNL     1       7.463   5.989  17.453  0.00  0.00    +0.000 C 
ATOM      3  C   UNL     1       7.531   5.446  18.877  0.00  0.00    +0.000 C 
ATOM      4  C   UNL     1       6.208   5.316  19.637  0.00  0.00    +0.000 C 
ATOM      5  N   UNL     1       5.031   5.344  18.766  0.00  0.00    +0.000 N 
ATOM      6  C   UNL     1       4.578   6.686  18.349  0.00  0.00    +0.000 C 
ATOM      7  C   UNL     1       5.364   7.258  17.155  0.00  0.00    +0.000 C 
ENDROOT
BRANCH   5   8
ATOM      8  C   UNL     1       4.304   4.214  18.445  0.00  0.00    +0.000 A 
ATOM      9  C   UNL     1       3.348   4.214  17.420  0.00  0.00    +0.000 A 
ATOM     10  C   UNL     1       2.620   3.065  17.101  0.00  0.00    +0.000 A 
ATOM     11  C   UNL     1       2.853   1.916  17.829  0.00  0.00    +0.000 A 
ATOM     12  N   UNL     1       3.747   1.847  18.833  0.00  0.00    +0.000 NA
ATOM     13  C   UNL     1       4.436   2.988  19.106  0.00  0.00    +0.000 A 
ENDBRANCH   5   8
BRANCH   1  15
ATOM     14  C   UNL     1       8.308   9.038  18.350  0.00  0.00    +0.000 C 
ATOM     15  C   UNL     1       7.514   8.519  17.404  0.00  0.00    +0.000 C 
BRANCH  14  16
ATOM     16  C   UNL     1       8.967  10.355  18.272  0.00  0.00    +0.000 A 
ATOM     17  C   UNL     1       8.271  11.410  17.665  0.00  0.00    +0.000 A 
ATOM     18  C   UNL     1       8.855  12.673  17.534  0.00  0.00    +0.000 A 
ATOM     19  C   UNL     1      10.136  12.903  18.027  0.00  0.00    +0.000 A 
ATOM     20  C   UNL     1      10.827  11.876  18.666  0.00  0.00    +0.000 A 
ATOM     21  C   UNL     1      10.242  10.611  18.797  0.00  0.00    +0.000 A 
ENDBRANCH  14  16
ENDBRANCH   1  15
TORSDOF 3
ENDMDL
MODEL 5
REMARK VINA RESULT:      -6.8      3.884     10.051
REMARK  Name = 
REMARK  3 active torsions:
REMARK  status: ('A' for Active; 'I' for Inactive)
REMARK    1  A    between atoms: C_1  and  C_16
REMARK    2  A    between atoms: C_2  and  N_3
REMARK    3  A    between atoms: N_7  and  C_8
REMARK                            x       y       z     vdW  Elec       q    Type
REMARK                         _______ _______ _______ _____ _____    ______ ____
ROOT
ATOM      1  N   UNL     1       6.712   7.290  17.350  0.00  0.00    +0.000 N 
ATOM      2  C   UNL     1       7.328   5.956  17.363  0.00  0.00    +0.000 C 
ATOM      3  C   UNL     1       7.407   5.367  18.768  0.00  0.00    +0.000 C 
ATOM      4  C   UNL     1       6.093   5.235  19.543  0.00  0.00    +0.000 C 
ATOM      5  N   UNL     1       4.904   5.309  18.690  0.00  0.00    +0.000 N 
ATOM      6  C   UNL     1       4.468   6.671  18.322  0.00  0.00    +0.000 C 
ATOM      7  C   UNL     1       5.247   7.267  17.135  0.00  0.00    +0.000 C 
ENDROOT
BRANCH   5   8
ATOM      8  C   UNL     1       4.154   4.202  18.344  0.00  0.00    +0.000 A 
ATOM      9  C   UNL     1       4.372   2.946  18.929  0.00  0.00    +0.000 A 
ATOM     10  C   UNL     1       3.606   1.833  18.574  0.00  0.00    +0.000 A 
ATOM     11  C   UNL     1       2.625   1.989  17.617  0.00  0.00    +0.000 A 
ATOM     12  N   UNL     1       2.368   3.161  17.007  0.00  0.00    +0.000 NA
ATOM     13  C   UNL     1       3.134   4.219  17.386  0.00  0.00    +0.000 A 
ENDBRANCH   5   8
BRANCH   1  15
ATOM     14  C   UNL     1       8.249   8.954  18.336  0.00  0.00    +0.000 C 
ATOM     15  C   UNL     1       7.420   8.485  17.393  0.00  0.00    +0.000 C 
BRANCH  14  16
ATOM     16  C   UNL     1       8.928  10.263  18.291  0.00  0.00    +0.000 A 
ATOM     17  C   UNL     1       8.275  11.326  17.652  0.00  0.00    +0.000 A 
ATOM     18  C   UNL     1       8.880  12.582  17.550  0.00  0.00    +0.000 A 
ATOM     19  C   UNL     1      10.139  12.796  18.106  0.00  0.00    +0.000 A 
ATOM     20  C   UNL     1      10.784  11.760  18.777  0.00  0.00    +0.000 A 
ATOM     21  C   UNL     1      10.178  10.502  18.878  0.00  0.00    +0.000 A 
ENDBRANCH  14  16
ENDBRANCH   1  15
TORSDOF 3
ENDMDL
MODEL 6
REMARK VINA RESULT:      -6.8      0.393      1.118
REMARK  Name = 
REMARK  3 active torsions:
REMARK  status: ('A' for Active; 'I' for Inactive)
REMARK    1  A    between atoms: C_1  and  C_16
REMARK    2  A    between atoms: C_2  and  N_3
REMARK    3  A    between atoms: N_7  and  C_8
REMARK                            x       y       z     vdW  Elec       q    Type
REMARK                         _______ _______ _______ _____ _____    ______ ____
ROOT
ATOM      1  N   UNL     1       9.465  11.110  19.239  0.00  0.00    +0.000 N 
ATOM      2  C   UNL     1      10.375  11.589  20.289  0.00  0.00    +0.000 C 
ATOM      3  C   UNL     1      11.821  11.669  19.812  0.00  0.00    +0.000 C 
ATOM      4  C   UNL     1      12.102  12.537  18.581  0.00  0.00    +0.000 C 
ATOM      5  N   UNL     1      11.026  13.484  18.279  0.00  0.00    +0.000 N 
ATOM      6  C   UNL     1       9.876  12.928  17.538  0.00  0.00    +0.000 C 
ATOM      7  C   UNL     1       8.860  12.197  18.435  0.00  0.00    +0.000 C 
ENDROOT
BRANCH   5   8
ATOM      8  C   UNL     1      11.113  14.836  18.550  0.00  0.00    +0.000 A 
ATOM      9  C   UNL     1      10.490  15.796  17.741  0.00  0.00    +0.000 A 
ATOM     10  C   UNL     1      10.582  17.161  18.025  0.00  0.00    +0.000 A 
ATOM     11  C   UNL     1      11.316  17.555  19.126  0.00  0.00    +0.000 A 
ATOM     12  N   UNL     1      11.948  16.689  19.939  0.00  0.00    +0.000 NA
ATOM     13  C   UNL     1      11.828  15.370  19.628  0.00  0.00    +0.000 A 
ENDBRANCH   5   8
BRANCH   1  15
ATOM     14  C   UNL     1       8.352   9.222  18.100  0.00  0.00    +0.000 C 
ATOM     15  C   UNL     1       9.079   9.786  19.074  0.00  0.00    +0.000 C 
BRANCH  14  16
ATOM     16  C   UNL     1       7.972   7.798  18.043  0.00  0.00    +0.000 A 
ATOM     17  C   UNL     1       7.296   7.337  16.905  0.00  0.00    +0.000 A 
ATOM     18  C   UNL     1       6.884   6.006  16.806  0.00  0.00    +0.000 A 
ATOM     19  C   UNL     1       7.160   5.112  17.837  0.00  0.00    +0.000 A 
ATOM     20  C   UNL     1       7.862   5.545  18.958  0.00  0.00    +0.000 A 
ATOM     21  C   UNL     1       8.276   6.879  19.057  0.00  0.00    +0.000 A 
ENDBRANCH  14  16
ENDBRANCH   1  15
TORSDOF 3
ENDMDL
MODEL 7
REMARK VINA RESULT:      -6.7      3.877      9.989
REMARK  Name = 
REMARK  3 active torsions:
REMARK  status: ('A' for Active; 'I' for Inactive)
REMARK    1  A    between atoms: C_1  and  C_16
REMARK    2  A    between atoms: C_2  and  N_3
REMARK    3  A    between atoms: N_7  and  C_8
REMARK                            x       y       z     vdW  Elec       q    Type
REMARK                         _______ _______ _______ _____ _____    ______ ____
ROOT
ATOM      1  N   UNL     1       6.777   7.261  17.366  0.00  0.00    +0.000 N 
ATOM      2  C   UNL     1       7.377   5.927  17.513  0.00  0.00    +0.000 C 
ATOM      3  C   UNL     1       7.332   5.426  18.952  0.00  0.00    +0.000 C 
ATOM      4  C   UNL     1       5.956   5.347  19.621  0.00  0.00    +0.000 C 
ATOM      5  N   UNL     1       4.844   5.374  18.668  0.00  0.00    +0.000 N 
ATOM      6  C   UNL     1       4.454   6.713  18.182  0.00  0.00    +0.000 C 
ATOM      7  C   UNL     1       5.335   7.232  17.031  0.00  0.00    +0.000 C 
ENDROOT
BRANCH   5   8
ATOM      8  C   UNL     1       4.115   4.251  18.328  0.00  0.00    +0.000 A 
ATOM      9  C   UNL     1       4.446   2.978  18.813  0.00  0.00    +0.000 A 
ATOM     10  C   UNL     1       3.700   1.849  18.466  0.00  0.00    +0.000 A 
ATOM     11  C   UNL     1       2.624   2.007  17.617  0.00  0.00    +0.000 A 
ATOM     12  N   UNL     1       2.256   3.197  17.106  0.00  0.00    +0.000 NA
ATOM     13  C   UNL     1       3.007   4.270  17.474  0.00  0.00    +0.000 A 
ENDBRANCH   5   8
BRANCH   1  15
ATOM     14  C   UNL     1       8.231   8.982  18.380  0.00  0.00    +0.000 C 
ATOM     15  C   UNL     1       7.490   8.453  17.396  0.00  0.00    +0.000 C 
BRANCH  14  16
ATOM     16  C   UNL     1       8.925  10.282  18.312  0.00  0.00    +0.000 A 
ATOM     17  C   UNL     1      10.142  10.420  18.994  0.00  0.00    +0.000 A 
ATOM     18  C   UNL     1      10.831  11.635  18.992  0.00  0.00    +0.000 A 
ATOM     19  C   UNL     1      10.321  12.725  18.291  0.00  0.00    +0.000 A 
ATOM     20  C   UNL     1       9.131  12.594  17.580  0.00  0.00    +0.000 A 
ATOM     21  C   UNL     1       8.441  11.376  17.582  0.00  0.00    +0.000 A 
ENDBRANCH  14  16
ENDBRANCH   1  15
TORSDOF 3
ENDMDL
MODEL 8
REMARK VINA RESULT:      -6.7      3.841      9.908
REMARK  Name = 
REMARK  3 active torsions:
REMARK  status: ('A' for Active; 'I' for Inactive)
REMARK    1  A    between atoms: C_1  and  C_16
REMARK    2  A    between atoms: C_2  and  N_3
REMARK    3  A    between atoms: N_7  and  C_8
REMARK                            x       y       z     vdW  Elec       q    Type
REMARK                         _______ _______ _______ _____ _____    ______ ____
ROOT
ATOM      1  N   UNL     1       6.719   7.425  17.442  0.00  0.00    +0.000 N 
ATOM      2  C   UNL     1       7.379   6.115  17.344  0.00  0.00    +0.000 C 
ATOM      3  C   UNL     1       7.589   5.468  18.709  0.00  0.00    +0.000 C 
ATOM      4  C   UNL     1       6.345   5.251  19.576  0.00  0.00    +0.000 C 
ATOM      5  N   UNL     1       5.091   5.319  18.822  0.00  0.00    +0.000 N 
ATOM      6  C   UNL     1       4.581   6.678  18.553  0.00  0.00    +0.000 C 
ATOM      7  C   UNL     1       5.243   7.356  17.340  0.00  0.00    +0.000 C 
ENDROOT
BRANCH   5   8
ATOM      8  C   UNL     1       4.354   4.200  18.482  0.00  0.00    +0.000 A 
ATOM      9  C   UNL     1       3.460   4.201  17.403  0.00  0.00    +0.000 A 
ATOM     10  C   UNL     1       2.722   3.064  17.065  0.00  0.00    +0.000 A 
ATOM     11  C   UNL     1       2.882   1.926  17.829  0.00  0.00    +0.000 A 
ATOM     12  N   UNL     1       3.715   1.857  18.884  0.00  0.00    +0.000 NA
ATOM     13  C   UNL     1       4.416   2.986  19.174  0.00  0.00    +0.000 A 
ENDBRANCH   5   8
BRANCH   1  15
ATOM     14  C   UNL     1       8.345   9.062  18.326  0.00  0.00    +0.000 C 
ATOM     15  C   UNL     1       7.387   8.642  17.487  0.00  0.00    +0.000 C 
BRANCH  14  16
ATOM     16  C   UNL     1       8.966  10.399  18.302  0.00  0.00    +0.000 A 
ATOM     17  C   UNL     1      10.172  10.583  18.991  0.00  0.00    +0.000 A 
ATOM     18  C   UNL     1      10.793  11.834  19.030  0.00  0.00    +0.000 A 
ATOM     19  C   UNL     1      10.225  12.915  18.362  0.00  0.00    +0.000 A 
ATOM     20  C   UNL     1       9.046  12.741  17.641  0.00  0.00    +0.000 A 
ATOM     21  C   UNL     1       8.424  11.487  17.603  0.00  0.00    +0.000 A 
ENDBRANCH  14  16
ENDBRANCH   1  15
TORSDOF 3
ENDMDL
MODEL 9
REMARK VINA RESULT:      -6.5      0.987      1.627
REMARK  Name = 
REMARK  3 active torsions:
REMARK  status: ('A' for Active; 'I' for Inactive)
REMARK    1  A    between atoms: C_1  and  C_16
REMARK    2  A    between atoms: C_2  and  N_3
REMARK    3  A    between atoms: N_7  and  C_8
REMARK                            x       y       z     vdW  Elec       q    Type
REMARK                         _______ _______ _______ _____ _____    ______ ____
ROOT
ATOM      1  N   UNL     1       9.845  11.132  19.353  0.00  0.00    +0.000 N 
ATOM      2  C   UNL     1      11.262  11.453  19.137  0.00  0.00    +0.000 C 
ATOM      3  C   UNL     1      11.520  12.036  17.752  0.00  0.00    +0.000 C 
ATOM      4  C   UNL     1      10.737  13.296  17.369  0.00  0.00    +0.000 C 
ATOM      5  N   UNL     1      10.160  13.994  18.519  0.00  0.00    +0.000 N 
ATOM      6  C   UNL     1       8.887  13.443  19.027  0.00  0.00    +0.000 C 
ATOM      7  C   UNL     1       9.070  12.236  19.965  0.00  0.00    +0.000 C 
ENDROOT
BRANCH   5   8
ATOM      8  C   UNL     1      10.686  15.164  19.033  0.00  0.00    +0.000 A 
ATOM      9  C   UNL     1      11.093  15.270  20.370  0.00  0.00    +0.000 A 
ATOM     10  C   UNL     1      11.627  16.456  20.879  0.00  0.00    +0.000 A 
ATOM     11  C   UNL     1      11.738  17.542  20.035  0.00  0.00    +0.000 A 
ATOM     12  N   UNL     1      11.358  17.515  18.744  0.00  0.00    +0.000 NA
ATOM     13  C   UNL     1      10.848  16.338  18.289  0.00  0.00    +0.000 A 
ENDBRANCH   5   8
BRANCH   1  15
ATOM     14  C   UNL     1       8.490   9.452  18.150  0.00  0.00    +0.000 C 
ATOM     15  C   UNL     1       9.280   9.879  19.145  0.00  0.00    +0.000 C 
BRANCH  14  16
ATOM     16  C   UNL     1       7.918   8.097  18.045  0.00  0.00    +0.000 A 
ATOM     17  C   UNL     1       8.366   7.117  18.942  0.00  0.00    +0.000 A 
ATOM     18  C   UNL     1       7.884   5.808  18.874  0.00  0.00    +0.000 A 
ATOM     19  C   UNL     1       6.931   5.465  17.919  0.00  0.00    +0.000 A 
ATOM     20  C   UNL     1       6.447   6.435  17.044  0.00  0.00    +0.000 A 
ATOM     21  C   UNL     1       6.931   7.748  17.113  0.00  0.00    +0.000 A 
ENDBRANCH  14  16
ENDBRANCH   1  15
TORSDOF 3
ENDMDL
