MODEL 1
REMARK VINA RESULT:      -7.0      0.000      0.000
REMARK  Name = 
REMARK  9 active torsions:
REMARK  status: ('A' for Active; 'I' for Inactive)
REMARK    1  A    between atoms: C_1  and  O_2
REMARK    2  A    between atoms: O_2  and  C_3
REMARK    3  A    between atoms: C_3  and  C_5
REMARK    4  A    between atoms: C_6  and  S_7
REMARK    5  A    between atoms: S_7  and  C_8
REMARK    6  A    between atoms: C_10  and  C_11
REMARK    7  A    between atoms: N_17  and  C_18
REMARK    8  A    between atoms: C_18  and  C_19
REMARK    9  A    between atoms: C_19  and  O_21
REMARK                            x       y       z     vdW  Elec       q    Type
REMARK                         _______ _______ _______ _____ _____    ______ ____
ROOT
ATOM      1  C   UNL     1       2.950   4.711  20.004  0.00  0.00    +0.000 A 
ATOM      2  C   UNL     1       3.999   4.096  19.420  0.00  0.00    +0.000 A 
ATOM      3  N   UNL     1       4.854   4.771  18.593  0.00  0.00    +0.000 NA
ATOM      4  C   UNL     1       4.597   5.966  18.165  0.00  0.00    +0.000 A 
ATOM      5  N   UNL     1       3.432   6.609  18.525  0.00  0.00    +0.000 N 
ATOM      6  C   UNL     1       2.801   6.140  19.657  0.00  0.00    +0.000 A 
ATOM      7  O   UNL     1       2.103   6.880  20.348  0.00  0.00    +0.000 OA
ENDROOT
BRANCH   4   8
ATOM      8  C   UNL     1       5.664   6.542  17.165  0.00  0.00    +0.000 C 
ATOM      9  C   UNL     1       7.130   6.099  17.245  0.00  0.00    +0.000 C 
ATOM     10  C   UNL     1       7.299   4.606  17.028  0.00  0.00    +0.000 C 
ATOM     11  C   UNL     1       6.696   4.122  15.713  0.00  0.00    +0.000 C 
ATOM     12  C   UNL     1       5.359   4.761  15.339  0.00  0.00    +0.000 C 
ATOM     13  C   UNL     1       5.248   6.250  15.692  0.00  0.00    +0.000 C 
ENDBRANCH   4   8
BRANCH   1  14
ATOM     14  C   UNL     1       1.906   4.105  20.861  0.00  0.00    +0.000 C 
ATOM     15  O   UNL     1       2.148   3.694  21.985  0.00  0.00    +0.000 OA
BRANCH  14  17
ATOM     16  C   UNL     1       0.543   2.934  19.324  0.00  0.00    +0.000 C 
ATOM     17  O   UNL     1       0.710   4.025  20.236  0.00  0.00    +0.000 OA
ENDBRANCH  14  17
ENDBRANCH   1  14
BRANCH   2  18
ATOM     18  S   UNL     1       4.294   2.367  19.676  0.00  0.00    +0.000 S 
ATOM     19  C   UNL     1       3.615   1.629  18.172  0.00  0.00    +0.000 C 
ENDBRANCH   2  18
BRANCH   5  20
ATOM     20  C   UNL     1       3.083   7.968  18.092  0.00  0.00    +0.000 C 
BRANCH  20  21
ATOM     21  C   UNL     1       1.696   8.612  18.259  0.00  0.00    +0.000 C 
ATOM     22  O   UNL     1       0.870   8.572  17.348  0.00  0.00    +0.000 OA
BRANCH  21  23
ATOM     23  O   UNL     1       1.437   9.317  19.373  0.00  0.00    +0.000 OA
ATOM     24  H   UNL     1       1.769  10.245  19.368  0.00  0.00    +0.000 HD
ENDBRANCH  21  23
ENDBRANCH  20  21
ENDBRANCH   5  20
TORSDOF 7
ENDMDL
MODEL 2
REMARK VINA RESULT:      -7.0      1.020      1.409
REMARK  Name = 
REMARK  9 active torsions:
REMARK  status: ('A' for Active; 'I' for Inactive)
REMARK    1  A    between atoms: C_1  and  O_2
REMARK    2  A    between atoms: O_2  and  C_3
REMARK    3  A    between atoms: C_3  and  C_5
REMARK    4  A    between atoms: C_6  and  S_7
REMARK    5  A    between atoms: S_7  and  C_8
REMARK    6  A    between atoms: C_10  and  C_11
REMARK    7  A    between atoms: N_17  and  C_18
REMARK    8  A    between atoms: C_18  and  C_19
REMARK    9  A    between atoms: C_19  and  O_21
REMARK                            x       y       z     vdW  Elec       q    Type
REMARK                         _______ _______ _______ _____ _____    ______ ____
ROOT
ATOM      1  C   UNL     1       2.438   4.617  19.272  0.00  0.00    +0.000 A 
ATOM      2  C   UNL     1       3.200   3.966  18.371  0.00  0.00    +0.000 A 
ATOM      3  N   UNL     1       4.072   4.635  17.556  0.00  0.00    +0.000 NA
ATOM      4  C   UNL     1       4.069   5.926  17.457  0.00  0.00    +0.000 A 
ATOM      5  N   UNL     1       3.170   6.686  18.174  0.00  0.00    +0.000 N 
ATOM      6  C   UNL     1       2.609   6.086  19.281  0.00  0.00    +0.000 A 
ATOM      7  O   UNL     1       2.228   6.752  20.241  0.00  0.00    +0.000 OA
ENDROOT
BRANCH   4   8
ATOM      8  C   UNL     1       5.092   6.501  16.413  0.00  0.00    +0.000 C 
ATOM      9  C   UNL     1       6.463   7.020  16.865  0.00  0.00    +0.000 C 
ATOM     10  C   UNL     1       7.299   5.945  17.537  0.00  0.00    +0.000 C 
ATOM     11  C   UNL     1       7.490   4.707  16.665  0.00  0.00    +0.000 C 
ATOM     12  C   UNL     1       6.256   4.276  15.874  0.00  0.00    +0.000 C 
ATOM     13  C   UNL     1       5.418   5.437  15.322  0.00  0.00    +0.000 C 
ENDBRANCH   4   8
BRANCH   1  14
ATOM     14  C   UNL     1       1.408   4.046  20.170  0.00  0.00    +0.000 C 
ATOM     15  O   UNL     1       0.261   3.852  19.801  0.00  0.00    +0.000 OA
BRANCH  14  17
ATOM     16  C   UNL     1       1.680   2.514  21.950  0.00  0.00    +0.000 C 
ATOM     17  O   UNL     1       1.878   3.828  21.418  0.00  0.00    +0.000 OA
ENDBRANCH  14  17
ENDBRANCH   1  14
BRANCH   2  18
ATOM     18  S   UNL     1       3.079   2.208  18.181  0.00  0.00    +0.000 S 
ATOM     19  C   UNL     1       4.227   1.600  19.437  0.00  0.00    +0.000 C 
ENDBRANCH   2  18
BRANCH   5  20
ATOM     20  C   UNL     1       3.119   8.152  18.126  0.00  0.00    +0.000 C 
BRANCH  20  21
ATOM     21  C   UNL     1       1.884   8.975  17.722  0.00  0.00    +0.000 C 
ATOM     22  O   UNL     1       0.781   8.440  17.608  0.00  0.00    +0.000 OA
BRANCH  21  23
ATOM     23  O   UNL     1       2.044  10.265  17.386  0.00  0.00    +0.000 OA
ATOM     24  H   UNL     1       2.980  10.562  17.297  0.00  0.00    +0.000 HD
ENDBRANCH  21  23
ENDBRANCH  20  21
ENDBRANCH   5  20
TORSDOF 7
ENDMDL
MODEL 3
REMARK VINA RESULT:      -6.7      2.200      4.955
REMARK  Name = 
REMARK  9 active torsions:
REMARK  status: ('A' for Active; 'I' for Inactive)
REMARK    1  A    between atoms: C_1  and  O_2
REMARK    2  A    between atoms: O_2  and  C_3
REMARK    3  A    between atoms: C_3  and  C_5
REMARK    4  A    between atoms: C_6  and  S_7
REMARK    5  A    between atoms: S_7  and  C_8
REMARK    6  A    between atoms: C_10  and  C_11
REMARK    7  A    between atoms: N_17  and  C_18
REMARK    8  A    between atoms: C_18  and  C_19
REMARK    9  A    between atoms: C_19  and  O_21
REMARK                            x       y       z     vdW  Elec       q    Type
REMARK                         _______ _______ _______ _____ _____    ______ ____
ROOT
ATOM      1  C   UNL     1       5.041   6.280  17.728  0.00  0.00    +0.000 A 
ATOM      2  C   UNL     1       5.459   5.198  18.415  0.00  0.00    +0.000 A 
ATOM      3  N   UNL     1       4.638   4.548  19.296  0.00  0.00    +0.000 NA
ATOM      4  C   UNL     1       3.502   5.043  19.670  0.00  0.00    +0.000 A 
ATOM      5  N   UNL     1       3.073   6.265  19.195  0.00  0.00    +0.000 N 
ATOM      6  C   UNL     1       3.655   6.702  18.025  0.00  0.00    +0.000 A 
ATOM      7  O   UNL     1       3.054   7.452  17.258  0.00  0.00    +0.000 OA
ENDROOT
BRANCH   4   8
ATOM      8  C   UNL     1       2.741   4.185  20.744  0.00  0.00    +0.000 C 
ATOM      9  C   UNL     1       1.213   4.059  20.704  0.00  0.00    +0.000 C 
ATOM     10  C   UNL     1       0.715   3.428  19.415  0.00  0.00    +0.000 C 
ATOM     11  C   UNL     1       1.343   2.065  19.137  0.00  0.00    +0.000 C 
ATOM     12  C   UNL     1       2.831   1.957  19.468  0.00  0.00    +0.000 C 
ATOM     13  C   UNL     1       3.255   2.715  20.734  0.00  0.00    +0.000 C 
ENDBRANCH   4   8
BRANCH   1  14
ATOM     14  C   UNL     1       5.826   7.124  16.799  0.00  0.00    +0.000 C 
ATOM     15  O   UNL     1       6.654   7.928  17.195  0.00  0.00    +0.000 OA
BRANCH  14  17
ATOM     16  C   UNL     1       5.569   5.584  15.023  0.00  0.00    +0.000 C 
ATOM     17  O   UNL     1       5.478   6.928  15.507  0.00  0.00    +0.000 OA
ENDBRANCH  14  17
ENDBRANCH   1  14
BRANCH   2  18
ATOM     18  S   UNL     1       7.114   4.590  18.229  0.00  0.00    +0.000 S 
ATOM     19  C   UNL     1       8.039   5.613  19.396  0.00  0.00    +0.000 C 
ENDBRANCH   2  18
BRANCH   5  20
ATOM     20  C   UNL     1       1.792   6.879  19.561  0.00  0.00    +0.000 C 
BRANCH  20  21
ATOM     21  C   UNL     1       1.641   8.172  20.380  0.00  0.00    +0.000 C 
ATOM     22  O   UNL     1       1.422   9.248  19.823  0.00  0.00    +0.000 OA
BRANCH  21  23
ATOM     23  O   UNL     1       1.862   8.133  21.704  0.00  0.00    +0.000 OA
ATOM     24  H   UNL     1       1.177   7.655  22.229  0.00  0.00    +0.000 HD
ENDBRANCH  21  23
ENDBRANCH  20  21
ENDBRANCH   5  20
TORSDOF 7
ENDMDL
MODEL 4
REMARK VINA RESULT:      -6.5      3.509      6.345
REMARK  Name = 
REMARK  9 active torsions:
REMARK  status: ('A' for Active; 'I' for Inactive)
REMARK    1  A    between atoms: C_1  and  O_2
REMARK    2  A    between atoms: O_2  and  C_3
REMARK    3  A    between atoms: C_3  and  C_5
REMARK    4  A    between atoms: C_6  and  S_7
REMARK    5  A    between atoms: S_7  and  C_8
REMARK    6  A    between atoms: C_10  and  C_11
REMARK    7  A    between atoms: N_17  and  C_18
REMARK    8  A    between atoms: C_18  and  C_19
REMARK    9  A    between atoms: C_19  and  O_21
REMARK                            x       y       z     vdW  Elec       q    Type
REMARK                         _______ _______ _______ _____ _____    ______ ____
ROOT
ATOM      1  C   UNL     1       6.075   4.604  17.454  0.00  0.00    +0.000 A 
ATOM      2  C   UNL     1       5.103   4.539  16.522  0.00  0.00    +0.000 A 
ATOM      3  N   UNL     1       3.865   4.036  16.813  0.00  0.00    +0.000 NA
ATOM      4  C   UNL     1       3.619   3.414  17.921  0.00  0.00    +0.000 A 
ATOM      5  N   UNL     1       4.611   3.226  18.861  0.00  0.00    +0.000 N 
ATOM      6  C   UNL     1       5.695   4.073  18.781  0.00  0.00    +0.000 A 
ATOM      7  O   UNL     1       6.354   4.357  19.779  0.00  0.00    +0.000 OA
ENDROOT
BRANCH   4   8
ATOM      8  C   UNL     1       2.159   2.844  18.037  0.00  0.00    +0.000 C 
ATOM      9  C   UNL     1       1.721   2.062  19.282  0.00  0.00    +0.000 C 
ATOM     10  C   UNL     1       1.815   2.890  20.551  0.00  0.00    +0.000 C 
ATOM     11  C   UNL     1       1.029   4.196  20.471  0.00  0.00    +0.000 C 
ATOM     12  C   UNL     1       1.110   4.919  19.127  0.00  0.00    +0.000 C 
ATOM     13  C   UNL     1       1.112   3.989  17.906  0.00  0.00    +0.000 C 
ENDBRANCH   4   8
BRANCH   1  14
ATOM     14  C   UNL     1       7.474   5.056  17.277  0.00  0.00    +0.000 C 
ATOM     15  O   UNL     1       8.415   4.279  17.305  0.00  0.00    +0.000 OA
BRANCH  14  17
ATOM     16  C   UNL     1       7.911   7.134  18.316  0.00  0.00    +0.000 C 
ATOM     17  O   UNL     1       7.567   6.398  17.138  0.00  0.00    +0.000 OA
ENDBRANCH  14  17
ENDBRANCH   1  14
BRANCH   2  18
ATOM     18  S   UNL     1       5.404   5.076  14.859  0.00  0.00    +0.000 S 
ATOM     19  C   UNL     1       6.292   3.671  14.151  0.00  0.00    +0.000 C 
ENDBRANCH   2  18
BRANCH   5  20
ATOM     20  C   UNL     1       4.400   2.547  20.145  0.00  0.00    +0.000 C 
BRANCH  20  21
ATOM     21  C   UNL     1       5.111   1.255  20.581  0.00  0.00    +0.000 C 
ATOM     22  O   UNL     1       5.659   1.177  21.681  0.00  0.00    +0.000 OA
BRANCH  21  23
ATOM     23  O   UNL     1       5.224   0.247  19.700  0.00  0.00    +0.000 OA
ATOM     24  H   UNL     1       5.140   0.507  18.753  0.00  0.00    +0.000 HD
ENDBRANCH  21  23
ENDBRANCH  20  21
ENDBRANCH   5  20
TORSDOF 7
ENDMDL
MODEL 5
REMARK VINA RESULT:      -6.4      2.230      5.123
REMARK  Name = 
REMARK  9 active torsions:
REMARK  status: ('A' for Active; 'I' for Inactive)
REMARK    1  A    between atoms: C_1  and  O_2
REMARK    2  A    between atoms: O_2  and  C_3
REMARK    3  A    between atoms: C_3  and  C_5
REMARK    4  A    between atoms: C_6  and  S_7
REMARK    5  A    between atoms: S_7  and  C_8
REMARK    6  A    between atoms: C_10  and  C_11
REMARK    7  A    between atoms: N_17  and  C_18
REMARK    8  A    between atoms: C_18  and  C_19
REMARK    9  A    between atoms: C_19  and  O_21
REMARK                            x       y       z     vdW  Elec       q    Type
REMARK                         _______ _______ _______ _____ _____    ______ ____
ROOT
ATOM      1  C   UNL     1       4.958   6.310  17.848  0.00  0.00    +0.000 A 
ATOM      2  C   UNL     1       5.374   5.191  18.472  0.00  0.00    +0.000 A 
ATOM      3  N   UNL     1       4.558   4.505  19.330  0.00  0.00    +0.000 NA
ATOM      4  C   UNL     1       3.433   4.992  19.746  0.00  0.00    +0.000 A 
ATOM      5  N   UNL     1       3.011   6.240  19.340  0.00  0.00    +0.000 N 
ATOM      6  C   UNL     1       3.581   6.731  18.185  0.00  0.00    +0.000 A 
ATOM      7  O   UNL     1       2.978   7.525  17.467  0.00  0.00    +0.000 OA
ENDROOT
BRANCH   4   8
ATOM      8  C   UNL     1       2.677   4.088  20.785  0.00  0.00    +0.000 C 
ATOM      9  C   UNL     1       1.150   3.954  20.742  0.00  0.00    +0.000 C 
ATOM     10  C   UNL     1       0.655   3.372  19.429  0.00  0.00    +0.000 C 
ATOM     11  C   UNL     1       1.290   2.024  19.098  0.00  0.00    +0.000 C 
ATOM     12  C   UNL     1       2.779   1.913  19.423  0.00  0.00    +0.000 C 
ATOM     13  C   UNL     1       3.200   2.622  20.718  0.00  0.00    +0.000 C 
ENDBRANCH   4   8
BRANCH   1  14
ATOM     14  C   UNL     1       5.739   7.193  16.951  0.00  0.00    +0.000 C 
ATOM     15  O   UNL     1       5.834   6.980  15.753  0.00  0.00    +0.000 OA
BRANCH  14  17
ATOM     16  C   UNL     1       7.775   8.265  17.495  0.00  0.00    +0.000 C 
ATOM     17  O   UNL     1       6.352   8.194  17.622  0.00  0.00    +0.000 OA
ENDBRANCH  14  17
ENDBRANCH   1  14
BRANCH   2  18
ATOM     18  S   UNL     1       7.019   4.576  18.232  0.00  0.00    +0.000 S 
ATOM     19  C   UNL     1       7.951   5.444  19.514  0.00  0.00    +0.000 C 
ENDBRANCH   2  18
BRANCH   5  20
ATOM     20  C   UNL     1       1.741   6.848  19.756  0.00  0.00    +0.000 C 
BRANCH  20  21
ATOM     21  C   UNL     1       1.612   8.183  20.507  0.00  0.00    +0.000 C 
ATOM     22  O   UNL     1       1.347   9.223  19.904  0.00  0.00    +0.000 OA
BRANCH  21  23
ATOM     23  O   UNL     1       1.902   8.222  21.818  0.00  0.00    +0.000 OA
ATOM     24  H   UNL     1       1.596   9.030  22.292  0.00  0.00    +0.000 HD
ENDBRANCH  21  23
ENDBRANCH  20  21
ENDBRANCH   5  20
TORSDOF 7
ENDMDL
MODEL 6
REMARK VINA RESULT:      -6.4      2.636      5.144
REMARK  Name = 
REMARK  9 active torsions:
REMARK  status: ('A' for Active; 'I' for Inactive)
REMARK    1  A    between atoms: C_1  and  O_2
REMARK    2  A    between atoms: O_2  and  C_3
REMARK    3  A    between atoms: C_3  and  C_5
REMARK    4  A    between atoms: C_6  and  S_7
REMARK    5  A    between atoms: S_7  and  C_8
REMARK    6  A    between atoms: C_10  and  C_11
REMARK    7  A    between atoms: N_17  and  C_18
REMARK    8  A    between atoms: C_18  and  C_19
REMARK    9  A    between atoms: C_19  and  O_21
REMARK                            x       y       z     vdW  Elec       q    Type
REMARK                         _______ _______ _______ _____ _____    ______ ____
ROOT
ATOM      1  C   UNL     1       5.941   6.138  17.497  0.00  0.00    +0.000 A 
ATOM      2  C   UNL     1       6.149   5.179  18.422  0.00  0.00    +0.000 A 
ATOM      3  N   UNL     1       5.116   4.637  19.136  0.00  0.00    +0.000 NA
ATOM      4  C   UNL     1       3.925   5.146  19.116  0.00  0.00    +0.000 A 
ATOM      5  N   UNL     1       3.651   6.273  18.370  0.00  0.00    +0.000 N 
ATOM      6  C   UNL     1       4.531   6.556  17.347  0.00  0.00    +0.000 A 
ATOM      7  O   UNL     1       4.165   7.170  16.347  0.00  0.00    +0.000 OA
ENDROOT
BRANCH   4   8
ATOM      8  C   UNL     1       2.895   4.427  20.060  0.00  0.00    +0.000 C 
ATOM      9  C   UNL     1       1.427   4.275  19.644  0.00  0.00    +0.000 C 
ATOM     10  C   UNL     1       1.265   3.472  18.365  0.00  0.00    +0.000 C 
ATOM     11  C   UNL     1       1.915   2.093  18.441  0.00  0.00    +0.000 C 
ATOM     12  C   UNL     1       3.264   2.052  19.157  0.00  0.00    +0.000 C 
ATOM     13  C   UNL     1       3.363   2.976  20.378  0.00  0.00    +0.000 C 
ENDBRANCH   4   8
BRANCH   1  14
ATOM     14  C   UNL     1       6.956   6.864  16.699  0.00  0.00    +0.000 C 
ATOM     15  O   UNL     1       7.629   6.309  15.847  0.00  0.00    +0.000 OA
BRANCH  14  17
ATOM     16  C   UNL     1       8.163   8.485  17.926  0.00  0.00    +0.000 C 
ATOM     17  O   UNL     1       7.066   8.161  17.066  0.00  0.00    +0.000 OA
ENDBRANCH  14  17
ENDBRANCH   1  14
BRANCH   2  18
ATOM     18  S   UNL     1       7.787   4.602  18.777  0.00  0.00    +0.000 S 
ATOM     19  C   UNL     1       8.257   5.611  20.199  0.00  0.00    +0.000 C 
ENDBRANCH   2  18
BRANCH   5  20
ATOM     20  C   UNL     1       2.324   6.894  18.286  0.00  0.00    +0.000 C 
BRANCH  20  21
ATOM     21  C   UNL     1       2.043   8.393  18.483  0.00  0.00    +0.000 C 
ATOM     22  O   UNL     1       1.558   8.810  19.535  0.00  0.00    +0.000 OA
BRANCH  21  23
ATOM     23  O   UNL     1       2.229   9.230  17.449  0.00  0.00    +0.000 OA
ATOM     24  H   UNL     1       3.170   9.431  17.237  0.00  0.00    +0.000 HD
ENDBRANCH  21  23
ENDBRANCH  20  21
ENDBRANCH   5  20
TORSDOF 7
ENDMDL
MODEL 7
REMARK VINA RESULT:      -6.3      2.873      5.608
REMARK  Name = 
REMARK  9 active torsions:
REMARK  status: ('A' for Active; 'I' for Inactive)
REMARK    1  A    between atoms: C_1  and  O_2
REMARK    2  A    between atoms: O_2  and  C_3
REMARK    3  A    between atoms: C_3  and  C_5
REMARK    4  A    between atoms: C_6  and  S_7
REMARK    5  A    between atoms: S_7  and  C_8
REMARK    6  A    between atoms: C_10  and  C_11
REMARK    7  A    between atoms: N_17  and  C_18
REMARK    8  A    between atoms: C_18  and  C_19
REMARK    9  A    between atoms: C_19  and  O_21
REMARK                            x       y       z     vdW  Elec       q    Type
REMARK                         _______ _______ _______ _____ _____    ______ ____
ROOT
ATOM      1  C   UNL     1       1.671   8.594  19.101  0.00  0.00    +0.000 A 
ATOM      2  C   UNL     1       1.354   7.861  20.187  0.00  0.00    +0.000 A 
ATOM      3  N   UNL     1       1.946   6.653  20.434  0.00  0.00    +0.000 NA
ATOM      4  C   UNL     1       2.681   6.055  19.551  0.00  0.00    +0.000 A 
ATOM      5  N   UNL     1       2.893   6.617  18.310  0.00  0.00    +0.000 N 
ATOM      6  C   UNL     1       2.677   7.975  18.211  0.00  0.00    +0.000 A 
ATOM      7  O   UNL     1       3.279   8.654  17.382  0.00  0.00    +0.000 OA
ENDROOT
BRANCH   4   8
ATOM      8  C   UNL     1       3.209   4.643  19.995  0.00  0.00    +0.000 C 
ATOM      9  C   UNL     1       2.541   3.885  21.148  0.00  0.00    +0.000 C 
ATOM     10  C   UNL     1       1.079   3.580  20.874  0.00  0.00    +0.000 C 
ATOM     11  C   UNL     1       0.864   2.812  19.573  0.00  0.00    +0.000 C 
ATOM     12  C   UNL     1       1.742   3.259  18.405  0.00  0.00    +0.000 C 
ATOM     13  C   UNL     1       3.174   3.645  18.799  0.00  0.00    +0.000 C 
ENDBRANCH   4   8
BRANCH   1  14
ATOM     14  C   UNL     1       1.074   9.876  18.665  0.00  0.00    +0.000 C 
ATOM     15  O   UNL     1       1.458  10.951  19.098  0.00  0.00    +0.000 OA
BRANCH  14  17
ATOM     16  C   UNL     1      -1.167  10.384  18.105  0.00  0.00    +0.000 C 
ATOM     17  O   UNL     1       0.052   9.699  17.798  0.00  0.00    +0.000 OA
ENDBRANCH  14  17
ENDBRANCH   1  14
BRANCH   2  18
ATOM     18  S   UNL     1       0.120   8.423  21.330  0.00  0.00    +0.000 S 
ATOM     19  C   UNL     1       1.097   9.357  22.529  0.00  0.00    +0.000 C 
ENDBRANCH   2  18
BRANCH   5  20
ATOM     20  C   UNL     1       3.727   6.006  17.269  0.00  0.00    +0.000 C 
BRANCH  20  21
ATOM     21  C   UNL     1       5.246   6.205  17.133  0.00  0.00    +0.000 C 
ATOM     22  O   UNL     1       6.019   5.745  17.973  0.00  0.00    +0.000 OA
BRANCH  21  23
ATOM     23  O   UNL     1       5.713   6.983  16.143  0.00  0.00    +0.000 OA
ATOM     24  H   UNL     1       5.029   7.506  15.663  0.00  0.00    +0.000 HD
ENDBRANCH  21  23
ENDBRANCH  20  21
ENDBRANCH   5  20
TORSDOF 7
ENDMDL
MODEL 8
REMARK VINA RESULT:      -6.3      2.118      5.046
REMARK  Name = 
REMARK  9 active torsions:
REMARK  status: ('A' for Active; 'I' for Inactive)
REMARK    1  A    between atoms: C_1  and  O_2
REMARK    2  A    between atoms: O_2  and  C_3
REMARK    3  A    between atoms: C_3  and  C_5
REMARK    4  A    between atoms: C_6  and  S_7
REMARK    5  A    between atoms: S_7  and  C_8
REMARK    6  A    between atoms: C_10  and  C_11
REMARK    7  A    between atoms: N_17  and  C_18
REMARK    8  A    between atoms: C_18  and  C_19
REMARK    9  A    between atoms: C_19  and  O_21
REMARK                            x       y       z     vdW  Elec       q    Type
REMARK                         _______ _______ _______ _____ _____    ______ ____
ROOT
ATOM      1  C   UNL     1       4.830   6.323  17.723  0.00  0.00    +0.000 A 
ATOM      2  C   UNL     1       5.273   5.160  18.241  0.00  0.00    +0.000 A 
ATOM      3  N   UNL     1       4.513   4.429  19.112  0.00  0.00    +0.000 NA
ATOM      4  C   UNL     1       3.430   4.900  19.643  0.00  0.00    +0.000 A 
ATOM      5  N   UNL     1       2.999   6.177  19.351  0.00  0.00    +0.000 N 
ATOM      6  C   UNL     1       3.489   6.736  18.190  0.00  0.00    +0.000 A 
ATOM      7  O   UNL     1       2.847   7.583  17.572  0.00  0.00    +0.000 OA
ENDROOT
BRANCH   4   8
ATOM      8  C   UNL     1       2.740   3.938  20.676  0.00  0.00    +0.000 C 
ATOM      9  C   UNL     1       1.212   3.804  20.720  0.00  0.00    +0.000 C 
ATOM     10  C   UNL     1       0.636   3.294  19.411  0.00  0.00    +0.000 C 
ATOM     11  C   UNL     1       1.247   1.968  18.966  0.00  0.00    +0.000 C 
ATOM     12  C   UNL     1       2.753   1.842  19.192  0.00  0.00    +0.000 C 
ATOM     13  C   UNL     1       3.255   2.480  20.495  0.00  0.00    +0.000 C 
ENDBRANCH   4   8
BRANCH   1  14
ATOM     14  C   UNL     1       5.556   7.253  16.829  0.00  0.00    +0.000 C 
ATOM     15  O   UNL     1       5.504   7.158  15.613  0.00  0.00    +0.000 OA
BRANCH  14  17
ATOM     16  C   UNL     1       7.716   7.966  17.477  0.00  0.00    +0.000 C 
ATOM     17  O   UNL     1       6.297   8.152  17.515  0.00  0.00    +0.000 OA
ENDBRANCH  14  17
ENDBRANCH   1  14
BRANCH   2  18
ATOM     18  S   UNL     1       6.886   4.543  17.838  0.00  0.00    +0.000 S 
ATOM     19  C   UNL     1       6.695   4.056  16.108  0.00  0.00    +0.000 C 
ENDBRANCH   2  18
BRANCH   5  20
ATOM     20  C   UNL     1       1.774   6.771  19.900  0.00  0.00    +0.000 C 
BRANCH  20  21
ATOM     21  C   UNL     1       1.655   8.213  20.421  0.00  0.00    +0.000 C 
ATOM     22  O   UNL     1       1.661   8.448  21.629  0.00  0.00    +0.000 OA
BRANCH  21  23
ATOM     23  O   UNL     1       1.432   9.204  19.543  0.00  0.00    +0.000 OA
ATOM     24  H   UNL     1       1.103   8.916  18.659  0.00  0.00    +0.000 HD
ENDBRANCH  21  23
ENDBRANCH  20  21
ENDBRANCH   5  20
TORSDOF 7
ENDMDL
MODEL 9
REMARK VINA RESULT:      -6.2      8.740     11.650
REMARK  Name = 
REMARK  9 active torsions:
REMARK  status: ('A' for Active; 'I' for Inactive)
REMARK    1  A    between atoms: C_1  and  O_2
REMARK    2  A    between atoms: O_2  and  C_3
REMARK    3  A    between atoms: C_3  and  C_5
REMARK    4  A    between atoms: C_6  and  S_7
REMARK    5  A    between atoms: S_7  and  C_8
REMARK    6  A    between atoms: C_10  and  C_11
REMARK    7  A    between atoms: N_17  and  C_18
REMARK    8  A    between atoms: C_18  and  C_19
REMARK    9  A    between atoms: C_19  and  O_21
REMARK                            x       y       z     vdW  Elec       q    Type
REMARK                         _______ _______ _______ _____ _____    ______ ____
ROOT
ATOM      1  C   UNL     1      -2.375  12.588  21.789  0.00  0.00    +0.000 A 
ATOM      2  C   UNL     1      -2.619  12.303  20.494  0.00  0.00    +0.000 A 
ATOM      3  N   UNL     1      -3.834  12.564  19.921  0.00  0.00    +0.000 NA
ATOM      4  C   UNL     1      -4.868  12.901  20.624  0.00  0.00    +0.000 A 
ATOM      5  N   UNL     1      -4.785  13.005  21.996  0.00  0.00    +0.000 N 
ATOM      6  C   UNL     1      -3.521  13.171  22.520  0.00  0.00    +0.000 A 
ATOM      7  O   UNL     1      -3.347  13.759  23.586  0.00  0.00    +0.000 OA
ENDROOT
BRANCH   4   8
ATOM      8  C   UNL     1      -6.188  13.083  19.792  0.00  0.00    +0.000 C 
ATOM      9  C   UNL     1      -6.216  12.771  18.290  0.00  0.00    +0.000 C 
ATOM     10  C   UNL     1      -5.877  11.320  17.992  0.00  0.00    +0.000 C 
ATOM     11  C   UNL     1      -6.777  10.334  18.730  0.00  0.00    +0.000 C 
ATOM     12  C   UNL     1      -7.113  10.717  20.171  0.00  0.00    +0.000 C 
ATOM     13  C   UNL     1      -7.337  12.219  20.391  0.00  0.00    +0.000 C 
ENDBRANCH   4   8
BRANCH   1  14
ATOM     14  C   UNL     1      -1.145  12.305  22.564  0.00  0.00    +0.000 C 
ATOM     15  O   UNL     1      -0.134  12.977  22.443  0.00  0.00    +0.000 OA
BRANCH  14  17
ATOM     16  C   UNL     1      -0.520  10.061  22.966  0.00  0.00    +0.000 C 
ATOM     17  O   UNL     1      -1.274  11.214  23.353  0.00  0.00    +0.000 OA
ENDBRANCH  14  17
ENDBRANCH   1  14
BRANCH   2  18
ATOM     18  S   UNL     1      -1.377  11.543  19.483  0.00  0.00    +0.000 S 
ATOM     19  C   UNL     1      -0.651  12.959  18.627  0.00  0.00    +0.000 C 
ENDBRANCH   2  18
BRANCH   5  20
ATOM     20  C   UNL     1      -5.909  13.399  22.854  0.00  0.00    +0.000 C 
BRANCH  20  21
ATOM     21  C   UNL     1      -6.516  12.522  23.962  0.00  0.00    +0.000 C 
ATOM     22  O   UNL     1      -7.727  12.531  24.179  0.00  0.00    +0.000 OA
BRANCH  21  23
ATOM     23  O   UNL     1      -5.693  11.829  24.766  0.00  0.00    +0.000 OA
ATOM     24  H   UNL     1      -5.450  12.281  25.608  0.00  0.00    +0.000 HD
ENDBRANCH  21  23
ENDBRANCH  20  21
ENDBRANCH   5  20
TORSDOF 7
ENDMDL
