MODEL 1
REMARK VINA RESULT:      -6.3      0.000      0.000
REMARK  Name = 
REMARK  4 active torsions:
REMARK  status: ('A' for Active; 'I' for Inactive)
REMARK    1  A    between atoms: C_1  and  C_2
REMARK    2  A    between atoms: N_8  and  C_9
REMARK    3  A    between atoms: N_8  and  C_10
REMARK    4  A    between atoms: N_13  and  C_14
REMARK                            x       y       z     vdW  Elec       q    Type
REMARK                         _______ _______ _______ _____ _____    ______ ____
ROOT
ATOM      1  C   UNL     1       6.557   4.547  14.339  0.00  0.00    +0.000 C 
ATOM      2  C   UNL     1       5.638   4.598  15.528  0.00  0.00    +0.000 A 
ATOM      3  N   UNL     1       5.324   3.506  16.162  0.00  0.00    +0.000 NA
ATOM      4  C   UNL     1       4.460   3.634  17.264  0.00  0.00    +0.000 A 
ATOM      5  C   UNL     1       4.073   2.536  17.994  0.00  0.00    +0.000 A 
ATOM      6  N   UNL     1       3.247   2.585  19.061  0.00  0.00    +0.000 NA
ATOM      7  C   UNL     1       2.772   3.782  19.435  0.00  0.00    +0.000 A 
ATOM      8  N   UNL     1       1.928   3.854  20.518  0.00  0.00    +0.000 N 
ATOM      9  C   UNL     1       1.550   2.661  21.250  0.00  0.00    +0.000 C 
ATOM     10  C   UNL     1       1.386   5.119  20.967  0.00  0.00    +0.000 C 
ATOM     11  N   UNL     1       3.097   4.910  18.782  0.00  0.00    +0.000 NA
ATOM     12  C   UNL     1       3.926   4.829  17.718  0.00  0.00    +0.000 A 
ATOM     13  N   UNL     1       4.273   6.014  17.024  0.00  0.00    +0.000 N 
ATOM     14  C   UNL     1       3.753   7.295  17.445  0.00  0.00    +0.000 C 
ATOM     15  C   UNL     1       5.117   5.972  15.926  0.00  0.00    +0.000 A 
ATOM     16  O   UNL     1       5.466   6.946  15.270  0.00  0.00    +0.000 OA
ENDROOT
TORSDOF 0
ENDMDL
MODEL 2
REMARK VINA RESULT:      -6.2      1.629      1.750
REMARK  Name = 
REMARK  4 active torsions:
REMARK  status: ('A' for Active; 'I' for Inactive)
REMARK    1  A    between atoms: C_1  and  C_2
REMARK    2  A    between atoms: N_8  and  C_9
REMARK    3  A    between atoms: N_8  and  C_10
REMARK    4  A    between atoms: N_13  and  C_14
REMARK                            x       y       z     vdW  Elec       q    Type
REMARK                         _______ _______ _______ _____ _____    ______ ____
ROOT
ATOM      1  C   UNL     1       6.944   4.755  14.463  0.00  0.00    +0.000 C 
ATOM      2  C   UNL     1       6.106   4.608  15.702  0.00  0.00    +0.000 A 
ATOM      3  N   UNL     1       4.925   4.068  15.636  0.00  0.00    +0.000 NA
ATOM      4  C   UNL     1       4.201   3.965  16.837  0.00  0.00    +0.000 A 
ATOM      5  C   UNL     1       2.945   3.408  16.863  0.00  0.00    +0.000 A 
ATOM      6  N   UNL     1       2.194   3.278  17.978  0.00  0.00    +0.000 NA
ATOM      7  C   UNL     1       2.705   3.721  19.137  0.00  0.00    +0.000 A 
ATOM      8  N   UNL     1       1.956   3.600  20.283  0.00  0.00    +0.000 N 
ATOM      9  C   UNL     1       0.634   3.006  20.252  0.00  0.00    +0.000 C 
ATOM     10  C   UNL     1       2.459   4.058  21.561  0.00  0.00    +0.000 C 
ATOM     11  N   UNL     1       3.926   4.277  19.206  0.00  0.00    +0.000 NA
ATOM     12  C   UNL     1       4.653   4.393  18.074  0.00  0.00    +0.000 A 
ATOM     13  N   UNL     1       5.941   4.979  18.139  0.00  0.00    +0.000 N 
ATOM     14  C   UNL     1       6.476   5.446  19.399  0.00  0.00    +0.000 C 
ATOM     15  C   UNL     1       6.717   5.119  17.000  0.00  0.00    +0.000 A 
ATOM     16  O   UNL     1       7.836   5.614  16.968  0.00  0.00    +0.000 OA
ENDROOT
TORSDOF 0
ENDMDL
MODEL 3
REMARK VINA RESULT:      -5.7      3.156      4.712
REMARK  Name = 
REMARK  4 active torsions:
REMARK  status: ('A' for Active; 'I' for Inactive)
REMARK    1  A    between atoms: C_1  and  C_2
REMARK    2  A    between atoms: N_8  and  C_9
REMARK    3  A    between atoms: N_8  and  C_10
REMARK    4  A    between atoms: N_13  and  C_14
REMARK                            x       y       z     vdW  Elec       q    Type
REMARK                         _______ _______ _______ _____ _____    ______ ____
ROOT
ATOM      1  C   UNL     1       4.909   3.921  16.915  0.00  0.00    +0.000 C 
ATOM      2  C   UNL     1       4.078   4.844  17.763  0.00  0.00    +0.000 A 
ATOM      3  N   UNL     1       3.830   6.057  17.364  0.00  0.00    +0.000 NA
ATOM      4  C   UNL     1       3.046   6.860  18.212  0.00  0.00    +0.000 A 
ATOM      5  C   UNL     1       2.733   8.154  17.874  0.00  0.00    +0.000 A 
ATOM      6  N   UNL     1       1.988   8.981  18.638  0.00  0.00    +0.000 NA
ATOM      7  C   UNL     1       1.521   8.510  19.804  0.00  0.00    +0.000 A 
ATOM      8  N   UNL     1       0.761   9.336  20.599  0.00  0.00    +0.000 N 
ATOM      9  C   UNL     1       0.464  10.696  20.192  0.00  0.00    +0.000 C 
ATOM     10  C   UNL     1       0.231   8.881  21.866  0.00  0.00    +0.000 C 
ATOM     11  N   UNL     1       1.775   7.257  20.215  0.00  0.00    +0.000 NA
ATOM     12  C   UNL     1       2.524   6.454  19.429  0.00  0.00    +0.000 A 
ATOM     13  N   UNL     1       2.798   5.132  19.857  0.00  0.00    +0.000 N 
ATOM     14  C   UNL     1       2.282   4.642  21.115  0.00  0.00    +0.000 C 
ATOM     15  C   UNL     1       3.564   4.278  19.080  0.00  0.00    +0.000 A 
ATOM     16  O   UNL     1       3.848   3.124  19.374  0.00  0.00    +0.000 OA
ENDROOT
TORSDOF 0
ENDMDL
MODEL 4
REMARK VINA RESULT:      -5.7      2.116      5.160
REMARK  Name = 
REMARK  4 active torsions:
REMARK  status: ('A' for Active; 'I' for Inactive)
REMARK    1  A    between atoms: C_1  and  C_2
REMARK    2  A    between atoms: N_8  and  C_9
REMARK    3  A    between atoms: N_8  and  C_10
REMARK    4  A    between atoms: N_13  and  C_14
REMARK                            x       y       z     vdW  Elec       q    Type
REMARK                         _______ _______ _______ _____ _____    ______ ____
ROOT
ATOM      1  C   UNL     1       1.429   2.847  21.636  0.00  0.00    +0.000 C 
ATOM      2  C   UNL     1       2.141   3.487  20.477  0.00  0.00    +0.000 A 
ATOM      3  N   UNL     1       2.852   2.763  19.663  0.00  0.00    +0.000 NA
ATOM      4  C   UNL     1       3.488   3.433  18.603  0.00  0.00    +0.000 A 
ATOM      5  C   UNL     1       4.260   2.751  17.693  0.00  0.00    +0.000 A 
ATOM      6  N   UNL     1       4.899   3.328  16.654  0.00  0.00    +0.000 NA
ATOM      7  C   UNL     1       4.775   4.655  16.497  0.00  0.00    +0.000 A 
ATOM      8  N   UNL     1       5.419   5.263  15.446  0.00  0.00    +0.000 N 
ATOM      9  C   UNL     1       6.224   4.493  14.517  0.00  0.00    +0.000 C 
ATOM     10  C   UNL     1       5.319   6.691  15.227  0.00  0.00    +0.000 C 
ATOM     11  N   UNL     1       4.040   5.402  17.336  0.00  0.00    +0.000 NA
ATOM     12  C   UNL     1       3.412   4.796  18.367  0.00  0.00    +0.000 A 
ATOM     13  N   UNL     1       2.636   5.577  19.257  0.00  0.00    +0.000 N 
ATOM     14  C   UNL     1       2.511   7.005  19.068  0.00  0.00    +0.000 C 
ATOM     15  C   UNL     1       1.979   4.993  20.328  0.00  0.00    +0.000 A 
ATOM     16  O   UNL     1       1.290   5.594  21.143  0.00  0.00    +0.000 OA
ENDROOT
TORSDOF 0
ENDMDL
MODEL 5
REMARK VINA RESULT:      -5.7      1.883      2.941
REMARK  Name = 
REMARK  4 active torsions:
REMARK  status: ('A' for Active; 'I' for Inactive)
REMARK    1  A    between atoms: C_1  and  C_2
REMARK    2  A    between atoms: N_8  and  C_9
REMARK    3  A    between atoms: N_8  and  C_10
REMARK    4  A    between atoms: N_13  and  C_14
REMARK                            x       y       z     vdW  Elec       q    Type
REMARK                         _______ _______ _______ _____ _____    ______ ____
ROOT
ATOM      1  C   UNL     1       7.886   7.779  17.306  0.00  0.00    +0.000 C 
ATOM      2  C   UNL     1       6.836   6.713  17.452  0.00  0.00    +0.000 A 
ATOM      3  N   UNL     1       6.005   6.743  18.452  0.00  0.00    +0.000 NA
ATOM      4  C   UNL     1       5.051   5.712  18.520  0.00  0.00    +0.000 A 
ATOM      5  C   UNL     1       4.133   5.662  19.541  0.00  0.00    +0.000 A 
ATOM      6  N   UNL     1       3.191   4.703  19.670  0.00  0.00    +0.000 NA
ATOM      7  C   UNL     1       3.147   3.735  18.742  0.00  0.00    +0.000 A 
ATOM      8  N   UNL     1       2.197   2.747  18.856  0.00  0.00    +0.000 N 
ATOM      9  C   UNL     1       1.254   2.742  19.957  0.00  0.00    +0.000 C 
ATOM     10  C   UNL     1       2.103   1.679  17.883  0.00  0.00    +0.000 C 
ATOM     11  N   UNL     1       4.004   3.704  17.709  0.00  0.00    +0.000 NA
ATOM     12  C   UNL     1       4.935   4.678  17.607  0.00  0.00    +0.000 A 
ATOM     13  N   UNL     1       5.843   4.652  16.520  0.00  0.00    +0.000 N 
ATOM     14  C   UNL     1       5.777   3.602  15.528  0.00  0.00    +0.000 C 
ATOM     15  C   UNL     1       6.814   5.630  16.382  0.00  0.00    +0.000 A 
ATOM     16  O   UNL     1       7.636   5.682  15.476  0.00  0.00    +0.000 OA
ENDROOT
TORSDOF 0
ENDMDL
MODEL 6
REMARK VINA RESULT:      -5.4      3.545      5.104
REMARK  Name = 
REMARK  4 active torsions:
REMARK  status: ('A' for Active; 'I' for Inactive)
REMARK    1  A    between atoms: C_1  and  C_2
REMARK    2  A    between atoms: N_8  and  C_9
REMARK    3  A    between atoms: N_8  and  C_10
REMARK    4  A    between atoms: N_13  and  C_14
REMARK                            x       y       z     vdW  Elec       q    Type
REMARK                         _______ _______ _______ _____ _____    ______ ____
ROOT
ATOM      1  C   UNL     1       4.825   5.407  16.577  0.00  0.00    +0.000 C 
ATOM      2  C   UNL     1       3.920   6.107  17.552  0.00  0.00    +0.000 A 
ATOM      3  N   UNL     1       3.503   7.315  17.310  0.00  0.00    +0.000 NA
ATOM      4  C   UNL     1       2.659   7.903  18.269  0.00  0.00    +0.000 A 
ATOM      5  C   UNL     1       2.170   9.176  18.099  0.00  0.00    +0.000 A 
ATOM      6  N   UNL     1       1.358   9.802  18.977  0.00  0.00    +0.000 NA
ATOM      7  C   UNL     1       1.004   9.141  20.089  0.00  0.00    +0.000 A 
ATOM      8  N   UNL     1       0.179   9.761  20.998  0.00  0.00    +0.000 N 
ATOM      9  C   UNL     1      -0.305  11.109  20.767  0.00  0.00    +0.000 C 
ATOM     10  C   UNL     1      -0.237   9.095  22.213  0.00  0.00    +0.000 C 
ATOM     11  N   UNL     1       1.432   7.893  20.338  0.00  0.00    +0.000 NA
ATOM     12  C   UNL     1       2.244   7.293  19.441  0.00  0.00    +0.000 A 
ATOM     13  N   UNL     1       2.701   5.977  19.697  0.00  0.00    +0.000 N 
ATOM     14  C   UNL     1       2.305   5.280  20.900  0.00  0.00    +0.000 C 
ATOM     15  C   UNL     1       3.537   5.328  18.803  0.00  0.00    +0.000 A 
ATOM     16  O   UNL     1       3.978   4.195  18.948  0.00  0.00    +0.000 OA
ENDROOT
TORSDOF 0
ENDMDL
MODEL 7
REMARK VINA RESULT:      -5.4      3.186      5.847
REMARK  Name = 
REMARK  4 active torsions:
REMARK  status: ('A' for Active; 'I' for Inactive)
REMARK    1  A    between atoms: C_1  and  C_2
REMARK    2  A    between atoms: N_8  and  C_9
REMARK    3  A    between atoms: N_8  and  C_10
REMARK    4  A    between atoms: N_13  and  C_14
REMARK                            x       y       z     vdW  Elec       q    Type
REMARK                         _______ _______ _______ _____ _____    ______ ____
ROOT
ATOM      1  C   UNL     1      -0.271   8.780  22.101  0.00  0.00    +0.000 C 
ATOM      2  C   UNL     1       0.678   8.327  21.027  0.00  0.00    +0.000 A 
ATOM      3  N   UNL     1       1.234   7.153  21.095  0.00  0.00    +0.000 NA
ATOM      4  C   UNL     1       2.110   6.801  20.052  0.00  0.00    +0.000 A 
ATOM      5  C   UNL     1       2.744   5.581  20.039  0.00  0.00    +0.000 A 
ATOM      6  N   UNL     1       3.596   5.178  19.073  0.00  0.00    +0.000 NA
ATOM      7  C   UNL     1       3.842   6.020  18.058  0.00  0.00    +0.000 A 
ATOM      8  N   UNL     1       4.708   5.629  17.065  0.00  0.00    +0.000 N 
ATOM      9  C   UNL     1       5.352   4.330  17.104  0.00  0.00    +0.000 C 
ATOM     10  C   UNL     1       5.009   6.496  15.945  0.00  0.00    +0.000 C 
ATOM     11  N   UNL     1       3.266   7.231  17.987  0.00  0.00    +0.000 NA
ATOM     12  C   UNL     1       2.417   7.607  18.969  0.00  0.00    +0.000 A 
ATOM     13  N   UNL     1       1.807   8.883  18.901  0.00  0.00    +0.000 N 
ATOM     14  C   UNL     1       2.082   9.774  17.796  0.00  0.00    +0.000 C 
ATOM     15  C   UNL     1       0.934   9.306  19.889  0.00  0.00    +0.000 A 
ATOM     16  O   UNL     1       0.366  10.391  19.909  0.00  0.00    +0.000 OA
ENDROOT
TORSDOF 0
ENDMDL
MODEL 8
REMARK VINA RESULT:      -5.4      2.310      5.696
REMARK  Name = 
REMARK  4 active torsions:
REMARK  status: ('A' for Active; 'I' for Inactive)
REMARK    1  A    between atoms: C_1  and  C_2
REMARK    2  A    between atoms: N_8  and  C_9
REMARK    3  A    between atoms: N_8  and  C_10
REMARK    4  A    between atoms: N_13  and  C_14
REMARK                            x       y       z     vdW  Elec       q    Type
REMARK                         _______ _______ _______ _____ _____    ______ ____
ROOT
ATOM      1  C   UNL     1       1.803   6.250  20.574  0.00  0.00    +0.000 C 
ATOM      2  C   UNL     1       2.600   5.785  19.387  0.00  0.00    +0.000 A 
ATOM      3  N   UNL     1       3.555   6.526  18.907  0.00  0.00    +0.000 NA
ATOM      4  C   UNL     1       4.256   6.023  17.796  0.00  0.00    +0.000 A 
ATOM      5  C   UNL     1       5.280   6.737  17.221  0.00  0.00    +0.000 A 
ATOM      6  N   UNL     1       5.994   6.317  16.154  0.00  0.00    +0.000 NA
ATOM      7  C   UNL     1       5.685   5.126  15.620  0.00  0.00    +0.000 A 
ATOM      8  N   UNL     1       6.398   4.680  14.532  0.00  0.00    +0.000 N 
ATOM      9  C   UNL     1       7.468   5.477  13.964  0.00  0.00    +0.000 C 
ATOM     10  C   UNL     1       6.110   3.403  13.916  0.00  0.00    +0.000 C 
ATOM     11  N   UNL     1       4.701   4.359  16.117  0.00  0.00    +0.000 NA
ATOM     12  C   UNL     1       4.004   4.807  17.184  0.00  0.00    +0.000 A 
ATOM     13  N   UNL     1       2.964   4.004  17.713  0.00  0.00    +0.000 N 
ATOM     14  C   UNL     1       2.649   2.722  17.125  0.00  0.00    +0.000 C 
ATOM     15  C   UNL     1       2.224   4.429  18.805  0.00  0.00    +0.000 A 
ATOM     16  O   UNL     1       1.310   3.800  19.323  0.00  0.00    +0.000 OA
ENDROOT
TORSDOF 0
ENDMDL
MODEL 9
REMARK VINA RESULT:      -5.3      3.024      5.408
REMARK  Name = 
REMARK  4 active torsions:
REMARK  status: ('A' for Active; 'I' for Inactive)
REMARK    1  A    between atoms: C_1  and  C_2
REMARK    2  A    between atoms: N_8  and  C_9
REMARK    3  A    between atoms: N_8  and  C_10
REMARK    4  A    between atoms: N_13  and  C_14
REMARK                            x       y       z     vdW  Elec       q    Type
REMARK                         _______ _______ _______ _____ _____    ______ ____
ROOT
ATOM      1  C   UNL     1       0.243   2.782  18.600  0.00  0.00    +0.000 C 
ATOM      2  C   UNL     1       1.654   3.293  18.693  0.00  0.00    +0.000 A 
ATOM      3  N   UNL     1       2.006   4.370  18.055  0.00  0.00    +0.000 NA
ATOM      4  C   UNL     1       3.342   4.785  18.191  0.00  0.00    +0.000 A 
ATOM      5  C   UNL     1       3.804   5.911  17.554  0.00  0.00    +0.000 A 
ATOM      6  N   UNL     1       5.072   6.367  17.639  0.00  0.00    +0.000 NA
ATOM      7  C   UNL     1       5.940   5.677  18.394  0.00  0.00    +0.000 A 
ATOM      8  N   UNL     1       7.237   6.122  18.492  0.00  0.00    +0.000 N 
ATOM      9  C   UNL     1       7.670   7.317  17.794  0.00  0.00    +0.000 C 
ATOM     10  C   UNL     1       8.215   5.419  19.294  0.00  0.00    +0.000 C 
ATOM     11  N   UNL     1       5.577   4.566  19.054  0.00  0.00    +0.000 NA
ATOM     12  C   UNL     1       4.301   4.134  18.950  0.00  0.00    +0.000 A 
ATOM     13  N   UNL     1       3.911   2.962  19.643  0.00  0.00    +0.000 N 
ATOM     14  C   UNL     1       4.860   2.235  20.455  0.00  0.00    +0.000 C 
ATOM     15  C   UNL     1       2.613   2.486  19.559  0.00  0.00    +0.000 A 
ATOM     16  O   UNL     1       2.193   1.483  20.123  0.00  0.00    +0.000 OA
ENDROOT
TORSDOF 0
ENDMDL
