MODEL 1
REMARK VINA RESULT:      -7.6      0.000      0.000
REMARK  Name = 
REMARK  7 active torsions:
REMARK  status: ('A' for Active; 'I' for Inactive)
REMARK    1  A    between atoms: C_1  and  N_2
REMARK    2  A    between atoms: C_3  and  C_4
REMARK    3  A    between atoms: C_4  and  C_5
REMARK    4  A    between atoms: C_4  and  C_6
REMARK    5  A    between atoms: C_4  and  C_7
REMARK    6  A    between atoms: C_11  and  N_12
REMARK    7  A    between atoms: N_12  and  C_13
REMARK                            x       y       z     vdW  Elec       q    Type
REMARK                         _______ _______ _______ _____ _____    ______ ____
ROOT
ATOM      1  C   UNL     1       4.508   3.139  18.931  0.00  0.00    +0.000 C 
ATOM      2  N   UNL     1       4.141   4.513  18.681  0.00  0.00    +0.000 N 
ATOM      3  C   UNL     1       4.609   5.386  17.712  0.00  0.00    +0.000 A 
ATOM      4  N   UNL     1       4.030   6.570  17.876  0.00  0.00    +0.000 NA
ATOM      5  C   UNL     1       3.146   6.452  18.919  0.00  0.00    +0.000 A 
ATOM      6  C   UNL     1       2.262   7.398  19.486  0.00  0.00    +0.000 A 
ATOM      7  C   UNL     1       1.444   7.048  20.580  0.00  0.00    +0.000 A 
ATOM      8  C   UNL     1       1.487   5.716  21.019  0.00  0.00    +0.000 A 
ATOM      9  C   UNL     1       2.358   4.758  20.478  0.00  0.00    +0.000 A 
ATOM     10  C   UNL     1       3.184   5.166  19.430  0.00  0.00    +0.000 A 
ENDROOT
BRANCH   3  11
ATOM     11  C   UNL     1       5.591   5.074  16.580  0.00  0.00    +0.000 C 
ATOM     12  C   UNL     1       5.173   3.798  15.825  0.00  0.00    +0.000 C 
ATOM     13  C   UNL     1       5.568   6.234  15.553  0.00  0.00    +0.000 C 
ATOM     14  C   UNL     1       7.044   4.957  17.075  0.00  0.00    +0.000 C 
ENDBRANCH   3  11
BRANCH   7  15
ATOM     15  N   UNL     1       0.555   8.003  21.114  0.00  0.00    +0.000 N 
ATOM     16  H   UNL     1      -0.333   8.038  20.619  0.00  0.00    +0.000 HD
BRANCH  15  17
ATOM     17  C   UNL     1       1.049   9.309  21.586  0.00  0.00    +0.000 C 
ATOM     18  C   UNL     1       0.770  10.424  20.567  0.00  0.00    +0.000 C 
ATOM     19  C   UNL     1      -0.645  10.993  20.637  0.00  0.00    +0.000 C 
ATOM     20  C   UNL     1      -1.017  11.459  22.041  0.00  0.00    +0.000 C 
ATOM     21  C   UNL     1      -0.869  10.305  23.038  0.00  0.00    +0.000 C 
ATOM     22  C   UNL     1       0.502   9.629  22.990  0.00  0.00    +0.000 C 
ATOM     23  O   UNL     1      -0.172  12.545  22.429  0.00  0.00    +0.000 OA
ATOM     24  C   UNL     1      -1.005  13.474  23.118  0.00  0.00    +0.000 C 
ATOM     25  C   UNL     1      -2.432  13.047  22.875  0.00  0.00    +0.000 C 
ATOM     26  O   UNL     1      -2.374  11.901  22.033  0.00  0.00    +0.000 OA
ENDBRANCH  15  17
ENDBRANCH   7  15
TORSDOF 3
ENDMDL
MODEL 2
REMARK VINA RESULT:      -7.4      2.851      3.903
REMARK  Name = 
REMARK  7 active torsions:
REMARK  status: ('A' for Active; 'I' for Inactive)
REMARK    1  A    between atoms: C_1  and  N_2
REMARK    2  A    between atoms: C_3  and  C_4
REMARK    3  A    between atoms: C_4  and  C_5
REMARK    4  A    between atoms: C_4  and  C_6
REMARK    5  A    between atoms: C_4  and  C_7
REMARK    6  A    between atoms: C_11  and  N_12
REMARK    7  A    between atoms: N_12  and  C_13
REMARK                            x       y       z     vdW  Elec       q    Type
REMARK                         _______ _______ _______ _____ _____    ______ ____
ROOT
ATOM      1  C   UNL     1       2.530   4.518  20.895  0.00  0.00    +0.000 C 
ATOM      2  N   UNL     1       2.585   5.506  19.843  0.00  0.00    +0.000 N 
ATOM      3  C   UNL     1       3.111   5.401  18.565  0.00  0.00    +0.000 A 
ATOM      4  N   UNL     1       2.989   6.570  17.947  0.00  0.00    +0.000 NA
ATOM      5  C   UNL     1       2.337   7.421  18.804  0.00  0.00    +0.000 A 
ATOM      6  C   UNL     1       1.935   8.765  18.637  0.00  0.00    +0.000 A 
ATOM      7  C   UNL     1       1.278   9.451  19.678  0.00  0.00    +0.000 A 
ATOM      8  C   UNL     1       0.973   8.725  20.839  0.00  0.00    +0.000 A 
ATOM      9  C   UNL     1       1.364   7.391  21.035  0.00  0.00    +0.000 A 
ATOM     10  C   UNL     1       2.056   6.770  19.994  0.00  0.00    +0.000 A 
ENDROOT
BRANCH   3  11
ATOM     11  C   UNL     1       3.698   4.151  17.903  0.00  0.00    +0.000 C 
ATOM     12  C   UNL     1       2.581   3.200  17.434  0.00  0.00    +0.000 C 
ATOM     13  C   UNL     1       4.495   4.571  16.642  0.00  0.00    +0.000 C 
ATOM     14  C   UNL     1       4.689   3.410  18.820  0.00  0.00    +0.000 C 
ENDBRANCH   3  11
BRANCH   7  15
ATOM     15  N   UNL     1       0.868  10.785  19.479  0.00  0.00    +0.000 N 
ATOM     16  H   UNL     1       1.553  11.463  19.804  0.00  0.00    +0.000 HD
BRANCH  15  17
ATOM     17  C   UNL     1      -0.537  11.180  19.693  0.00  0.00    +0.000 C 
ATOM     18  C   UNL     1      -0.872  12.497  18.978  0.00  0.00    +0.000 C 
ATOM     19  C   UNL     1      -1.197  12.338  17.496  0.00  0.00    +0.000 C 
ATOM     20  C   UNL     1      -2.298  11.311  17.249  0.00  0.00    +0.000 C 
ATOM     21  C   UNL     1      -1.901   9.956  17.844  0.00  0.00    +0.000 C 
ATOM     22  C   UNL     1      -1.493  10.033  19.316  0.00  0.00    +0.000 C 
ATOM     23  O   UNL     1      -3.519  11.760  17.839  0.00  0.00    +0.000 OA
ATOM     24  C   UNL     1      -4.556  11.427  16.919  0.00  0.00    +0.000 C 
ATOM     25  C   UNL     1      -3.884  11.027  15.629  0.00  0.00    +0.000 C 
ATOM     26  O   UNL     1      -2.484  11.168  15.840  0.00  0.00    +0.000 OA
ENDBRANCH  15  17
ENDBRANCH   7  15
TORSDOF 3
ENDMDL
MODEL 3
REMARK VINA RESULT:      -7.4      4.259      9.223
REMARK  Name = 
REMARK  7 active torsions:
REMARK  status: ('A' for Active; 'I' for Inactive)
REMARK    1  A    between atoms: C_1  and  N_2
REMARK    2  A    between atoms: C_3  and  C_4
REMARK    3  A    between atoms: C_4  and  C_5
REMARK    4  A    between atoms: C_4  and  C_6
REMARK    5  A    between atoms: C_4  and  C_7
REMARK    6  A    between atoms: C_11  and  N_12
REMARK    7  A    between atoms: N_12  and  C_13
REMARK                            x       y       z     vdW  Elec       q    Type
REMARK                         _______ _______ _______ _____ _____    ______ ____
ROOT
ATOM      1  C   UNL     1       0.143   8.526  21.614  0.00  0.00    +0.000 C 
ATOM      2  N   UNL     1       0.911   8.652  20.397  0.00  0.00    +0.000 N 
ATOM      3  C   UNL     1       0.993   9.718  19.516  0.00  0.00    +0.000 A 
ATOM      4  N   UNL     1       1.784   9.387  18.503  0.00  0.00    +0.000 NA
ATOM      5  C   UNL     1       2.259   8.123  18.751  0.00  0.00    +0.000 A 
ATOM      6  C   UNL     1       3.150   7.313  18.011  0.00  0.00    +0.000 A 
ATOM      7  C   UNL     1       3.489   6.022  18.464  0.00  0.00    +0.000 A 
ATOM      8  C   UNL     1       2.975   5.616  19.704  0.00  0.00    +0.000 A 
ATOM      9  C   UNL     1       2.084   6.397  20.458  0.00  0.00    +0.000 A 
ATOM     10  C   UNL     1       1.739   7.647  19.944  0.00  0.00    +0.000 A 
ENDROOT
BRANCH   3  11
ATOM     11  C   UNL     1       0.343  11.097  19.666  0.00  0.00    +0.000 C 
ATOM     12  C   UNL     1       0.582  11.669  21.076  0.00  0.00    +0.000 C 
ATOM     13  C   UNL     1       0.998  12.079  18.662  0.00  0.00    +0.000 C 
ATOM     14  C   UNL     1      -1.162  11.077  19.339  0.00  0.00    +0.000 C 
ENDBRANCH   3  11
BRANCH   7  15
ATOM     15  N   UNL     1       4.397   5.242  17.719  0.00  0.00    +0.000 N 
ATOM     16  H   UNL     1       4.563   4.326  18.130  0.00  0.00    +0.000 HD
BRANCH  15  17
ATOM     17  C   UNL     1       5.580   5.858  17.092  0.00  0.00    +0.000 C 
ATOM     18  C   UNL     1       6.761   4.879  17.022  0.00  0.00    +0.000 C 
ATOM     19  C   UNL     1       6.703   3.914  15.840  0.00  0.00    +0.000 C 
ATOM     20  C   UNL     1       6.539   4.637  14.507  0.00  0.00    +0.000 C 
ATOM     21  C   UNL     1       5.282   5.511  14.529  0.00  0.00    +0.000 C 
ATOM     22  C   UNL     1       5.223   6.466  15.723  0.00  0.00    +0.000 C 
ATOM     23  O   UNL     1       7.688   5.449  14.253  0.00  0.00    +0.000 OA
ATOM     24  C   UNL     1       7.975   5.316  12.863  0.00  0.00    +0.000 C 
ATOM     25  C   UNL     1       7.137   4.169  12.352  0.00  0.00    +0.000 C 
ATOM     26  O   UNL     1       6.416   3.664  13.469  0.00  0.00    +0.000 OA
ENDBRANCH  15  17
ENDBRANCH   7  15
TORSDOF 3
ENDMDL
MODEL 4
REMARK VINA RESULT:      -7.4      3.797      9.107
REMARK  Name = 
REMARK  7 active torsions:
REMARK  status: ('A' for Active; 'I' for Inactive)
REMARK    1  A    between atoms: C_1  and  N_2
REMARK    2  A    between atoms: C_3  and  C_4
REMARK    3  A    between atoms: C_4  and  C_5
REMARK    4  A    between atoms: C_4  and  C_6
REMARK    5  A    between atoms: C_4  and  C_7
REMARK    6  A    between atoms: C_11  and  N_12
REMARK    7  A    between atoms: N_12  and  C_13
REMARK                            x       y       z     vdW  Elec       q    Type
REMARK                         _______ _______ _______ _____ _____    ______ ____
ROOT
ATOM      1  C   UNL     1       0.082  12.113  18.622  0.00  0.00    +0.000 C 
ATOM      2  N   UNL     1       0.325  11.038  19.555  0.00  0.00    +0.000 N 
ATOM      3  C   UNL     1      -0.017  10.943  20.895  0.00  0.00    +0.000 A 
ATOM      4  N   UNL     1       0.442   9.796  21.382  0.00  0.00    +0.000 NA
ATOM      5  C   UNL     1       1.039   9.122  20.346  0.00  0.00    +0.000 A 
ATOM      6  C   UNL     1       1.661   7.854  20.312  0.00  0.00    +0.000 A 
ATOM      7  C   UNL     1       2.225   7.364  19.116  0.00  0.00    +0.000 A 
ATOM      8  C   UNL     1       2.069   8.144  17.961  0.00  0.00    +0.000 A 
ATOM      9  C   UNL     1       1.460   9.410  17.966  0.00  0.00    +0.000 A 
ATOM     10  C   UNL     1       0.963   9.873  19.185  0.00  0.00    +0.000 A 
ENDROOT
BRANCH   3  11
ATOM     11  C   UNL     1      -0.839  11.941  21.714  0.00  0.00    +0.000 C 
ATOM     12  C   UNL     1      -0.049  13.240  21.955  0.00  0.00    +0.000 C 
ATOM     13  C   UNL     1      -2.111  12.326  20.917  0.00  0.00    +0.000 C 
ATOM     14  C   UNL     1      -1.325  11.348  23.051  0.00  0.00    +0.000 C 
ENDBRANCH   3  11
BRANCH   7  15
ATOM     15  N   UNL     1       2.822   6.086  19.102  0.00  0.00    +0.000 N 
ATOM     16  H   UNL     1       2.390   5.441  19.759  0.00  0.00    +0.000 HD
BRANCH  15  17
ATOM     17  C   UNL     1       4.282   5.940  18.964  0.00  0.00    +0.000 C 
ATOM     18  C   UNL     1       4.699   4.465  18.875  0.00  0.00    +0.000 C 
ATOM     19  C   UNL     1       4.559   3.859  17.481  0.00  0.00    +0.000 C 
ATOM     20  C   UNL     1       5.285   4.676  16.416  0.00  0.00    +0.000 C 
ATOM     21  C   UNL     1       4.769   6.118  16.412  0.00  0.00    +0.000 C 
ATOM     22  C   UNL     1       4.810   6.785  17.789  0.00  0.00    +0.000 C 
ATOM     23  O   UNL     1       6.691   4.666  16.674  0.00  0.00    +0.000 OA
ATOM     24  C   UNL     1       7.331   4.539  15.407  0.00  0.00    +0.000 C 
ATOM     25  C   UNL     1       6.257   4.181  14.409  0.00  0.00    +0.000 C 
ATOM     26  O   UNL     1       5.039   4.087  15.139  0.00  0.00    +0.000 OA
ENDBRANCH  15  17
ENDBRANCH   7  15
TORSDOF 3
ENDMDL
MODEL 5
REMARK VINA RESULT:      -7.3      2.907      3.810
REMARK  Name = 
REMARK  7 active torsions:
REMARK  status: ('A' for Active; 'I' for Inactive)
REMARK    1  A    between atoms: C_1  and  N_2
REMARK    2  A    between atoms: C_3  and  C_4
REMARK    3  A    between atoms: C_4  and  C_5
REMARK    4  A    between atoms: C_4  and  C_6
REMARK    5  A    between atoms: C_4  and  C_7
REMARK    6  A    between atoms: C_11  and  N_12
REMARK    7  A    between atoms: N_12  and  C_13
REMARK                            x       y       z     vdW  Elec       q    Type
REMARK                         _______ _______ _______ _____ _____    ______ ____
ROOT
ATOM      1  C   UNL     1       3.645   5.009  19.985  0.00  0.00    +0.000 C 
ATOM      2  N   UNL     1       3.359   6.140  19.133  0.00  0.00    +0.000 N 
ATOM      3  C   UNL     1       3.890   6.466  17.896  0.00  0.00    +0.000 A 
ATOM      4  N   UNL     1       3.375   7.621  17.490  0.00  0.00    +0.000 NA
ATOM      5  C   UNL     1       2.469   8.021  18.441  0.00  0.00    +0.000 A 
ATOM      6  C   UNL     1       1.630   9.156  18.491  0.00  0.00    +0.000 A 
ATOM      7  C   UNL     1       0.775   9.369  19.592  0.00  0.00    +0.000 A 
ATOM      8  C   UNL     1       0.737   8.374  20.581  0.00  0.00    +0.000 A 
ATOM      9  C   UNL     1       1.563   7.239  20.560  0.00  0.00    +0.000 A 
ATOM     10  C   UNL     1       2.427   7.099  19.474  0.00  0.00    +0.000 A 
ENDROOT
BRANCH   3  11
ATOM     11  C   UNL     1       4.871   5.638  17.062  0.00  0.00    +0.000 C 
ATOM     12  C   UNL     1       6.169   5.367  17.845  0.00  0.00    +0.000 C 
ATOM     13  C   UNL     1       4.234   4.260  16.749  0.00  0.00    +0.000 C 
ATOM     14  C   UNL     1       5.187   6.291  15.703  0.00  0.00    +0.000 C 
ENDBRANCH   3  11
BRANCH   7  15
ATOM     15  N   UNL     1      -0.068  10.498  19.609  0.00  0.00    +0.000 N 
ATOM     16  H   UNL     1      -0.714  10.499  20.394  0.00  0.00    +0.000 HD
BRANCH  15  17
ATOM     17  C   UNL     1      -0.622  11.041  18.355  0.00  0.00    +0.000 C 
ATOM     18  C   UNL     1      -1.369   9.966  17.552  0.00  0.00    +0.000 C 
ATOM     19  C   UNL     1      -2.802   9.721  18.019  0.00  0.00    +0.000 C 
ATOM     20  C   UNL     1      -3.624  11.004  18.071  0.00  0.00    +0.000 C 
ATOM     21  C   UNL     1      -2.947  12.030  18.984  0.00  0.00    +0.000 C 
ATOM     22  C   UNL     1      -1.482  12.289  18.630  0.00  0.00    +0.000 C 
ATOM     23  O   UNL     1      -3.762  11.544  16.754  0.00  0.00    +0.000 OA
ATOM     24  C   UNL     1      -5.101  12.022  16.654  0.00  0.00    +0.000 C 
ATOM     25  C   UNL     1      -5.847  11.488  17.852  0.00  0.00    +0.000 C 
ATOM     26  O   UNL     1      -4.920  10.698  18.588  0.00  0.00    +0.000 OA
ENDBRANCH  15  17
ENDBRANCH   7  15
TORSDOF 3
ENDMDL
MODEL 6
REMARK VINA RESULT:      -7.3      2.711      4.338
REMARK  Name = 
REMARK  7 active torsions:
REMARK  status: ('A' for Active; 'I' for Inactive)
REMARK    1  A    between atoms: C_1  and  N_2
REMARK    2  A    between atoms: C_3  and  C_4
REMARK    3  A    between atoms: C_4  and  C_5
REMARK    4  A    between atoms: C_4  and  C_6
REMARK    5  A    between atoms: C_4  and  C_7
REMARK    6  A    between atoms: C_11  and  N_12
REMARK    7  A    between atoms: N_12  and  C_13
REMARK                            x       y       z     vdW  Elec       q    Type
REMARK                         _______ _______ _______ _____ _____    ______ ____
ROOT
ATOM      1  C   UNL     1       3.022   4.597  17.480  0.00  0.00    +0.000 C 
ATOM      2  N   UNL     1       2.549   5.290  18.656  0.00  0.00    +0.000 N 
ATOM      3  C   UNL     1       2.284   4.793  19.922  0.00  0.00    +0.000 A 
ATOM      4  N   UNL     1       1.823   5.774  20.688  0.00  0.00    +0.000 NA
ATOM      5  C   UNL     1       1.838   6.922  19.935  0.00  0.00    +0.000 A 
ATOM      6  C   UNL     1       1.477   8.246  20.271  0.00  0.00    +0.000 A 
ATOM      7  C   UNL     1       1.565   9.278  19.313  0.00  0.00    +0.000 A 
ATOM      8  C   UNL     1       2.097   8.950  18.057  0.00  0.00    +0.000 A 
ATOM      9  C   UNL     1       2.459   7.642  17.695  0.00  0.00    +0.000 A 
ATOM     10  C   UNL     1       2.307   6.647  18.661  0.00  0.00    +0.000 A 
ENDROOT
BRANCH   3  11
ATOM     11  C   UNL     1       2.519   3.366  20.425  0.00  0.00    +0.000 C 
ATOM     12  C   UNL     1       2.165   3.243  21.919  0.00  0.00    +0.000 C 
ATOM     13  C   UNL     1       1.585   2.396  19.658  0.00  0.00    +0.000 C 
ATOM     14  C   UNL     1       3.958   2.880  20.169  0.00  0.00    +0.000 C 
ENDBRANCH   3  11
BRANCH   7  15
ATOM     15  N   UNL     1       1.219  10.595  19.678  0.00  0.00    +0.000 N 
ATOM     16  H   UNL     1       1.931  11.048  20.245  0.00  0.00    +0.000 HD
BRANCH  15  17
ATOM     17  C   UNL     1      -0.169  10.933  20.045  0.00  0.00    +0.000 C 
ATOM     18  C   UNL     1      -0.563  12.331  19.545  0.00  0.00    +0.000 C 
ATOM     19  C   UNL     1      -0.995  12.372  18.082  0.00  0.00    +0.000 C 
ATOM     20  C   UNL     1      -2.105  11.371  17.774  0.00  0.00    +0.000 C 
ATOM     21  C   UNL     1      -1.658   9.954  18.147  0.00  0.00    +0.000 C 
ATOM     22  C   UNL     1      -1.143   9.833  19.582  0.00  0.00    +0.000 C 
ATOM     23  O   UNL     1      -3.283  11.715  18.507  0.00  0.00    +0.000 OA
ATOM     24  C   UNL     1      -4.382  11.495  17.627  0.00  0.00    +0.000 C 
ATOM     25  C   UNL     1      -3.804  11.286  16.249  0.00  0.00    +0.000 C 
ATOM     26  O   UNL     1      -2.393  11.420  16.376  0.00  0.00    +0.000 OA
ENDBRANCH  15  17
ENDBRANCH   7  15
TORSDOF 3
ENDMDL
MODEL 7
REMARK VINA RESULT:      -7.3      3.756      9.134
REMARK  Name = 
REMARK  7 active torsions:
REMARK  status: ('A' for Active; 'I' for Inactive)
REMARK    1  A    between atoms: C_1  and  N_2
REMARK    2  A    between atoms: C_3  and  C_4
REMARK    3  A    between atoms: C_4  and  C_5
REMARK    4  A    between atoms: C_4  and  C_6
REMARK    5  A    between atoms: C_4  and  C_7
REMARK    6  A    between atoms: C_11  and  N_12
REMARK    7  A    between atoms: N_12  and  C_13
REMARK                            x       y       z     vdW  Elec       q    Type
REMARK                         _______ _______ _______ _____ _____    ______ ____
ROOT
ATOM      1  C   UNL     1      -0.457  12.804  18.894  0.00  0.00    +0.000 C 
ATOM      2  N   UNL     1      -0.349  11.743  19.869  0.00  0.00    +0.000 N 
ATOM      3  C   UNL     1      -0.959  11.622  21.107  0.00  0.00    +0.000 A 
ATOM      4  N   UNL     1      -0.541  10.505  21.691  0.00  0.00    +0.000 NA
ATOM      5  C   UNL     1       0.301   9.873  20.810  0.00  0.00    +0.000 A 
ATOM      6  C   UNL     1       0.993   8.646  20.919  0.00  0.00    +0.000 A 
ATOM      7  C   UNL     1       1.825   8.196  19.873  0.00  0.00    +0.000 A 
ATOM      8  C   UNL     1       1.867   8.970  18.703  0.00  0.00    +0.000 A 
ATOM      9  C   UNL     1       1.193  10.194  18.569  0.00  0.00    +0.000 A 
ATOM     10  C   UNL     1       0.423  10.621  19.651  0.00  0.00    +0.000 A 
ENDROOT
BRANCH   3  11
ATOM     11  C   UNL     1      -1.995  12.564  21.726  0.00  0.00    +0.000 C 
ATOM     12  C   UNL     1      -2.438  12.061  23.113  0.00  0.00    +0.000 C 
ATOM     13  C   UNL     1      -1.353  13.959  21.934  0.00  0.00    +0.000 C 
ATOM     14  C   UNL     1      -3.216  12.777  20.813  0.00  0.00    +0.000 C 
ENDBRANCH   3  11
BRANCH   7  15
ATOM     15  N   UNL     1       2.488   6.959  19.997  0.00  0.00    +0.000 N 
ATOM     16  H   UNL     1       3.466   7.058  20.261  0.00  0.00    +0.000 HD
BRANCH  15  17
ATOM     17  C   UNL     1       2.215   5.861  19.052  0.00  0.00    +0.000 C 
ATOM     18  C   UNL     1       3.432   5.557  18.167  0.00  0.00    +0.000 C 
ATOM     19  C   UNL     1       4.476   4.660  18.826  0.00  0.00    +0.000 C 
ATOM     20  C   UNL     1       3.877   3.362  19.357  0.00  0.00    +0.000 C 
ATOM     21  C   UNL     1       2.750   3.667  20.349  0.00  0.00    +0.000 C 
ATOM     22  C   UNL     1       1.688   4.617  19.793  0.00  0.00    +0.000 C 
ATOM     23  O   UNL     1       3.368   2.585  18.271  0.00  0.00    +0.000 OA
ATOM     24  C   UNL     1       3.703   1.229  18.556  0.00  0.00    +0.000 C 
ATOM     25  C   UNL     1       4.683   1.253  19.703  0.00  0.00    +0.000 C 
ATOM     26  O   UNL     1       4.901   2.622  20.023  0.00  0.00    +0.000 OA
ENDBRANCH  15  17
ENDBRANCH   7  15
TORSDOF 3
ENDMDL
MODEL 8
REMARK VINA RESULT:      -7.2      3.913      9.028
REMARK  Name = 
REMARK  7 active torsions:
REMARK  status: ('A' for Active; 'I' for Inactive)
REMARK    1  A    between atoms: C_1  and  N_2
REMARK    2  A    between atoms: C_3  and  C_4
REMARK    3  A    between atoms: C_4  and  C_5
REMARK    4  A    between atoms: C_4  and  C_6
REMARK    5  A    between atoms: C_4  and  C_7
REMARK    6  A    between atoms: C_11  and  N_12
REMARK    7  A    between atoms: N_12  and  C_13
REMARK                            x       y       z     vdW  Elec       q    Type
REMARK                         _______ _______ _______ _____ _____    ______ ____
ROOT
ATOM      1  C   UNL     1      -0.142  10.657  22.404  0.00  0.00    +0.000 C 
ATOM      2  N   UNL     1       0.297  10.526  21.034  0.00  0.00    +0.000 N 
ATOM      3  C   UNL     1       0.260  11.454  20.006  0.00  0.00    +0.000 A 
ATOM      4  N   UNL     1       0.727  10.894  18.896  0.00  0.00    +0.000 NA
ATOM      5  C   UNL     1       1.117   9.617  19.215  0.00  0.00    +0.000 A 
ATOM      6  C   UNL     1       1.701   8.608  18.417  0.00  0.00    +0.000 A 
ATOM      7  C   UNL     1       2.010   7.348  18.967  0.00  0.00    +0.000 A 
ATOM      8  C   UNL     1       1.792   7.172  20.342  0.00  0.00    +0.000 A 
ATOM      9  C   UNL     1       1.209   8.155  21.158  0.00  0.00    +0.000 A 
ATOM     10  C   UNL     1       0.874   9.368  20.555  0.00  0.00    +0.000 A 
ENDROOT
BRANCH   3  11
ATOM     11  C   UNL     1      -0.184  12.916  20.094  0.00  0.00    +0.000 C 
ATOM     12  C   UNL     1       0.806  13.745  20.933  0.00  0.00    +0.000 C 
ATOM     13  C   UNL     1      -0.195  13.530  18.671  0.00  0.00    +0.000 C 
ATOM     14  C   UNL     1      -1.615  13.065  20.644  0.00  0.00    +0.000 C 
ENDBRANCH   3  11
BRANCH   7  15
ATOM     15  N   UNL     1       2.611   6.364  18.156  0.00  0.00    +0.000 N 
ATOM     16  H   UNL     1       2.030   5.538  18.038  0.00  0.00    +0.000 HD
BRANCH  15  17
ATOM     17  C   UNL     1       4.057   6.091  18.252  0.00  0.00    +0.000 C 
ATOM     18  C   UNL     1       4.363   4.593  18.105  0.00  0.00    +0.000 C 
ATOM     19  C   UNL     1       4.420   4.107  16.659  0.00  0.00    +0.000 C 
ATOM     20  C   UNL     1       5.384   4.926  15.807  0.00  0.00    +0.000 C 
ATOM     21  C   UNL     1       4.995   6.407  15.844  0.00  0.00    +0.000 C 
ATOM     22  C   UNL     1       4.848   6.965  17.261  0.00  0.00    +0.000 C 
ATOM     23  O   UNL     1       6.718   4.764  16.295  0.00  0.00    +0.000 OA
ATOM     24  C   UNL     1       7.557   4.670  15.147  0.00  0.00    +0.000 C 
ATOM     25  C   UNL     1       6.649   4.489  13.955  0.00  0.00    +0.000 C 
ATOM     26  O   UNL     1       5.319   4.457  14.460  0.00  0.00    +0.000 OA
ENDBRANCH  15  17
ENDBRANCH   7  15
TORSDOF 3
ENDMDL
MODEL 9
REMARK VINA RESULT:      -7.2      1.820      3.481
REMARK  Name = 
REMARK  7 active torsions:
REMARK  status: ('A' for Active; 'I' for Inactive)
REMARK    1  A    between atoms: C_1  and  N_2
REMARK    2  A    between atoms: C_3  and  C_4
REMARK    3  A    between atoms: C_4  and  C_5
REMARK    4  A    between atoms: C_4  and  C_6
REMARK    5  A    between atoms: C_4  and  C_7
REMARK    6  A    between atoms: C_11  and  N_12
REMARK    7  A    between atoms: N_12  and  C_13
REMARK                            x       y       z     vdW  Elec       q    Type
REMARK                         _______ _______ _______ _____ _____    ______ ____
ROOT
ATOM      1  C   UNL     1       3.486   4.526  17.451  0.00  0.00    +0.000 C 
ATOM      2  N   UNL     1       2.863   5.028  18.653  0.00  0.00    +0.000 N 
ATOM      3  C   UNL     1       2.535   4.356  19.820  0.00  0.00    +0.000 A 
ATOM      4  N   UNL     1       1.934   5.197  20.653  0.00  0.00    +0.000 NA
ATOM      5  C   UNL     1       1.917   6.429  20.049  0.00  0.00    +0.000 A 
ATOM      6  C   UNL     1       1.422   7.671  20.507  0.00  0.00    +0.000 A 
ATOM      7  C   UNL     1       1.505   8.820  19.694  0.00  0.00    +0.000 A 
ATOM      8  C   UNL     1       2.164   8.693  18.462  0.00  0.00    +0.000 A 
ATOM      9  C   UNL     1       2.661   7.472  17.979  0.00  0.00    +0.000 A 
ATOM     10  C   UNL     1       2.511   6.353  18.800  0.00  0.00    +0.000 A 
ENDROOT
BRANCH   3  11
ATOM     11  C   UNL     1       2.844   2.897  20.166  0.00  0.00    +0.000 C 
ATOM     12  C   UNL     1       4.353   2.611  20.057  0.00  0.00    +0.000 C 
ATOM     13  C   UNL     1       2.438   2.628  21.638  0.00  0.00    +0.000 C 
ATOM     14  C   UNL     1       2.042   1.904  19.304  0.00  0.00    +0.000 C 
ENDBRANCH   3  11
BRANCH   7  15
ATOM     15  N   UNL     1       1.023  10.051  20.182  0.00  0.00    +0.000 N 
ATOM     16  H   UNL     1       1.689  10.525  20.788  0.00  0.00    +0.000 HD
BRANCH  15  17
ATOM     17  C   UNL     1      -0.388  10.202  20.581  0.00  0.00    +0.000 C 
ATOM     18  C   UNL     1      -0.520  10.826  21.978  0.00  0.00    +0.000 C 
ATOM     19  C   UNL     1      -0.407  12.348  21.995  0.00  0.00    +0.000 C 
ATOM     20  C   UNL     1      -1.379  13.015  21.028  0.00  0.00    +0.000 C 
ATOM     21  C   UNL     1      -1.155  12.492  19.606  0.00  0.00    +0.000 C 
ATOM     22  C   UNL     1      -1.184  10.966  19.506  0.00  0.00    +0.000 C 
ATOM     23  O   UNL     1      -2.724  12.749  21.435  0.00  0.00    +0.000 OA
ATOM     24  C   UNL     1      -3.451  13.958  21.232  0.00  0.00    +0.000 C 
ATOM     25  C   UNL     1      -2.434  15.041  20.965  0.00  0.00    +0.000 C 
ATOM     26  O   UNL     1      -1.154  14.425  21.050  0.00  0.00    +0.000 OA
ENDBRANCH  15  17
ENDBRANCH   7  15
TORSDOF 3
ENDMDL
