MODEL 1
REMARK VINA RESULT:      -8.0      0.000      0.000
REMARK  Name = 
REMARK  5 active torsions:
REMARK  status: ('A' for Active; 'I' for Inactive)
REMARK    1  A    between atoms: C_2  and  C_3
REMARK    2  A    between atoms: C_6  and  C_7
REMARK    3  A    between atoms: C_12  and  N_13
REMARK    4  A    between atoms: N_13  and  C_14
REMARK    5  A    between atoms: C_22  and  N_23
REMARK                            x       y       z     vdW  Elec       q    Type
REMARK                         _______ _______ _______ _____ _____    ______ ____
ROOT
ATOM      1  C   UNL     1       2.634   6.269  18.498  0.00  0.00    +0.000 A 
ATOM      2  N   UNL     1       1.863   5.139  18.423  0.00  0.00    +0.000 NA
ATOM      3  C   UNL     1       2.332   4.038  17.797  0.00  0.00    +0.000 A 
ATOM      4  C   UNL     1       3.566   3.953  17.176  0.00  0.00    +0.000 A 
ATOM      5  C   UNL     1       4.365   5.105  17.206  0.00  0.00    +0.000 A 
ATOM      6  C   UNL     1       5.658   5.461  16.731  0.00  0.00    +0.000 A 
ATOM      7  C   UNL     1       5.906   6.741  17.183  0.00  0.00    +0.000 A 
ATOM      8  O   UNL     1       4.825   7.225  17.842  0.00  0.00    +0.000 OA
ATOM      9  C   UNL     1       3.889   6.228  17.881  0.00  0.00    +0.000 A 
ENDROOT
BRANCH   1  13
ATOM     10  C   UNL     1       0.973   9.614  20.628  0.00  0.00    +0.000 A 
ATOM     11  C   UNL     1       1.231   9.722  19.261  0.00  0.00    +0.000 A 
ATOM     12  C   UNL     1       1.776   8.639  18.559  0.00  0.00    +0.000 A 
ATOM     13  C   UNL     1       2.069   7.425  19.204  0.00  0.00    +0.000 A 
ATOM     14  C   UNL     1       1.817   7.349  20.587  0.00  0.00    +0.000 A 
ATOM     15  C   UNL     1       1.273   8.426  21.295  0.00  0.00    +0.000 A 
BRANCH  10  17
ATOM     16  N   UNL     1      -0.052  11.611  21.926  0.00  0.00    +0.000 NA
ATOM     17  C   UNL     1       0.405  10.716  21.343  0.00  0.00    +0.000 C 
ENDBRANCH  10  17
ENDBRANCH   1  13
BRANCH   7  18
ATOM     18  N   UNL     1       6.961   7.564  17.096  0.00  0.00    +0.000 N 
ATOM     19  H   UNL     1       6.928   8.413  16.546  0.00  0.00    +0.000 HD
ATOM     20  H   UNL     1       7.627   7.582  17.863  0.00  0.00    +0.000 HD
ENDBRANCH   7  18
BRANCH   6  21
ATOM     21  N   UNL     1       6.534   4.677  16.055  0.00  0.00    +0.000 N 
ATOM     22  H   UNL     1       7.339   4.323  16.566  0.00  0.00    +0.000 HD
BRANCH  21  23
ATOM     23  C   UNL     1       6.723   4.557  14.658  0.00  0.00    +0.000 A 
ATOM     24  C   UNL     1       7.671   5.382  14.032  0.00  0.00    +0.000 A 
ATOM     25  C   UNL     1       7.913   5.282  12.659  0.00  0.00    +0.000 A 
ATOM     26  C   UNL     1       7.209   4.353  11.902  0.00  0.00    +0.000 A 
ATOM     27  F   UNL     1       7.443   4.285  10.584  0.00  0.00    +0.000 F 
ATOM     28  C   UNL     1       6.281   3.511  12.507  0.00  0.00    +0.000 A 
ATOM     29 CL   UNL     1       5.411   2.351  11.575  0.00  0.00    +0.000 Cl
ATOM     30  C   UNL     1       6.046   3.605  13.880  0.00  0.00    +0.000 A 
ENDBRANCH  21  23
ENDBRANCH   6  21
TORSDOF 5
ENDMDL
MODEL 2
REMARK VINA RESULT:      -7.7      2.477      3.827
REMARK  Name = 
REMARK  5 active torsions:
REMARK  status: ('A' for Active; 'I' for Inactive)
REMARK    1  A    between atoms: C_2  and  C_3
REMARK    2  A    between atoms: C_6  and  C_7
REMARK    3  A    between atoms: C_12  and  N_13
REMARK    4  A    between atoms: N_13  and  C_14
REMARK    5  A    between atoms: C_22  and  N_23
REMARK                            x       y       z     vdW  Elec       q    Type
REMARK                         _______ _______ _______ _____ _____    ______ ____
ROOT
ATOM      1  C   UNL     1       1.527   8.597  19.497  0.00  0.00    +0.000 A 
ATOM      2  N   UNL     1       1.907   9.254  18.357  0.00  0.00    +0.000 NA
ATOM      3  C   UNL     1       2.697   8.637  17.451  0.00  0.00    +0.000 A 
ATOM      4  C   UNL     1       3.200   7.356  17.591  0.00  0.00    +0.000 A 
ATOM      5  C   UNL     1       2.856   6.670  18.765  0.00  0.00    +0.000 A 
ATOM      6  C   UNL     1       3.121   5.382  19.307  0.00  0.00    +0.000 A 
ATOM      7  C   UNL     1       2.394   5.289  20.475  0.00  0.00    +0.000 A 
ATOM      8  O   UNL     1       1.757   6.458  20.729  0.00  0.00    +0.000 OA
ATOM      9  C   UNL     1       2.014   7.299  19.680  0.00  0.00    +0.000 A 
ENDROOT
BRANCH   1  13
ATOM     10  C   UNL     1      -1.034  10.767  22.185  0.00  0.00    +0.000 A 
ATOM     11  C   UNL     1      -0.386   9.612  22.626  0.00  0.00    +0.000 A 
ATOM     12  C   UNL     1       0.447   8.896  21.756  0.00  0.00    +0.000 A 
ATOM     13  C   UNL     1       0.656   9.320  20.432  0.00  0.00    +0.000 A 
ATOM     14  C   UNL     1      -0.024  10.477  20.007  0.00  0.00    +0.000 A 
ATOM     15  C   UNL     1      -0.858  11.197  20.869  0.00  0.00    +0.000 A 
BRANCH  10  17
ATOM     16  N   UNL     1      -2.555  12.108  23.801  0.00  0.00    +0.000 NA
ATOM     17  C   UNL     1      -1.875  11.505  23.077  0.00  0.00    +0.000 C 
ENDBRANCH  10  17
ENDBRANCH   1  13
BRANCH   7  18
ATOM     18  N   UNL     1       2.207   4.310  21.372  0.00  0.00    +0.000 N 
ATOM     19  H   UNL     1       1.895   3.387  21.095  0.00  0.00    +0.000 HD
ATOM     20  H   UNL     1       2.744   4.332  22.235  0.00  0.00    +0.000 HD
ENDBRANCH   7  18
BRANCH   6  21
ATOM     21  N   UNL     1       3.856   4.387  18.751  0.00  0.00    +0.000 N 
ATOM     22  H   UNL     1       3.930   3.513  19.266  0.00  0.00    +0.000 HD
BRANCH  21  23
ATOM     23  C   UNL     1       4.844   4.470  17.742  0.00  0.00    +0.000 A 
ATOM     24  C   UNL     1       6.167   4.758  18.115  0.00  0.00    +0.000 A 
ATOM     25  C   UNL     1       7.184   4.824  17.158  0.00  0.00    +0.000 A 
ATOM     26  C   UNL     1       6.883   4.601  15.820  0.00  0.00    +0.000 A 
ATOM     27  F   UNL     1       7.870   4.687  14.915  0.00  0.00    +0.000 F 
ATOM     28  C   UNL     1       5.583   4.293  15.431  0.00  0.00    +0.000 A 
ATOM     29 CL   UNL     1       5.208   4.006  13.774  0.00  0.00    +0.000 Cl
ATOM     30  C   UNL     1       4.570   4.217  16.388  0.00  0.00    +0.000 A 
ENDBRANCH  21  23
ENDBRANCH   6  21
TORSDOF 5
ENDMDL
MODEL 3
REMARK VINA RESULT:      -7.6      6.573     11.323
REMARK  Name = 
REMARK  5 active torsions:
REMARK  status: ('A' for Active; 'I' for Inactive)
REMARK    1  A    between atoms: C_2  and  C_3
REMARK    2  A    between atoms: C_6  and  C_7
REMARK    3  A    between atoms: C_12  and  N_13
REMARK    4  A    between atoms: N_13  and  C_14
REMARK    5  A    between atoms: C_22  and  N_23
REMARK                            x       y       z     vdW  Elec       q    Type
REMARK                         _______ _______ _______ _____ _____    ______ ____
ROOT
ATOM      1  C   UNL     1       0.710   9.507  20.219  0.00  0.00    +0.000 A 
ATOM      2  N   UNL     1       0.809   9.524  21.586  0.00  0.00    +0.000 NA
ATOM      3  C   UNL     1       0.024  10.349  22.312  0.00  0.00    +0.000 A 
ATOM      4  C   UNL     1      -0.892  11.236  21.775  0.00  0.00    +0.000 A 
ATOM      5  C   UNL     1      -0.992  11.267  20.376  0.00  0.00    +0.000 A 
ATOM      6  C   UNL     1      -1.774  11.981  19.426  0.00  0.00    +0.000 A 
ATOM      7  C   UNL     1      -1.455  11.466  18.187  0.00  0.00    +0.000 A 
ATOM      8  O   UNL     1      -0.477  10.535  18.300  0.00  0.00    +0.000 OA
ATOM      9  C   UNL     1      -0.203  10.390  19.634  0.00  0.00    +0.000 A 
ENDROOT
BRANCH   1  13
ATOM     10  C   UNL     1       3.265   6.737  18.148  0.00  0.00    +0.000 A 
ATOM     11  C   UNL     1       2.924   7.949  17.546  0.00  0.00    +0.000 A 
ATOM     12  C   UNL     1       2.089   8.856  18.211  0.00  0.00    +0.000 A 
ATOM     13  C   UNL     1       1.582   8.576  19.492  0.00  0.00    +0.000 A 
ATOM     14  C   UNL     1       1.926   7.339  20.069  0.00  0.00    +0.000 A 
ATOM     15  C   UNL     1       2.758   6.428  19.411  0.00  0.00    +0.000 A 
BRANCH  10  17
ATOM     16  N   UNL     1       4.826   5.068  16.923  0.00  0.00    +0.000 NA
ATOM     17  C   UNL     1       4.128   5.816  17.474  0.00  0.00    +0.000 C 
ENDBRANCH  10  17
ENDBRANCH   1  13
BRANCH   7  18
ATOM     18  N   UNL     1      -1.902  11.701  16.945  0.00  0.00    +0.000 N 
ATOM     19  H   UNL     1      -2.846  12.025  16.773  0.00  0.00    +0.000 HD
ATOM     20  H   UNL     1      -1.231  11.957  16.227  0.00  0.00    +0.000 HD
ENDBRANCH   7  18
BRANCH   6  21
ATOM     21  N   UNL     1      -2.727  12.913  19.674  0.00  0.00    +0.000 N 
ATOM     22  H   UNL     1      -2.428  13.882  19.751  0.00  0.00    +0.000 HD
BRANCH  21  23
ATOM     23  C   UNL     1      -4.025  12.735  20.207  0.00  0.00    +0.000 A 
ATOM     24  C   UNL     1      -5.043  12.264  19.362  0.00  0.00    +0.000 A 
ATOM     25  C   UNL     1      -6.335  12.046  19.849  0.00  0.00    +0.000 A 
ATOM     26  C   UNL     1      -6.617  12.297  21.186  0.00  0.00    +0.000 A 
ATOM     27  F   UNL     1      -7.868  12.099  21.629  0.00  0.00    +0.000 F 
ATOM     28  C   UNL     1      -5.618  12.743  22.046  0.00  0.00    +0.000 A 
ATOM     29 CL   UNL     1      -5.961  13.046  23.706  0.00  0.00    +0.000 Cl
ATOM     30  C   UNL     1      -4.325  12.952  21.562  0.00  0.00    +0.000 A 
ENDBRANCH  21  23
ENDBRANCH   6  21
TORSDOF 5
ENDMDL
MODEL 4
REMARK VINA RESULT:      -7.5      6.494     10.829
REMARK  Name = 
REMARK  5 active torsions:
REMARK  status: ('A' for Active; 'I' for Inactive)
REMARK    1  A    between atoms: C_2  and  C_3
REMARK    2  A    between atoms: C_6  and  C_7
REMARK    3  A    between atoms: C_12  and  N_13
REMARK    4  A    between atoms: N_13  and  C_14
REMARK    5  A    between atoms: C_22  and  N_23
REMARK                            x       y       z     vdW  Elec       q    Type
REMARK                         _______ _______ _______ _____ _____    ______ ____
ROOT
ATOM      1  C   UNL     1       1.837   8.368  19.279  0.00  0.00    +0.000 A 
ATOM      2  N   UNL     1       2.089   9.061  18.124  0.00  0.00    +0.000 NA
ATOM      3  C   UNL     1       1.709  10.352  18.012  0.00  0.00    +0.000 A 
ATOM      4  C   UNL     1       1.035  11.061  18.991  0.00  0.00    +0.000 A 
ATOM      5  C   UNL     1       0.732  10.368  20.172  0.00  0.00    +0.000 A 
ATOM      6  C   UNL     1       0.090  10.683  21.402  0.00  0.00    +0.000 A 
ATOM      7  C   UNL     1       0.207   9.568  22.205  0.00  0.00    +0.000 A 
ATOM      8  O   UNL     1       0.811   8.561  21.528  0.00  0.00    +0.000 OA
ATOM      9  C   UNL     1       1.155   9.046  20.295  0.00  0.00    +0.000 A 
ENDROOT
BRANCH   1  13
ATOM     10  C   UNL     1       3.191   4.289  19.390  0.00  0.00    +0.000 A 
ATOM     11  C   UNL     1       2.422   4.792  20.440  0.00  0.00    +0.000 A 
ATOM     12  C   UNL     1       1.979   6.122  20.414  0.00  0.00    +0.000 A 
ATOM     13  C   UNL     1       2.289   6.973  19.340  0.00  0.00    +0.000 A 
ATOM     14  C   UNL     1       3.082   6.446  18.303  0.00  0.00    +0.000 A 
ATOM     15  C   UNL     1       3.528   5.120  18.321  0.00  0.00    +0.000 A 
BRANCH  10  17
ATOM     16  N   UNL     1       3.994   1.823  19.422  0.00  0.00    +0.000 NA
ATOM     17  C   UNL     1       3.632   2.928  19.410  0.00  0.00    +0.000 C 
ENDBRANCH  10  17
ENDBRANCH   1  13
BRANCH   7  18
ATOM     18  N   UNL     1      -0.151   9.297  23.468  0.00  0.00    +0.000 N 
ATOM     19  H   UNL     1       0.141   8.445  23.932  0.00  0.00    +0.000 HD
ATOM     20  H   UNL     1      -0.350  10.072  24.094  0.00  0.00    +0.000 HD
ENDBRANCH   7  18
BRANCH   6  21
ATOM     21  N   UNL     1      -0.444  11.873  21.774  0.00  0.00    +0.000 N 
ATOM     22  H   UNL     1       0.169  12.540  22.236  0.00  0.00    +0.000 HD
BRANCH  21  23
ATOM     23  C   UNL     1      -1.804  12.216  21.959  0.00  0.00    +0.000 A 
ATOM     24  C   UNL     1      -2.558  12.613  20.843  0.00  0.00    +0.000 A 
ATOM     25  C   UNL     1      -3.912  12.935  20.971  0.00  0.00    +0.000 A 
ATOM     26  C   UNL     1      -4.522  12.860  22.217  0.00  0.00    +0.000 A 
ATOM     27  F   UNL     1      -5.818  13.191  22.321  0.00  0.00    +0.000 F 
ATOM     28  C   UNL     1      -3.799  12.448  23.332  0.00  0.00    +0.000 A 
ATOM     29 CL   UNL     1      -4.553  12.345  24.877  0.00  0.00    +0.000 Cl
ATOM     30  C   UNL     1      -2.449  12.117  23.203  0.00  0.00    +0.000 A 
ENDBRANCH  21  23
ENDBRANCH   6  21
TORSDOF 5
ENDMDL
MODEL 5
REMARK VINA RESULT:      -7.5      6.637     11.150
REMARK  Name = 
REMARK  5 active torsions:
REMARK  status: ('A' for Active; 'I' for Inactive)
REMARK    1  A    between atoms: C_2  and  C_3
REMARK    2  A    between atoms: C_6  and  C_7
REMARK    3  A    between atoms: C_12  and  N_13
REMARK    4  A    between atoms: N_13  and  C_14
REMARK    5  A    between atoms: C_22  and  N_23
REMARK                            x       y       z     vdW  Elec       q    Type
REMARK                         _______ _______ _______ _____ _____    ______ ____
ROOT
ATOM      1  C   UNL     1       0.764   9.722  19.496  0.00  0.00    +0.000 A 
ATOM      2  N   UNL     1       1.032  10.361  20.677  0.00  0.00    +0.000 NA
ATOM      3  C   UNL     1       0.208  11.333  21.124  0.00  0.00    +0.000 A 
ATOM      4  C   UNL     1      -0.918  11.779  20.453  0.00  0.00    +0.000 A 
ATOM      5  C   UNL     1      -1.199  11.167  19.223  0.00  0.00    +0.000 A 
ATOM      6  C   UNL     1      -2.214  11.288  18.234  0.00  0.00    +0.000 A 
ATOM      7  C   UNL     1      -1.968  10.310  17.293  0.00  0.00    +0.000 A 
ATOM      8  O   UNL     1      -0.828   9.642  17.596  0.00  0.00    +0.000 OA
ATOM      9  C   UNL     1      -0.364  10.142  18.783  0.00  0.00    +0.000 A 
ENDROOT
BRANCH   1  13
ATOM     10  C   UNL     1       3.490   6.660  18.200  0.00  0.00    +0.000 A 
ATOM     11  C   UNL     1       2.847   6.538  19.432  0.00  0.00    +0.000 A 
ATOM     12  C   UNL     1       1.960   7.533  19.865  0.00  0.00    +0.000 A 
ATOM     13  C   UNL     1       1.692   8.665  19.075  0.00  0.00    +0.000 A 
ATOM     14  C   UNL     1       2.368   8.772  17.845  0.00  0.00    +0.000 A 
ATOM     15  C   UNL     1       3.255   7.784  17.406  0.00  0.00    +0.000 A 
BRANCH  10  17
ATOM     16  N   UNL     1       5.116   4.811  17.384  0.00  0.00    +0.000 NA
ATOM     17  C   UNL     1       4.387   5.638  17.752  0.00  0.00    +0.000 C 
ENDBRANCH  10  17
ENDBRANCH   1  13
BRANCH   7  18
ATOM     18  N   UNL     1      -2.606   9.913  16.183  0.00  0.00    +0.000 N 
ATOM     19  H   UNL     1      -3.130   9.047  16.153  0.00  0.00    +0.000 HD
ATOM     20  H   UNL     1      -2.918  10.619  15.523  0.00  0.00    +0.000 HD
ENDBRANCH   7  18
BRANCH   6  21
ATOM     21  N   UNL     1      -3.284  12.123  18.245  0.00  0.00    +0.000 N 
ATOM     22  H   UNL     1      -3.160  13.050  17.847  0.00  0.00    +0.000 HD
BRANCH  21  23
ATOM     23  C   UNL     1      -4.449  12.061  19.044  0.00  0.00    +0.000 A 
ATOM     24  C   UNL     1      -5.549  11.323  18.578  0.00  0.00    +0.000 A 
ATOM     25  C   UNL     1      -6.713  11.209  19.344  0.00  0.00    +0.000 A 
ATOM     26  C   UNL     1      -6.784  11.832  20.584  0.00  0.00    +0.000 A 
ATOM     27  F   UNL     1      -7.916  11.726  21.295  0.00  0.00    +0.000 F 
ATOM     28  C   UNL     1      -5.697  12.550  21.075  0.00  0.00    +0.000 A 
ATOM     29 CL   UNL     1      -5.777  13.317  22.615  0.00  0.00    +0.000 Cl
ATOM     30  C   UNL     1      -4.531  12.656  20.314  0.00  0.00    +0.000 A 
ENDBRANCH  21  23
ENDBRANCH   6  21
TORSDOF 5
ENDMDL
MODEL 6
REMARK VINA RESULT:      -7.5      6.359     11.262
REMARK  Name = 
REMARK  5 active torsions:
REMARK  status: ('A' for Active; 'I' for Inactive)
REMARK    1  A    between atoms: C_2  and  C_3
REMARK    2  A    between atoms: C_6  and  C_7
REMARK    3  A    between atoms: C_12  and  N_13
REMARK    4  A    between atoms: N_13  and  C_14
REMARK    5  A    between atoms: C_22  and  N_23
REMARK                            x       y       z     vdW  Elec       q    Type
REMARK                         _______ _______ _______ _____ _____    ______ ____
ROOT
ATOM      1  C   UNL     1       0.729   9.486  20.280  0.00  0.00    +0.000 A 
ATOM      2  N   UNL     1       0.780   9.383  21.645  0.00  0.00    +0.000 NA
ATOM      3  C   UNL     1      -0.001  10.173  22.414  0.00  0.00    +0.000 A 
ATOM      4  C   UNL     1      -0.867  11.135  21.926  0.00  0.00    +0.000 A 
ATOM      5  C   UNL     1      -0.916  11.288  20.533  0.00  0.00    +0.000 A 
ATOM      6  C   UNL     1      -1.639  12.108  19.623  0.00  0.00    +0.000 A 
ATOM      7  C   UNL     1      -1.296  11.689  18.355  0.00  0.00    +0.000 A 
ATOM      8  O   UNL     1      -0.354  10.716  18.419  0.00  0.00    +0.000 OA
ATOM      9  C   UNL     1      -0.132  10.449  19.743  0.00  0.00    +0.000 A 
ENDROOT
BRANCH   1  13
ATOM     10  C   UNL     1       3.264   6.812  18.064  0.00  0.00    +0.000 A 
ATOM     11  C   UNL     1       2.885   8.032  17.502  0.00  0.00    +0.000 A 
ATOM     12  C   UNL     1       2.056   8.908  18.215  0.00  0.00    +0.000 A 
ATOM     13  C   UNL     1       1.593   8.588  19.503  0.00  0.00    +0.000 A 
ATOM     14  C   UNL     1       1.975   7.344  20.039  0.00  0.00    +0.000 A 
ATOM     15  C   UNL     1       2.802   6.463  19.334  0.00  0.00    +0.000 A 
BRANCH  10  17
ATOM     16  N   UNL     1       4.821   5.200  16.758  0.00  0.00    +0.000 NA
ATOM     17  C   UNL     1       4.121   5.922  17.341  0.00  0.00    +0.000 C 
ENDBRANCH  10  17
ENDBRANCH   1  13
BRANCH   7  18
ATOM     18  N   UNL     1      -1.691  12.045  17.124  0.00  0.00    +0.000 N 
ATOM     19  H   UNL     1      -2.286  12.849  16.970  0.00  0.00    +0.000 HD
ATOM     20  H   UNL     1      -1.103  11.797  16.334  0.00  0.00    +0.000 HD
ENDBRANCH   7  18
BRANCH   6  21
ATOM     21  N   UNL     1      -2.568  13.051  19.920  0.00  0.00    +0.000 N 
ATOM     22  H   UNL     1      -2.252  14.014  19.997  0.00  0.00    +0.000 HD
BRANCH  21  23
ATOM     23  C   UNL     1      -3.847  12.885  20.501  0.00  0.00    +0.000 A 
ATOM     24  C   UNL     1      -4.027  13.236  21.848  0.00  0.00    +0.000 A 
ATOM     25  C   UNL     1      -5.279  13.116  22.460  0.00  0.00    +0.000 A 
ATOM     26  C   UNL     1      -6.360  12.645  21.725  0.00  0.00    +0.000 A 
ATOM     27  F   UNL     1      -7.548  12.520  22.335  0.00  0.00    +0.000 F 
ATOM     28  C   UNL     1      -6.209  12.312  20.383  0.00  0.00    +0.000 A 
ATOM     29 CL   UNL     1      -7.549  11.736  19.466  0.00  0.00    +0.000 Cl
ATOM     30  C   UNL     1      -4.961  12.441  19.770  0.00  0.00    +0.000 A 
ENDBRANCH  21  23
ENDBRANCH   6  21
TORSDOF 5
ENDMDL
MODEL 7
REMARK VINA RESULT:      -7.4      4.587      9.129
REMARK  Name = 
REMARK  5 active torsions:
REMARK  status: ('A' for Active; 'I' for Inactive)
REMARK    1  A    between atoms: C_2  and  C_3
REMARK    2  A    between atoms: C_6  and  C_7
REMARK    3  A    between atoms: C_12  and  N_13
REMARK    4  A    between atoms: N_13  and  C_14
REMARK    5  A    between atoms: C_22  and  N_23
REMARK                            x       y       z     vdW  Elec       q    Type
REMARK                         _______ _______ _______ _____ _____    ______ ____
ROOT
ATOM      1  C   UNL     1       3.040   6.112  18.564  0.00  0.00    +0.000 A 
ATOM      2  N   UNL     1       2.758   5.217  19.562  0.00  0.00    +0.000 NA
ATOM      3  C   UNL     1       1.983   5.587  20.604  0.00  0.00    +0.000 A 
ATOM      4  C   UNL     1       1.446   6.850  20.775  0.00  0.00    +0.000 A 
ATOM      5  C   UNL     1       1.745   7.799  19.787  0.00  0.00    +0.000 A 
ATOM      6  C   UNL     1       1.415   9.162  19.550  0.00  0.00    +0.000 A 
ATOM      7  C   UNL     1       1.955   9.492  18.325  0.00  0.00    +0.000 A 
ATOM      8  O   UNL     1       2.659   8.448  17.824  0.00  0.00    +0.000 OA
ATOM      9  C   UNL     1       2.519   7.403  18.697  0.00  0.00    +0.000 A 
ENDROOT
BRANCH   1  13
ATOM     10  C   UNL     1       5.504   4.805  15.292  0.00  0.00    +0.000 A 
ATOM     11  C   UNL     1       4.808   3.866  16.053  0.00  0.00    +0.000 A 
ATOM     12  C   UNL     1       4.006   4.282  17.124  0.00  0.00    +0.000 A 
ATOM     13  C   UNL     1       3.877   5.642  17.453  0.00  0.00    +0.000 A 
ATOM     14  C   UNL     1       4.605   6.568  16.681  0.00  0.00    +0.000 A 
ATOM     15  C   UNL     1       5.408   6.161  15.611  0.00  0.00    +0.000 A 
BRANCH  10  17
ATOM     16  N   UNL     1       6.970   4.034  13.296  0.00  0.00    +0.000 NA
ATOM     17  C   UNL     1       6.314   4.382  14.190  0.00  0.00    +0.000 C 
ENDBRANCH  10  17
ENDBRANCH   1  13
BRANCH   7  18
ATOM     18  N   UNL     1       1.925  10.599  17.569  0.00  0.00    +0.000 N 
ATOM     19  H   UNL     1       1.118  10.835  17.004  0.00  0.00    +0.000 HD
ATOM     20  H   UNL     1       2.492  11.394  17.849  0.00  0.00    +0.000 HD
ENDBRANCH   7  18
BRANCH   6  21
ATOM     21  N   UNL     1       0.634   9.968  20.313  0.00  0.00    +0.000 N 
ATOM     22  H   UNL     1       0.752   9.918  21.322  0.00  0.00    +0.000 HD
BRANCH  21  23
ATOM     23  C   UNL     1      -0.579  10.611  19.972  0.00  0.00    +0.000 A 
ATOM     24  C   UNL     1      -1.009  11.697  20.750  0.00  0.00    +0.000 A 
ATOM     25  C   UNL     1      -2.187  12.382  20.437  0.00  0.00    +0.000 A 
ATOM     26  C   UNL     1      -2.941  11.985  19.339  0.00  0.00    +0.000 A 
ATOM     27  F   UNL     1      -4.077  12.644  19.066  0.00  0.00    +0.000 F 
ATOM     28  C   UNL     1      -2.521  10.925  18.542  0.00  0.00    +0.000 A 
ATOM     29 CL   UNL     1      -3.449  10.436  17.175  0.00  0.00    +0.000 Cl
ATOM     30  C   UNL     1      -1.340  10.247  18.849  0.00  0.00    +0.000 A 
ENDBRANCH  21  23
ENDBRANCH   6  21
TORSDOF 5
ENDMDL
MODEL 8
REMARK VINA RESULT:      -7.3      1.112      1.446
REMARK  Name = 
REMARK  5 active torsions:
REMARK  status: ('A' for Active; 'I' for Inactive)
REMARK    1  A    between atoms: C_2  and  C_3
REMARK    2  A    between atoms: C_6  and  C_7
REMARK    3  A    between atoms: C_12  and  N_13
REMARK    4  A    between atoms: N_13  and  C_14
REMARK    5  A    between atoms: C_22  and  N_23
REMARK                            x       y       z     vdW  Elec       q    Type
REMARK                         _______ _______ _______ _____ _____    ______ ____
ROOT
ATOM      1  C   UNL     1       2.351   6.147  18.792  0.00  0.00    +0.000 A 
ATOM      2  N   UNL     1       1.552   5.036  18.873  0.00  0.00    +0.000 NA
ATOM      3  C   UNL     1       1.949   3.874  18.310  0.00  0.00    +0.000 A 
ATOM      4  C   UNL     1       3.127   3.704  17.606  0.00  0.00    +0.000 A 
ATOM      5  C   UNL     1       3.950   4.832  17.476  0.00  0.00    +0.000 A 
ATOM      6  C   UNL     1       5.209   5.112  16.874  0.00  0.00    +0.000 A 
ATOM      7  C   UNL     1       5.518   6.417  17.194  0.00  0.00    +0.000 A 
ATOM      8  O   UNL     1       4.503   6.985  17.890  0.00  0.00    +0.000 OA
ATOM      9  C   UNL     1       3.552   6.020  18.086  0.00  0.00    +0.000 A 
ENDROOT
BRANCH   1  13
ATOM     10  C   UNL     1       0.927   9.702  20.747  0.00  0.00    +0.000 A 
ATOM     11  C   UNL     1       1.175   9.718  19.374  0.00  0.00    +0.000 A 
ATOM     12  C   UNL     1       1.643   8.566  18.729  0.00  0.00    +0.000 A 
ATOM     13  C   UNL     1       1.867   7.373  19.438  0.00  0.00    +0.000 A 
ATOM     14  C   UNL     1       1.627   7.389  20.825  0.00  0.00    +0.000 A 
ATOM     15  C   UNL     1       1.160   8.535  21.476  0.00  0.00    +0.000 A 
BRANCH  10  17
ATOM     16  N   UNL     1       0.044  11.828  21.940  0.00  0.00    +0.000 NA
ATOM     17  C   UNL     1       0.437  10.875  21.404  0.00  0.00    +0.000 C 
ENDBRANCH  10  17
ENDBRANCH   1  13
BRANCH   7  18
ATOM     18  N   UNL     1       6.580   7.200  16.957  0.00  0.00    +0.000 N 
ATOM     19  H   UNL     1       7.136   7.101  16.116  0.00  0.00    +0.000 HD
ATOM     20  H   UNL     1       6.602   8.128  17.370  0.00  0.00    +0.000 HD
ENDBRANCH   7  18
BRANCH   6  21
ATOM     21  N   UNL     1       6.013   4.250  16.202  0.00  0.00    +0.000 N 
ATOM     22  H   UNL     1       6.628   3.656  16.752  0.00  0.00    +0.000 HD
BRANCH  21  23
ATOM     23  C   UNL     1       6.412   4.283  14.846  0.00  0.00    +0.000 A 
ATOM     24  C   UNL     1       5.730   3.476  13.921  0.00  0.00    +0.000 A 
ATOM     25  C   UNL     1       6.070   3.494  12.565  0.00  0.00    +0.000 A 
ATOM     26  C   UNL     1       7.095   4.322  12.125  0.00  0.00    +0.000 A 
ATOM     27  F   UNL     1       7.417   4.312  10.823  0.00  0.00    +0.000 F 
ATOM     28  C   UNL     1       7.769   5.146  13.020  0.00  0.00    +0.000 A 
ATOM     29 CL   UNL     1       9.034   6.182  12.477  0.00  0.00    +0.000 Cl
ATOM     30  C   UNL     1       7.423   5.135  14.373  0.00  0.00    +0.000 A 
ENDBRANCH  21  23
ENDBRANCH   6  21
TORSDOF 5
ENDMDL
MODEL 9
REMARK VINA RESULT:      -7.2      1.174      1.565
REMARK  Name = 
REMARK  5 active torsions:
REMARK  status: ('A' for Active; 'I' for Inactive)
REMARK    1  A    between atoms: C_2  and  C_3
REMARK    2  A    between atoms: C_6  and  C_7
REMARK    3  A    between atoms: C_12  and  N_13
REMARK    4  A    between atoms: N_13  and  C_14
REMARK    5  A    between atoms: C_22  and  N_23
REMARK                            x       y       z     vdW  Elec       q    Type
REMARK                         _______ _______ _______ _____ _____    ______ ____
ROOT
ATOM      1  C   UNL     1       2.404   6.505  19.694  0.00  0.00    +0.000 A 
ATOM      2  N   UNL     1       2.100   5.432  20.490  0.00  0.00    +0.000 NA
ATOM      3  C   UNL     1       2.646   4.223  20.235  0.00  0.00    +0.000 A 
ATOM      4  C   UNL     1       3.503   3.954  19.182  0.00  0.00    +0.000 A 
ATOM      5  C   UNL     1       3.806   5.025  18.329  0.00  0.00    +0.000 A 
ATOM      6  C   UNL     1       4.617   5.211  17.175  0.00  0.00    +0.000 A 
ATOM      7  C   UNL     1       4.562   6.554  16.866  0.00  0.00    +0.000 A 
ATOM      8  O   UNL     1       3.714   7.196  17.706  0.00  0.00    +0.000 OA
ATOM      9  C   UNL     1       3.265   6.277  18.616  0.00  0.00    +0.000 A 
ENDROOT
BRANCH   1  13
ATOM     10  C   UNL     1       0.609  10.300  20.623  0.00  0.00    +0.000 A 
ATOM     11  C   UNL     1       0.816   9.364  21.638  0.00  0.00    +0.000 A 
ATOM     12  C   UNL     1       1.396   8.124  21.344  0.00  0.00    +0.000 A 
ATOM     13  C   UNL     1       1.788   7.793  20.035  0.00  0.00    +0.000 A 
ATOM     14  C   UNL     1       1.551   8.747  19.027  0.00  0.00    +0.000 A 
ATOM     15  C   UNL     1       0.971   9.988  19.312  0.00  0.00    +0.000 A 
BRANCH  10  17
ATOM     16  N   UNL     1      -0.441  12.608  21.168  0.00  0.00    +0.000 NA
ATOM     17  C   UNL     1       0.027  11.572  20.924  0.00  0.00    +0.000 C 
ENDBRANCH  10  17
ENDBRANCH   1  13
BRANCH   7  18
ATOM     18  N   UNL     1       5.154   7.313  15.933  0.00  0.00    +0.000 N 
ATOM     19  H   UNL     1       5.553   8.215  16.157  0.00  0.00    +0.000 HD
ATOM     20  H   UNL     1       5.571   6.855  15.127  0.00  0.00    +0.000 HD
ENDBRANCH   7  18
BRANCH   6  21
ATOM     21  N   UNL     1       5.385   4.285  16.548  0.00  0.00    +0.000 N 
ATOM     22  H   UNL     1       5.918   3.644  17.130  0.00  0.00    +0.000 HD
BRANCH  21  23
ATOM     23  C   UNL     1       5.863   4.283  15.216  0.00  0.00    +0.000 A 
ATOM     24  C   UNL     1       7.128   4.832  14.952  0.00  0.00    +0.000 A 
ATOM     25  C   UNL     1       7.655   4.829  13.658  0.00  0.00    +0.000 A 
ATOM     26  C   UNL     1       6.920   4.274  12.617  0.00  0.00    +0.000 A 
ATOM     27  F   UNL     1       7.435   4.297  11.380  0.00  0.00    +0.000 F 
ATOM     28  C   UNL     1       5.674   3.705  12.861  0.00  0.00    +0.000 A 
ATOM     29 CL   UNL     1       4.762   3.008  11.576  0.00  0.00    +0.000 Cl
ATOM     30  C   UNL     1       5.151   3.700  14.156  0.00  0.00    +0.000 A 
ENDBRANCH  21  23
ENDBRANCH   6  21
TORSDOF 5
ENDMDL
