MODEL 1
REMARK VINA RESULT:      -7.0      0.000      0.000
REMARK  Name = 
REMARK  5 active torsions:
REMARK  status: ('A' for Active; 'I' for Inactive)
REMARK    1  A    between atoms: C_1  and  C_2
REMARK    2  A    between atoms: C_2  and  C_3
REMARK    3  A    between atoms: C_7  and  C_8
REMARK    4  A    between atoms: N_10  and  C_11
REMARK    5  A    between atoms: C_19  and  C_20
REMARK                            x       y       z     vdW  Elec       q    Type
REMARK                         _______ _______ _______ _____ _____    ______ ____
ROOT
ATOM      1  C   UNL     1       2.853   6.478  18.189  0.00  0.00    +0.000 C 
ATOM      2  O   UNL     1       2.234   5.486  17.834  0.00  0.00    +0.000 OA
ATOM      3  N   UNL     1       4.234   6.559  18.122  0.00  0.00    +0.000 N 
ATOM      4  H   UNL     1       4.675   7.276  18.684  0.00  0.00    +0.000 HD
ENDROOT
BRANCH   3   5
ATOM      5  C   UNL     1       5.097   5.478  17.644  0.00  0.00    +0.000 C 
ATOM      6  C   UNL     1       5.878   4.818  18.813  0.00  0.00    +0.000 C 
ATOM      7  N   UNL     1       7.347   5.028  18.692  0.00  0.00    +0.000 NA
ATOM      8  C   UNL     1       7.816   4.349  17.463  0.00  0.00    +0.000 C 
ATOM      9  C   UNL     1       7.054   4.837  16.218  0.00  0.00    +0.000 C 
ATOM     10  C   UNL     1       6.127   6.005  16.610  0.00  0.00    +0.000 C 
ATOM     11  C   UNL     1       7.031   7.061  17.274  0.00  0.00    +0.000 C 
ATOM     12  C   UNL     1       7.617   6.478  18.569  0.00  0.00    +0.000 C 
ENDBRANCH   3   5
BRANCH   1  17
ATOM     13  C   UNL     1       1.017   9.116  20.360  0.00  0.00    +0.000 A 
ATOM     14  C   UNL     1       0.992  10.174  19.433  0.00  0.00    +0.000 A 
ATOM     15  C   UNL     1       1.533  10.025  18.165  0.00  0.00    +0.000 A 
ATOM     16  C   UNL     1       2.111   8.814  17.805  0.00  0.00    +0.000 A 
ATOM     17  C   UNL     1       2.172   7.728  18.704  0.00  0.00    +0.000 A 
ATOM     18  C   UNL     1       1.587   7.860  19.991  0.00  0.00    +0.000 A 
ATOM     19  C   UNL     1       1.589   6.748  21.011  0.00  0.00    +0.000 C 
BRANCH  13  21
ATOM     20  C   UNL     1      -0.167  10.791  21.864  0.00  0.00    +0.000 C 
ATOM     21  C   UNL     1       0.435   9.399  21.735  0.00  0.00    +0.000 C 
ENDBRANCH  13  21
ENDBRANCH   1  17
TORSDOF 3
ENDMDL
MODEL 2
REMARK VINA RESULT:      -6.8      0.947      2.076
REMARK  Name = 
REMARK  5 active torsions:
REMARK  status: ('A' for Active; 'I' for Inactive)
REMARK    1  A    between atoms: C_1  and  C_2
REMARK    2  A    between atoms: C_2  and  C_3
REMARK    3  A    between atoms: C_7  and  C_8
REMARK    4  A    between atoms: N_10  and  C_11
REMARK    5  A    between atoms: C_19  and  C_20
REMARK                            x       y       z     vdW  Elec       q    Type
REMARK                         _______ _______ _______ _____ _____    ______ ____
ROOT
ATOM      1  C   UNL     1       2.645   6.221  19.071  0.00  0.00    +0.000 C 
ATOM      2  O   UNL     1       2.034   5.277  18.595  0.00  0.00    +0.000 OA
ATOM      3  N   UNL     1       4.028   6.283  19.089  0.00  0.00    +0.000 N 
ATOM      4  H   UNL     1       4.446   6.939  19.736  0.00  0.00    +0.000 HD
ENDROOT
BRANCH   3   5
ATOM      5  C   UNL     1       4.903   5.233  18.565  0.00  0.00    +0.000 C 
ATOM      6  C   UNL     1       6.325   5.319  19.183  0.00  0.00    +0.000 C 
ATOM      7  N   UNL     1       7.359   5.643  18.162  0.00  0.00    +0.000 NA
ATOM      8  C   UNL     1       7.414   4.533  17.185  0.00  0.00    +0.000 C 
ATOM      9  C   UNL     1       6.037   4.265  16.552  0.00  0.00    +0.000 C 
ATOM     10  C   UNL     1       5.038   5.340  17.023  0.00  0.00    +0.000 C 
ATOM     11  C   UNL     1       5.669   6.697  16.653  0.00  0.00    +0.000 C 
ATOM     12  C   UNL     1       6.966   6.883  17.456  0.00  0.00    +0.000 C 
ENDBRANCH   3   5
BRANCH   1  17
ATOM     13  C   UNL     1       0.996   9.689  19.620  0.00  0.00    +0.000 A 
ATOM     14  C   UNL     1       0.618   9.534  20.966  0.00  0.00    +0.000 A 
ATOM     15  C   UNL     1       0.900   8.365  21.656  0.00  0.00    +0.000 A 
ATOM     16  C   UNL     1       1.564   7.331  21.009  0.00  0.00    +0.000 A 
ATOM     17  C   UNL     1       1.953   7.434  19.657  0.00  0.00    +0.000 A 
ATOM     18  C   UNL     1       1.701   8.641  18.954  0.00  0.00    +0.000 A 
ATOM     19  C   UNL     1       2.095   8.849  17.512  0.00  0.00    +0.000 C 
BRANCH  13  21
ATOM     20  C   UNL     1      -0.858  11.035  18.517  0.00  0.00    +0.000 C 
ATOM     21  C   UNL     1       0.601  10.992  18.945  0.00  0.00    +0.000 C 
ENDBRANCH  13  21
ENDBRANCH   1  17
TORSDOF 3
ENDMDL
MODEL 3
REMARK VINA RESULT:      -6.8      2.960      4.185
REMARK  Name = 
REMARK  5 active torsions:
REMARK  status: ('A' for Active; 'I' for Inactive)
REMARK    1  A    between atoms: C_1  and  C_2
REMARK    2  A    between atoms: C_2  and  C_3
REMARK    3  A    between atoms: C_7  and  C_8
REMARK    4  A    between atoms: N_10  and  C_11
REMARK    5  A    between atoms: C_19  and  C_20
REMARK                            x       y       z     vdW  Elec       q    Type
REMARK                         _______ _______ _______ _____ _____    ______ ____
ROOT
ATOM      1  C   UNL     1       2.518   7.112  19.077  0.00  0.00    +0.000 C 
ATOM      2  O   UNL     1       3.366   7.408  18.248  0.00  0.00    +0.000 OA
ATOM      3  N   UNL     1       2.291   5.807  19.481  0.00  0.00    +0.000 N 
ATOM      4  H   UNL     1       1.409   5.620  19.940  0.00  0.00    +0.000 HD
ENDROOT
BRANCH   3   5
ATOM      5  C   UNL     1       3.016   4.649  18.957  0.00  0.00    +0.000 C 
ATOM      6  C   UNL     1       2.352   4.103  17.663  0.00  0.00    +0.000 C 
ATOM      7  N   UNL     1       1.808   2.730  17.852  0.00  0.00    +0.000 NA
ATOM      8  C   UNL     1       2.937   1.816  18.138  0.00  0.00    +0.000 C 
ATOM      9  C   UNL     1       3.756   2.289  19.352  0.00  0.00    +0.000 C 
ATOM     10  C   UNL     1       3.059   3.501  20.000  0.00  0.00    +0.000 C 
ATOM     11  C   UNL     1       1.624   3.043  20.324  0.00  0.00    +0.000 C 
ATOM     12  C   UNL     1       0.889   2.730  19.011  0.00  0.00    +0.000 C 
ENDBRANCH   3   5
BRANCH   1  17
ATOM     13  C   UNL     1       0.355  10.216  19.935  0.00  0.00    +0.000 A 
ATOM     14  C   UNL     1       0.033   9.890  21.265  0.00  0.00    +0.000 A 
ATOM     15  C   UNL     1       0.510   8.726  21.850  0.00  0.00    +0.000 A 
ATOM     16  C   UNL     1       1.315   7.869  21.111  0.00  0.00    +0.000 A 
ATOM     17  C   UNL     1       1.655   8.146  19.771  0.00  0.00    +0.000 A 
ATOM     18  C   UNL     1       1.202   9.353  19.176  0.00  0.00    +0.000 A 
ATOM     19  C   UNL     1       1.530   9.742  17.755  0.00  0.00    +0.000 C 
BRANCH  13  21
ATOM     20  C   UNL     1      -1.698  11.329  18.931  0.00  0.00    +0.000 C 
ATOM     21  C   UNL     1      -0.253  11.492  19.379  0.00  0.00    +0.000 C 
ENDBRANCH  13  21
ENDBRANCH   1  17
TORSDOF 3
ENDMDL
MODEL 4
REMARK VINA RESULT:      -6.5      3.146      4.296
REMARK  Name = 
REMARK  5 active torsions:
REMARK  status: ('A' for Active; 'I' for Inactive)
REMARK    1  A    between atoms: C_1  and  C_2
REMARK    2  A    between atoms: C_2  and  C_3
REMARK    3  A    between atoms: C_7  and  C_8
REMARK    4  A    between atoms: N_10  and  C_11
REMARK    5  A    between atoms: C_19  and  C_20
REMARK                            x       y       z     vdW  Elec       q    Type
REMARK                         _______ _______ _______ _____ _____    ______ ____
ROOT
ATOM      1  C   UNL     1       2.065   7.687  19.428  0.00  0.00    +0.000 C 
ATOM      2  O   UNL     1       2.734   8.052  18.472  0.00  0.00    +0.000 OA
ATOM      3  N   UNL     1       1.999   6.363  19.830  0.00  0.00    +0.000 N 
ATOM      4  H   UNL     1       1.225   6.108  20.430  0.00  0.00    +0.000 HD
ENDROOT
BRANCH   3   5
ATOM      5  C   UNL     1       2.695   5.265  19.157  0.00  0.00    +0.000 C 
ATOM      6  C   UNL     1       1.888   4.746  17.937  0.00  0.00    +0.000 C 
ATOM      7  N   UNL     1       1.432   3.341  18.125  0.00  0.00    +0.000 NA
ATOM      8  C   UNL     1       2.627   2.472  18.214  0.00  0.00    +0.000 C 
ATOM      9  C   UNL     1       3.580   2.929  19.333  0.00  0.00    +0.000 C 
ATOM     10  C   UNL     1       2.925   4.076  20.127  0.00  0.00    +0.000 C 
ATOM     11  C   UNL     1       1.567   3.536  20.613  0.00  0.00    +0.000 C 
ATOM     12  C   UNL     1       0.676   3.246  19.394  0.00  0.00    +0.000 C 
ENDBRANCH   3   5
BRANCH   1  17
ATOM     13  C   UNL     1      -0.273  10.500  20.716  0.00  0.00    +0.000 A 
ATOM     14  C   UNL     1      -0.130  10.280  22.098  0.00  0.00    +0.000 A 
ATOM     15  C   UNL     1       0.698   9.277  22.578  0.00  0.00    +0.000 A 
ATOM     16  C   UNL     1       1.393   8.475  21.682  0.00  0.00    +0.000 A 
ATOM     17  C   UNL     1       1.272   8.648  20.288  0.00  0.00    +0.000 A 
ATOM     18  C   UNL     1       0.456   9.697  19.788  0.00  0.00    +0.000 A 
ATOM     19  C   UNL     1       0.280   9.969  18.314  0.00  0.00    +0.000 C 
BRANCH  13  21
ATOM     20  C   UNL     1      -1.914  12.291  21.468  0.00  0.00    +0.000 C 
ATOM     21  C   UNL     1      -1.236  11.598  20.296  0.00  0.00    +0.000 C 
ENDBRANCH  13  21
ENDBRANCH   1  17
TORSDOF 3
ENDMDL
MODEL 5
REMARK VINA RESULT:      -6.5      2.778      3.561
REMARK  Name = 
REMARK  5 active torsions:
REMARK  status: ('A' for Active; 'I' for Inactive)
REMARK    1  A    between atoms: C_1  and  C_2
REMARK    2  A    between atoms: C_2  and  C_3
REMARK    3  A    between atoms: C_7  and  C_8
REMARK    4  A    between atoms: N_10  and  C_11
REMARK    5  A    between atoms: C_19  and  C_20
REMARK                            x       y       z     vdW  Elec       q    Type
REMARK                         _______ _______ _______ _____ _____    ______ ____
ROOT
ATOM      1  C   UNL     1       2.768   7.213  18.376  0.00  0.00    +0.000 C 
ATOM      2  O   UNL     1       3.830   7.417  17.808  0.00  0.00    +0.000 OA
ATOM      3  N   UNL     1       2.315   5.939  18.676  0.00  0.00    +0.000 N 
ATOM      4  H   UNL     1       1.328   5.844  18.880  0.00  0.00    +0.000 HD
ENDROOT
BRANCH   3   5
ATOM      5  C   UNL     1       3.035   4.711  18.338  0.00  0.00    +0.000 C 
ATOM      6  C   UNL     1       2.220   3.829  17.353  0.00  0.00    +0.000 C 
ATOM      7  N   UNL     1       1.821   2.532  17.964  0.00  0.00    +0.000 NA
ATOM      8  C   UNL     1       3.047   1.762  18.269  0.00  0.00    +0.000 C 
ATOM      9  C   UNL     1       4.008   2.558  19.170  0.00  0.00    +0.000 C 
ATOM     10  C   UNL     1       3.330   3.871  19.609  0.00  0.00    +0.000 C 
ATOM     11  C   UNL     1       2.003   3.462  20.276  0.00  0.00    +0.000 C 
ATOM     12  C   UNL     1       1.097   2.797  19.227  0.00  0.00    +0.000 C 
ENDBRANCH   3   5
BRANCH   1  17
ATOM     13  C   UNL     1       0.488   9.568  20.450  0.00  0.00    +0.000 A 
ATOM     14  C   UNL     1       0.218  10.530  19.459  0.00  0.00    +0.000 A 
ATOM     15  C   UNL     1       0.742  10.404  18.181  0.00  0.00    +0.000 A 
ATOM     16  C   UNL     1       1.548   9.315  17.875  0.00  0.00    +0.000 A 
ATOM     17  C   UNL     1       1.857   8.331  18.838  0.00  0.00    +0.000 A 
ATOM     18  C   UNL     1       1.295   8.432  20.138  0.00  0.00    +0.000 A 
ATOM     19  C   UNL     1       1.556   7.419  21.226  0.00  0.00    +0.000 C 
BRANCH  13  21
ATOM     20  C   UNL     1      -0.466  11.280  22.070  0.00  0.00    +0.000 C 
ATOM     21  C   UNL     1      -0.101   9.823  21.827  0.00  0.00    +0.000 C 
ENDBRANCH  13  21
ENDBRANCH   1  17
TORSDOF 3
ENDMDL
MODEL 6
REMARK VINA RESULT:      -6.4      3.760      6.366
REMARK  Name = 
REMARK  5 active torsions:
REMARK  status: ('A' for Active; 'I' for Inactive)
REMARK    1  A    between atoms: C_1  and  C_2
REMARK    2  A    between atoms: C_2  and  C_3
REMARK    3  A    between atoms: C_7  and  C_8
REMARK    4  A    between atoms: N_10  and  C_11
REMARK    5  A    between atoms: C_19  and  C_20
REMARK                            x       y       z     vdW  Elec       q    Type
REMARK                         _______ _______ _______ _____ _____    ______ ____
ROOT
ATOM      1  C   UNL     1       5.238   4.443  17.418  0.00  0.00    +0.000 C 
ATOM      2  O   UNL     1       5.334   3.763  16.408  0.00  0.00    +0.000 OA
ATOM      3  N   UNL     1       4.147   4.368  18.268  0.00  0.00    +0.000 N 
ATOM      4  H   UNL     1       4.013   5.143  18.905  0.00  0.00    +0.000 HD
ENDROOT
BRANCH   3   5
ATOM      5  C   UNL     1       2.993   3.495  18.046  0.00  0.00    +0.000 C 
ATOM      6  C   UNL     1       1.657   4.271  18.201  0.00  0.00    +0.000 C 
ATOM      7  N   UNL     1       0.856   3.779  19.355  0.00  0.00    +0.000 NA
ATOM      8  C   UNL     1       0.475   2.373  19.093  0.00  0.00    +0.000 C 
ATOM      9  C   UNL     1       1.706   1.491  18.822  0.00  0.00    +0.000 C 
ATOM     10  C   UNL     1       2.988   2.315  19.055  0.00  0.00    +0.000 C 
ATOM     11  C   UNL     1       2.886   2.864  20.491  0.00  0.00    +0.000 C 
ATOM     12  C   UNL     1       1.691   3.827  20.576  0.00  0.00    +0.000 C 
ENDBRANCH   3   5
BRANCH   1  17
ATOM     13  C   UNL     1       7.534   7.535  17.883  0.00  0.00    +0.000 A 
ATOM     14  C   UNL     1       8.383   7.021  18.879  0.00  0.00    +0.000 A 
ATOM     15  C   UNL     1       8.221   5.731  19.360  0.00  0.00    +0.000 A 
ATOM     16  C   UNL     1       7.203   4.934  18.853  0.00  0.00    +0.000 A 
ATOM     17  C   UNL     1       6.317   5.408  17.862  0.00  0.00    +0.000 A 
ATOM     18  C   UNL     1       6.500   6.715  17.337  0.00  0.00    +0.000 A 
ATOM     19  C   UNL     1       5.614   7.300  16.265  0.00  0.00    +0.000 C 
BRANCH  13  21
ATOM     20  C   UNL     1       8.709   9.733  18.385  0.00  0.00    +0.000 C 
ATOM     21  C   UNL     1       7.772   8.974  17.457  0.00  0.00    +0.000 C 
ENDBRANCH  13  21
ENDBRANCH   1  17
TORSDOF 3
ENDMDL
MODEL 7
REMARK VINA RESULT:      -6.3      2.528      4.150
REMARK  Name = 
REMARK  5 active torsions:
REMARK  status: ('A' for Active; 'I' for Inactive)
REMARK    1  A    between atoms: C_1  and  C_2
REMARK    2  A    between atoms: C_2  and  C_3
REMARK    3  A    between atoms: C_7  and  C_8
REMARK    4  A    between atoms: N_10  and  C_11
REMARK    5  A    between atoms: C_19  and  C_20
REMARK                            x       y       z     vdW  Elec       q    Type
REMARK                         _______ _______ _______ _____ _____    ______ ____
ROOT
ATOM      1  C   UNL     1       4.028   3.003  17.915  0.00  0.00    +0.000 C 
ATOM      2  O   UNL     1       3.775   1.978  17.299  0.00  0.00    +0.000 OA
ATOM      3  N   UNL     1       5.012   3.891  17.515  0.00  0.00    +0.000 N 
ATOM      4  H   UNL     1       5.346   4.545  18.212  0.00  0.00    +0.000 HD
ENDROOT
BRANCH   3   5
ATOM      5  C   UNL     1       5.862   3.698  16.338  0.00  0.00    +0.000 C 
ATOM      6  C   UNL     1       7.273   4.310  16.552  0.00  0.00    +0.000 C 
ATOM      7  N   UNL     1       7.537   5.443  15.624  0.00  0.00    +0.000 NA
ATOM      8  C   UNL     1       7.532   4.923  14.239  0.00  0.00    +0.000 C 
ATOM      9  C   UNL     1       6.216   4.197  13.909  0.00  0.00    +0.000 C 
ATOM     10  C   UNL     1       5.232   4.361  15.084  0.00  0.00    +0.000 C 
ATOM     11  C   UNL     1       5.096   5.878  15.316  0.00  0.00    +0.000 C 
ATOM     12  C   UNL     1       6.454   6.442  15.763  0.00  0.00    +0.000 C 
ENDBRANCH   3   5
BRANCH   1  17
ATOM     13  C   UNL     1       1.812   4.865  20.497  0.00  0.00    +0.000 A 
ATOM     14  C   UNL     1       1.918   3.954  21.564  0.00  0.00    +0.000 A 
ATOM     15  C   UNL     1       2.685   2.805  21.448  0.00  0.00    +0.000 A 
ATOM     16  C   UNL     1       3.354   2.545  20.259  0.00  0.00    +0.000 A 
ATOM     17  C   UNL     1       3.268   3.421  19.156  0.00  0.00    +0.000 A 
ATOM     18  C   UNL     1       2.517   4.619  19.280  0.00  0.00    +0.000 A 
ATOM     19  C   UNL     1       2.382   5.623  18.161  0.00  0.00    +0.000 C 
BRANCH  13  21
ATOM     20  C   UNL     1       1.681   7.364  20.948  0.00  0.00    +0.000 C 
ATOM     21  C   UNL     1       0.914   6.071  20.715  0.00  0.00    +0.000 C 
ENDBRANCH  13  21
ENDBRANCH   1  17
TORSDOF 3
ENDMDL
MODEL 8
REMARK VINA RESULT:      -6.3      2.462      3.494
REMARK  Name = 
REMARK  5 active torsions:
REMARK  status: ('A' for Active; 'I' for Inactive)
REMARK    1  A    between atoms: C_1  and  C_2
REMARK    2  A    between atoms: C_2  and  C_3
REMARK    3  A    between atoms: C_7  and  C_8
REMARK    4  A    between atoms: N_10  and  C_11
REMARK    5  A    between atoms: C_19  and  C_20
REMARK                            x       y       z     vdW  Elec       q    Type
REMARK                         _______ _______ _______ _____ _____    ______ ____
ROOT
ATOM      1  C   UNL     1       1.912   6.735  20.189  0.00  0.00    +0.000 C 
ATOM      2  O   UNL     1       1.352   6.270  21.171  0.00  0.00    +0.000 OA
ATOM      3  N   UNL     1       2.799   6.003  19.418  0.00  0.00    +0.000 N 
ATOM      4  H   UNL     1       3.418   6.528  18.814  0.00  0.00    +0.000 HD
ENDROOT
BRANCH   3   5
ATOM      5  C   UNL     1       3.176   4.616  19.696  0.00  0.00    +0.000 C 
ATOM      6  C   UNL     1       4.384   4.172  18.827  0.00  0.00    +0.000 C 
ATOM      7  N   UNL     1       4.018   3.089  17.873  0.00  0.00    +0.000 NA
ATOM      8  C   UNL     1       3.625   1.894  18.654  0.00  0.00    +0.000 C 
ATOM      9  C   UNL     1       2.488   2.208  19.641  0.00  0.00    +0.000 C 
ATOM     10  C   UNL     1       1.995   3.651  19.413  0.00  0.00    +0.000 C 
ATOM     11  C   UNL     1       1.604   3.736  17.925  0.00  0.00    +0.000 C 
ATOM     12  C   UNL     1       2.861   3.531  17.063  0.00  0.00    +0.000 C 
ENDBRANCH   3   5
BRANCH   1  17
ATOM     13  C   UNL     1       0.896  10.465  19.873  0.00  0.00    +0.000 A 
ATOM     14  C   UNL     1       1.355  10.701  18.565  0.00  0.00    +0.000 A 
ATOM     15  C   UNL     1       1.950   9.691  17.825  0.00  0.00    +0.000 A 
ATOM     16  C   UNL     1       2.098   8.428  18.384  0.00  0.00    +0.000 A 
ATOM     17  C   UNL     1       1.665   8.146  19.697  0.00  0.00    +0.000 A 
ATOM     18  C   UNL     1       1.021   9.164  20.448  0.00  0.00    +0.000 A 
ATOM     19  C   UNL     1       0.509   8.950  21.851  0.00  0.00    +0.000 C 
BRANCH  13  21
ATOM     20  C   UNL     1      -1.082  12.047  20.104  0.00  0.00    +0.000 C 
ATOM     21  C   UNL     1       0.297  11.651  20.611  0.00  0.00    +0.000 C 
ENDBRANCH  13  21
ENDBRANCH   1  17
TORSDOF 3
ENDMDL
MODEL 9
REMARK VINA RESULT:      -6.2      3.149      7.505
REMARK  Name = 
REMARK  5 active torsions:
REMARK  status: ('A' for Active; 'I' for Inactive)
REMARK    1  A    between atoms: C_1  and  C_2
REMARK    2  A    between atoms: C_2  and  C_3
REMARK    3  A    between atoms: C_7  and  C_8
REMARK    4  A    between atoms: N_10  and  C_11
REMARK    5  A    between atoms: C_19  and  C_20
REMARK                            x       y       z     vdW  Elec       q    Type
REMARK                         _______ _______ _______ _____ _____    ______ ____
ROOT
ATOM      1  C   UNL     1       6.577   5.354  16.152  0.00  0.00    +0.000 C 
ATOM      2  O   UNL     1       7.494   5.762  16.850  0.00  0.00    +0.000 OA
ATOM      3  N   UNL     1       5.275   5.256  16.613  0.00  0.00    +0.000 N 
ATOM      4  H   UNL     1       4.649   4.659  16.087  0.00  0.00    +0.000 HD
ENDROOT
BRANCH   3   5
ATOM      5  C   UNL     1       4.857   5.607  17.971  0.00  0.00    +0.000 C 
ATOM      6  C   UNL     1       5.127   4.445  18.965  0.00  0.00    +0.000 C 
ATOM      7  N   UNL     1       3.866   3.889  19.530  0.00  0.00    +0.000 NA
ATOM      8  C   UNL     1       3.203   4.948  20.323  0.00  0.00    +0.000 C 
ATOM      9  C   UNL     1       2.956   6.215  19.485  0.00  0.00    +0.000 C 
ATOM     10  C   UNL     1       3.342   5.942  18.018  0.00  0.00    +0.000 C 
ATOM     11  C   UNL     1       2.527   4.708  17.585  0.00  0.00    +0.000 C 
ATOM     12  C   UNL     1       2.973   3.495  18.418  0.00  0.00    +0.000 C 
ENDBRANCH   3   5
BRANCH   1  17
ATOM     13  C   UNL     1       6.288   3.675  12.668  0.00  0.00    +0.000 A 
ATOM     14  C   UNL     1       7.286   4.405  11.996  0.00  0.00    +0.000 A 
ATOM     15  C   UNL     1       8.020   5.380  12.653  0.00  0.00    +0.000 A 
ATOM     16  C   UNL     1       7.765   5.644  13.993  0.00  0.00    +0.000 A 
ATOM     17  C   UNL     1       6.766   4.948  14.706  0.00  0.00    +0.000 A 
ATOM     18  C   UNL     1       6.036   3.921  14.051  0.00  0.00    +0.000 A 
ATOM     19  C   UNL     1       4.962   3.112  14.737  0.00  0.00    +0.000 C 
BRANCH  13  21
ATOM     20  C   UNL     1       4.229   3.213  11.249  0.00  0.00    +0.000 C 
ATOM     21  C   UNL     1       5.515   2.659  11.844  0.00  0.00    +0.000 C 
ENDBRANCH  13  21
ENDBRANCH   1  17
TORSDOF 3
ENDMDL
