MODEL 1
REMARK VINA RESULT:      -7.5      0.000      0.000
REMARK  Name = 
REMARK  11 active torsions:
REMARK  status: ('A' for Active; 'I' for Inactive)
REMARK    1  A    between atoms: C_1  and  N_2
REMARK    2  A    between atoms: N_2  and  C_3
REMARK    3  A    between atoms: N_2  and  C_4
REMARK    4  A    between atoms: C_9  and  C_10
REMARK    5  A    between atoms: C_10  and  N_11
REMARK    6  A    between atoms: C_12  and  C_14
REMARK    7  A    between atoms: C_17  and  C_18
REMARK    8  A    between atoms: C_18  and  C_19
REMARK    9  A    between atoms: C_19  and  N_20
REMARK   10  A    between atoms: N_20  and  C_21
REMARK   11  A    between atoms: C_21  and  C_22
REMARK                            x       y       z     vdW  Elec       q    Type
REMARK                         _______ _______ _______ _____ _____    ______ ____
ROOT
ATOM      1  C   UNL     1       2.080   7.466  18.964  0.00  0.00    +0.000 A 
ATOM      2  C   UNL     1       1.835   6.988  20.242  0.00  0.00    +0.000 A 
ATOM      3  S   UNL     1       2.329   5.365  20.394  0.00  0.00    +0.000 S 
ATOM      4  C   UNL     1       2.840   5.380  18.748  0.00  0.00    +0.000 A 
ATOM      5  N   UNL     1       2.677   6.528  18.111  0.00  0.00    +0.000 NA
ENDROOT
BRANCH   1   7
ATOM      6  N   UNL     1       1.050   9.570  19.527  0.00  0.00    +0.000 N 
ATOM      7  C   UNL     1       1.742   8.839  18.581  0.00  0.00    +0.000 C 
ATOM      8  O   UNL     1       2.081   9.305  17.500  0.00  0.00    +0.000 OA
ATOM      9  H   UNL     1       1.017   9.160  20.452  0.00  0.00    +0.000 HD
BRANCH   6  10
ATOM     10  C   UNL     1       0.814  10.994  19.322  0.00  0.00    +0.000 C 
BRANCH  10  16
ATOM     11  C   UNL     1      -1.233  12.046  20.471  0.00  0.00    +0.000 A 
ATOM     12  C   UNL     1      -2.586  12.437  20.371  0.00  0.00    +0.000 A 
ATOM     13  C   UNL     1      -3.342  12.220  19.218  0.00  0.00    +0.000 A 
ATOM     14  C   UNL     1      -2.771  11.588  18.128  0.00  0.00    +0.000 A 
ATOM     15  C   UNL     1      -1.437  11.193  18.184  0.00  0.00    +0.000 A 
ATOM     16  C   UNL     1      -0.641  11.433  19.325  0.00  0.00    +0.000 A 
BRANCH  11  18
ATOM     17  C   UNL     1      -0.400  13.587  22.220  0.00  0.00    +0.000 C 
ATOM     18  N   UNL     1      -0.509  12.226  21.672  0.00  0.00    +0.000 N 
ATOM     19  C   UNL     1      -0.810  11.212  22.689  0.00  0.00    +0.000 C 
ENDBRANCH  11  18
ENDBRANCH  10  16
ENDBRANCH   6  10
ENDBRANCH   1   7
BRANCH   4  20
ATOM     20  C   UNL     1       3.465   4.136  18.179  0.00  0.00    +0.000 C 
BRANCH  20  21
ATOM     21  C   UNL     1       4.923   3.933  18.618  0.00  0.00    +0.000 C 
BRANCH  21  22
ATOM     22  N   UNL     1       5.756   5.121  18.388  0.00  0.00    +0.000 NA
ATOM     23  H   UNL     1       5.936   5.568  19.290  0.00  0.00    +0.000 HD
BRANCH  22  24
ATOM     24  C   UNL     1       7.061   4.780  17.812  0.00  0.00    +0.000 C 
BRANCH  24  25
ATOM     25  C   UNL     1       7.018   4.615  16.325  0.00  0.00    +0.000 A 
ATOM     26  N   UNL     1       7.712   5.298  15.434  0.00  0.00    +0.000 NA
ATOM     27  C   UNL     1       7.307   4.828  14.211  0.00  0.00    +0.000 A 
ATOM     28  C   UNL     1       7.717   5.214  12.928  0.00  0.00    +0.000 A 
ATOM     29  C   UNL     1       7.112   4.607  11.821  0.00  0.00    +0.000 A 
ATOM     30  C   UNL     1       6.123   3.635  11.990  0.00  0.00    +0.000 A 
ATOM     31  C   UNL     1       5.720   3.218  13.266  0.00  0.00    +0.000 A 
ATOM     32  C   UNL     1       6.341   3.840  14.352  0.00  0.00    +0.000 A 
ATOM     33  N   UNL     1       6.208   3.690  15.710  0.00  0.00    +0.000 N 
ATOM     34  H   UNL     1       5.603   3.030  16.174  0.00  0.00    +0.000 HD
ENDBRANCH  24  25
ENDBRANCH  22  24
ENDBRANCH  21  22
ENDBRANCH  20  21
ENDBRANCH   4  20
TORSDOF 9
ENDMDL
MODEL 2
REMARK VINA RESULT:      -7.5      2.080      9.912
REMARK  Name = 
REMARK  11 active torsions:
REMARK  status: ('A' for Active; 'I' for Inactive)
REMARK    1  A    between atoms: C_1  and  N_2
REMARK    2  A    between atoms: N_2  and  C_3
REMARK    3  A    between atoms: N_2  and  C_4
REMARK    4  A    between atoms: C_9  and  C_10
REMARK    5  A    between atoms: C_10  and  N_11
REMARK    6  A    between atoms: C_12  and  C_14
REMARK    7  A    between atoms: C_17  and  C_18
REMARK    8  A    between atoms: C_18  and  C_19
REMARK    9  A    between atoms: C_19  and  N_20
REMARK   10  A    between atoms: N_20  and  C_21
REMARK   11  A    between atoms: C_21  and  C_22
REMARK                            x       y       z     vdW  Elec       q    Type
REMARK                         _______ _______ _______ _____ _____    ______ ____
ROOT
ATOM      1  C   UNL     1       1.344   9.263  19.609  0.00  0.00    +0.000 A 
ATOM      2  C   UNL     1       0.836   8.522  20.665  0.00  0.00    +0.000 A 
ATOM      3  S   UNL     1       0.194   9.538  21.873  0.00  0.00    +0.000 S 
ATOM      4  C   UNL     1       0.629  10.913  20.929  0.00  0.00    +0.000 A 
ATOM      5  N   UNL     1       1.205  10.648  19.767  0.00  0.00    +0.000 NA
ENDROOT
BRANCH   1   7
ATOM      6  N   UNL     1       2.789   7.554  18.718  0.00  0.00    +0.000 N 
ATOM      7  C   UNL     1       1.953   8.619  18.443  0.00  0.00    +0.000 C 
ATOM      8  O   UNL     1       1.707   8.991  17.303  0.00  0.00    +0.000 OA
ATOM      9  H   UNL     1       2.746   7.202  19.666  0.00  0.00    +0.000 HD
BRANCH   6  10
ATOM     10  C   UNL     1       3.310   6.734  17.631  0.00  0.00    +0.000 C 
BRANCH  10  16
ATOM     11  C   UNL     1       4.058   4.279  17.445  0.00  0.00    +0.000 A 
ATOM     12  C   UNL     1       3.721   2.916  17.592  0.00  0.00    +0.000 A 
ATOM     13  C   UNL     1       2.447   2.500  17.982  0.00  0.00    +0.000 A 
ATOM     14  C   UNL     1       1.460   3.439  18.223  0.00  0.00    +0.000 A 
ATOM     15  C   UNL     1       1.754   4.794  18.097  0.00  0.00    +0.000 A 
ATOM     16  C   UNL     1       3.044   5.242  17.738  0.00  0.00    +0.000 A 
BRANCH  11  18
ATOM     17  C   UNL     1       6.418   4.796  17.986  0.00  0.00    +0.000 C 
ATOM     18  N   UNL     1       5.340   4.669  16.992  0.00  0.00    +0.000 N 
ATOM     19  C   UNL     1       5.757   3.978  15.767  0.00  0.00    +0.000 C 
ENDBRANCH  11  18
ENDBRANCH  10  16
ENDBRANCH   6  10
ENDBRANCH   1   7
BRANCH   4  20
ATOM     20  C   UNL     1       0.289  12.280  21.455  0.00  0.00    +0.000 C 
BRANCH  20  21
ATOM     21  C   UNL     1      -1.155  12.394  21.965  0.00  0.00    +0.000 C 
BRANCH  21  22
ATOM     22  N   UNL     1      -1.929  13.421  21.254  0.00  0.00    +0.000 NA
ATOM     23  H   UNL     1      -1.421  13.676  20.403  0.00  0.00    +0.000 HD
BRANCH  22  24
ATOM     24  C   UNL     1      -3.246  12.931  20.834  0.00  0.00    +0.000 C 
BRANCH  24  25
ATOM     25  C   UNL     1      -3.204  12.180  19.540  0.00  0.00    +0.000 A 
ATOM     26  N   UNL     1      -2.235  11.390  19.117  0.00  0.00    +0.000 NA
ATOM     27  C   UNL     1      -2.620  10.966  17.871  0.00  0.00    +0.000 A 
ATOM     28  C   UNL     1      -1.957  10.120  16.973  0.00  0.00    +0.000 A 
ATOM     29  C   UNL     1      -2.545   9.874  15.727  0.00  0.00    +0.000 A 
ATOM     30  C   UNL     1      -3.769  10.455  15.386  0.00  0.00    +0.000 A 
ATOM     31  C   UNL     1      -4.459  11.282  16.283  0.00  0.00    +0.000 A 
ATOM     32  C   UNL     1      -3.849  11.510  17.518  0.00  0.00    +0.000 A 
ATOM     33  N   UNL     1      -4.221  12.243  18.618  0.00  0.00    +0.000 N 
ATOM     34  H   UNL     1      -5.084  12.756  18.721  0.00  0.00    +0.000 HD
ENDBRANCH  24  25
ENDBRANCH  22  24
ENDBRANCH  21  22
ENDBRANCH  20  21
ENDBRANCH   4  20
TORSDOF 9
ENDMDL
MODEL 3
REMARK VINA RESULT:      -7.5      1.483      2.226
REMARK  Name = 
REMARK  11 active torsions:
REMARK  status: ('A' for Active; 'I' for Inactive)
REMARK    1  A    between atoms: C_1  and  N_2
REMARK    2  A    between atoms: N_2  and  C_3
REMARK    3  A    between atoms: N_2  and  C_4
REMARK    4  A    between atoms: C_9  and  C_10
REMARK    5  A    between atoms: C_10  and  N_11
REMARK    6  A    between atoms: C_12  and  C_14
REMARK    7  A    between atoms: C_17  and  C_18
REMARK    8  A    between atoms: C_18  and  C_19
REMARK    9  A    between atoms: C_19  and  N_20
REMARK   10  A    between atoms: N_20  and  C_21
REMARK   11  A    between atoms: C_21  and  C_22
REMARK                            x       y       z     vdW  Elec       q    Type
REMARK                         _______ _______ _______ _____ _____    ______ ____
ROOT
ATOM      1  C   UNL     1       2.154   7.258  19.504  0.00  0.00    +0.000 A 
ATOM      2  C   UNL     1       1.556   6.638  20.591  0.00  0.00    +0.000 A 
ATOM      3  S   UNL     1       2.103   5.034  20.757  0.00  0.00    +0.000 S 
ATOM      4  C   UNL     1       3.105   5.245  19.371  0.00  0.00    +0.000 A 
ATOM      5  N   UNL     1       3.061   6.445  18.813  0.00  0.00    +0.000 NA
ENDROOT
BRANCH   1   7
ATOM      6  N   UNL     1       1.065   9.336  20.055  0.00  0.00    +0.000 N 
ATOM      7  C   UNL     1       1.847   8.646  19.149  0.00  0.00    +0.000 C 
ATOM      8  O   UNL     1       2.285   9.159  18.126  0.00  0.00    +0.000 OA
ATOM      9  H   UNL     1       0.946   8.887  20.955  0.00  0.00    +0.000 HD
BRANCH   6  10
ATOM     10  C   UNL     1       0.842  10.767  19.888  0.00  0.00    +0.000 C 
BRANCH  10  16
ATOM     11  C   UNL     1       0.035  12.878  21.117  0.00  0.00    +0.000 A 
ATOM     12  C   UNL     1      -0.717  13.424  22.180  0.00  0.00    +0.000 A 
ATOM     13  C   UNL     1      -1.378  12.626  23.114  0.00  0.00    +0.000 A 
ATOM     14  C   UNL     1      -1.296  11.248  23.024  0.00  0.00    +0.000 A 
ATOM     15  C   UNL     1      -0.570  10.669  21.985  0.00  0.00    +0.000 A 
ATOM     16  C   UNL     1       0.078  11.455  21.008  0.00  0.00    +0.000 A 
BRANCH  11  18
ATOM     17  C   UNL     1      -0.031  14.495  19.244  0.00  0.00    +0.000 C 
ATOM     18  N   UNL     1       0.742  13.712  20.220  0.00  0.00    +0.000 N 
ATOM     19  C   UNL     1       1.814  14.480  20.864  0.00  0.00    +0.000 C 
ENDBRANCH  11  18
ENDBRANCH  10  16
ENDBRANCH   6  10
ENDBRANCH   1   7
BRANCH   4  20
ATOM     20  C   UNL     1       3.974   4.099  18.932  0.00  0.00    +0.000 C 
BRANCH  20  21
ATOM     21  C   UNL     1       5.404   4.172  19.487  0.00  0.00    +0.000 C 
BRANCH  21  22
ATOM     22  N   UNL     1       6.426   3.973  18.451  0.00  0.00    +0.000 NA
ATOM     23  H   UNL     1       6.111   3.226  17.826  0.00  0.00    +0.000 HD
BRANCH  22  24
ATOM     24  C   UNL     1       6.619   5.169  17.623  0.00  0.00    +0.000 C 
BRANCH  24  25
ATOM     25  C   UNL     1       6.589   4.874  16.156  0.00  0.00    +0.000 A 
ATOM     26  N   UNL     1       5.772   4.045  15.534  0.00  0.00    +0.000 NA
ATOM     27  C   UNL     1       6.149   4.073  14.216  0.00  0.00    +0.000 A 
ATOM     28  C   UNL     1       5.622   3.373  13.123  0.00  0.00    +0.000 A 
ATOM     29  C   UNL     1       6.221   3.541  11.869  0.00  0.00    +0.000 A 
ATOM     30  C   UNL     1       7.318   4.392  11.708  0.00  0.00    +0.000 A 
ATOM     31  C   UNL     1       7.840   5.120  12.785  0.00  0.00    +0.000 A 
ATOM     32  C   UNL     1       7.223   4.933  14.024  0.00  0.00    +0.000 A 
ATOM     33  N   UNL     1       7.455   5.466  15.268  0.00  0.00    +0.000 N 
ATOM     34  H   UNL     1       8.155   6.157  15.493  0.00  0.00    +0.000 HD
ENDBRANCH  24  25
ENDBRANCH  22  24
ENDBRANCH  21  22
ENDBRANCH  20  21
ENDBRANCH   4  20
TORSDOF 9
ENDMDL
MODEL 4
REMARK VINA RESULT:      -7.4      2.485      3.684
REMARK  Name = 
REMARK  11 active torsions:
REMARK  status: ('A' for Active; 'I' for Inactive)
REMARK    1  A    between atoms: C_1  and  N_2
REMARK    2  A    between atoms: N_2  and  C_3
REMARK    3  A    between atoms: N_2  and  C_4
REMARK    4  A    between atoms: C_9  and  C_10
REMARK    5  A    between atoms: C_10  and  N_11
REMARK    6  A    between atoms: C_12  and  C_14
REMARK    7  A    between atoms: C_17  and  C_18
REMARK    8  A    between atoms: C_18  and  C_19
REMARK    9  A    between atoms: C_19  and  N_20
REMARK   10  A    between atoms: N_20  and  C_21
REMARK   11  A    between atoms: C_21  and  C_22
REMARK                            x       y       z     vdW  Elec       q    Type
REMARK                         _______ _______ _______ _____ _____    ______ ____
ROOT
ATOM      1  C   UNL     1       2.312   5.793  19.979  0.00  0.00    +0.000 A 
ATOM      2  C   UNL     1       1.390   5.221  20.843  0.00  0.00    +0.000 A 
ATOM      3  S   UNL     1       1.753   3.581  21.127  0.00  0.00    +0.000 S 
ATOM      4  C   UNL     1       3.117   3.714  20.082  0.00  0.00    +0.000 A 
ATOM      5  N   UNL     1       3.317   4.913  19.556  0.00  0.00    +0.000 NA
ENDROOT
BRANCH   1   7
ATOM      6  N   UNL     1       1.363   7.979  20.332  0.00  0.00    +0.000 N 
ATOM      7  C   UNL     1       2.218   7.198  19.577  0.00  0.00    +0.000 C 
ATOM      8  O   UNL     1       2.879   7.646  18.649  0.00  0.00    +0.000 OA
ATOM      9  H   UNL     1       1.042   7.560  21.196  0.00  0.00    +0.000 HD
BRANCH   6  10
ATOM     10  C   UNL     1       1.322   9.422  20.131  0.00  0.00    +0.000 C 
BRANCH  10  16
ATOM     11  C   UNL     1       0.182  11.592  20.912  0.00  0.00    +0.000 A 
ATOM     12  C   UNL     1      -0.648  12.227  21.862  0.00  0.00    +0.000 A 
ATOM     13  C   UNL     1      -1.169  11.553  22.967  0.00  0.00    +0.000 A 
ATOM     14  C   UNL     1      -0.863  10.220  23.168  0.00  0.00    +0.000 A 
ATOM     15  C   UNL     1      -0.053   9.554  22.251  0.00  0.00    +0.000 A 
ATOM     16  C   UNL     1       0.457  10.204  21.106  0.00  0.00    +0.000 A 
BRANCH  11  18
ATOM     17  C   UNL     1      -0.170  12.875  18.824  0.00  0.00    +0.000 C 
ATOM     18  N   UNL     1       0.743  12.315  19.834  0.00  0.00    +0.000 N 
ATOM     19  C   UNL     1       1.797  13.248  20.247  0.00  0.00    +0.000 C 
ENDBRANCH  11  18
ENDBRANCH  10  16
ENDBRANCH   6  10
ENDBRANCH   1   7
BRANCH   4  20
ATOM     20  C   UNL     1       3.990   2.506  19.884  0.00  0.00    +0.000 C 
BRANCH  20  21
ATOM     21  C   UNL     1       3.918   1.930  18.462  0.00  0.00    +0.000 C 
BRANCH  21  22
ATOM     22  N   UNL     1       3.621   2.953  17.449  0.00  0.00    +0.000 NA
ATOM     23  H   UNL     1       3.436   3.838  17.929  0.00  0.00    +0.000 HD
BRANCH  22  24
ATOM     24  C   UNL     1       4.753   3.185  16.546  0.00  0.00    +0.000 C 
BRANCH  24  25
ATOM     25  C   UNL     1       5.652   4.288  17.010  0.00  0.00    +0.000 A 
ATOM     26  N   UNL     1       6.467   4.260  18.048  0.00  0.00    +0.000 NA
ATOM     27  C   UNL     1       7.044   5.502  18.100  0.00  0.00    +0.000 A 
ATOM     28  C   UNL     1       7.978   6.014  19.011  0.00  0.00    +0.000 A 
ATOM     29  C   UNL     1       8.382   7.347  18.877  0.00  0.00    +0.000 A 
ATOM     30  C   UNL     1       7.871   8.151  17.854  0.00  0.00    +0.000 A 
ATOM     31  C   UNL     1       6.958   7.647  16.919  0.00  0.00    +0.000 A 
ATOM     32  C   UNL     1       6.572   6.314  17.076  0.00  0.00    +0.000 A 
ATOM     33  N   UNL     1       5.721   5.502  16.368  0.00  0.00    +0.000 N 
ATOM     34  H   UNL     1       5.217   5.761  15.533  0.00  0.00    +0.000 HD
ENDBRANCH  24  25
ENDBRANCH  22  24
ENDBRANCH  21  22
ENDBRANCH  20  21
ENDBRANCH   4  20
TORSDOF 9
ENDMDL
MODEL 5
REMARK VINA RESULT:      -7.4      1.887      3.338
REMARK  Name = 
REMARK  11 active torsions:
REMARK  status: ('A' for Active; 'I' for Inactive)
REMARK    1  A    between atoms: C_1  and  N_2
REMARK    2  A    between atoms: N_2  and  C_3
REMARK    3  A    between atoms: N_2  and  C_4
REMARK    4  A    between atoms: C_9  and  C_10
REMARK    5  A    between atoms: C_10  and  N_11
REMARK    6  A    between atoms: C_12  and  C_14
REMARK    7  A    between atoms: C_17  and  C_18
REMARK    8  A    between atoms: C_18  and  C_19
REMARK    9  A    between atoms: C_19  and  N_20
REMARK   10  A    between atoms: N_20  and  C_21
REMARK   11  A    between atoms: C_21  and  C_22
REMARK                            x       y       z     vdW  Elec       q    Type
REMARK                         _______ _______ _______ _____ _____    ______ ____
ROOT
ATOM      1  C   UNL     1       1.742   8.460  19.431  0.00  0.00    +0.000 A 
ATOM      2  C   UNL     1       2.162   8.010  18.188  0.00  0.00    +0.000 A 
ATOM      3  S   UNL     1       2.524   6.346  18.231  0.00  0.00    +0.000 S 
ATOM      4  C   UNL     1       2.106   6.310  19.903  0.00  0.00    +0.000 A 
ATOM      5  N   UNL     1       1.699   7.462  20.413  0.00  0.00    +0.000 NA
ENDROOT
BRANCH   1   7
ATOM      6  N   UNL     1       0.882  10.155  20.913  0.00  0.00    +0.000 N 
ATOM      7  C   UNL     1       1.371   9.860  19.654  0.00  0.00    +0.000 C 
ATOM      8  O   UNL     1       1.516  10.709  18.784  0.00  0.00    +0.000 OA
ATOM      9  H   UNL     1       1.010   9.430  21.609  0.00  0.00    +0.000 HD
BRANCH   6  10
ATOM     10  C   UNL     1       0.646  11.540  21.299  0.00  0.00    +0.000 C 
BRANCH  10  16
ATOM     11  C   UNL     1      -1.653  12.366  20.492  0.00  0.00    +0.000 A 
ATOM     12  C   UNL     1      -2.990  12.679  20.821  0.00  0.00    +0.000 A 
ATOM     13  C   UNL     1      -3.479  12.590  22.125  0.00  0.00    +0.000 A 
ATOM     14  C   UNL     1      -2.637  12.197  23.150  0.00  0.00    +0.000 A 
ATOM     15  C   UNL     1      -1.312  11.872  22.867  0.00  0.00    +0.000 A 
ATOM     16  C   UNL     1      -0.804  11.921  21.550  0.00  0.00    +0.000 A 
BRANCH  11  18
ATOM     17  C   UNL     1      -1.964  11.950  18.071  0.00  0.00    +0.000 C 
ATOM     18  N   UNL     1      -1.172  12.522  19.171  0.00  0.00    +0.000 N 
ATOM     19  C   UNL     1      -0.677  13.874  18.890  0.00  0.00    +0.000 C 
ENDBRANCH  11  18
ENDBRANCH  10  16
ENDBRANCH   6  10
ENDBRANCH   1   7
BRANCH   4  20
ATOM     20  C   UNL     1       2.183   4.999  20.634  0.00  0.00    +0.000 C 
BRANCH  20  21
ATOM     21  C   UNL     1       1.439   3.861  19.921  0.00  0.00    +0.000 C 
BRANCH  21  22
ATOM     22  N   UNL     1       2.253   2.645  19.789  0.00  0.00    +0.000 NA
ATOM     23  H   UNL     1       2.184   2.314  18.823  0.00  0.00    +0.000 HD
BRANCH  22  24
ATOM     24  C   UNL     1       3.673   2.896  20.055  0.00  0.00    +0.000 C 
BRANCH  24  25
ATOM     25  C   UNL     1       4.416   3.379  18.849  0.00  0.00    +0.000 A 
ATOM     26  N   UNL     1       4.033   3.272  17.590  0.00  0.00    +0.000 NA
ATOM     27  C   UNL     1       5.049   3.815  16.846  0.00  0.00    +0.000 A 
ATOM     28  C   UNL     1       5.163   3.947  15.456  0.00  0.00    +0.000 A 
ATOM     29  C   UNL     1       6.337   4.502  14.931  0.00  0.00    +0.000 A 
ATOM     30  C   UNL     1       7.370   4.919  15.774  0.00  0.00    +0.000 A 
ATOM     31  C   UNL     1       7.261   4.818  17.167  0.00  0.00    +0.000 A 
ATOM     32  C   UNL     1       6.080   4.262  17.663  0.00  0.00    +0.000 A 
ATOM     33  N   UNL     1       5.632   4.014  18.937  0.00  0.00    +0.000 N 
ATOM     34  H   UNL     1       6.121   4.241  19.789  0.00  0.00    +0.000 HD
ENDBRANCH  24  25
ENDBRANCH  22  24
ENDBRANCH  21  22
ENDBRANCH  20  21
ENDBRANCH   4  20
TORSDOF 9
ENDMDL
MODEL 6
REMARK VINA RESULT:      -7.4      1.026      2.366
REMARK  Name = 
REMARK  11 active torsions:
REMARK  status: ('A' for Active; 'I' for Inactive)
REMARK    1  A    between atoms: C_1  and  N_2
REMARK    2  A    between atoms: N_2  and  C_3
REMARK    3  A    between atoms: N_2  and  C_4
REMARK    4  A    between atoms: C_9  and  C_10
REMARK    5  A    between atoms: C_10  and  N_11
REMARK    6  A    between atoms: C_12  and  C_14
REMARK    7  A    between atoms: C_17  and  C_18
REMARK    8  A    between atoms: C_18  and  C_19
REMARK    9  A    between atoms: C_19  and  N_20
REMARK   10  A    between atoms: N_20  and  C_21
REMARK   11  A    between atoms: C_21  and  C_22
REMARK                            x       y       z     vdW  Elec       q    Type
REMARK                         _______ _______ _______ _____ _____    ______ ____
ROOT
ATOM      1  C   UNL     1       1.963   7.857  19.004  0.00  0.00    +0.000 A 
ATOM      2  C   UNL     1       1.583   7.496  20.288  0.00  0.00    +0.000 A 
ATOM      3  S   UNL     1       2.122   5.925  20.667  0.00  0.00    +0.000 S 
ATOM      4  C   UNL     1       2.831   5.804  19.100  0.00  0.00    +0.000 A 
ATOM      5  N   UNL     1       2.699   6.873  18.331  0.00  0.00    +0.000 NA
ENDROOT
BRANCH   1   7
ATOM      6  N   UNL     1       0.690   9.897  19.157  0.00  0.00    +0.000 N 
ATOM      7  C   UNL     1       1.618   9.165  18.441  0.00  0.00    +0.000 C 
ATOM      8  O   UNL     1       2.145   9.582  17.418  0.00  0.00    +0.000 OA
ATOM      9  H   UNL     1       0.490   9.552  20.087  0.00  0.00    +0.000 HD
BRANCH   6  10
ATOM     10  C   UNL     1       0.403  11.277  18.784  0.00  0.00    +0.000 C 
BRANCH  10  16
ATOM     11  C   UNL     1      -2.156  11.543  18.790  0.00  0.00    +0.000 A 
ATOM     12  C   UNL     1      -3.293  12.122  19.395  0.00  0.00    +0.000 A 
ATOM     13  C   UNL     1      -3.198  12.997  20.479  0.00  0.00    +0.000 A 
ATOM     14  C   UNL     1      -1.955  13.333  20.985  0.00  0.00    +0.000 A 
ATOM     15  C   UNL     1      -0.809  12.777  20.421  0.00  0.00    +0.000 A 
ATOM     16  C   UNL     1      -0.881  11.863  19.348  0.00  0.00    +0.000 A 
BRANCH  11  18
ATOM     17  C   UNL     1      -3.184   9.547  17.745  0.00  0.00    +0.000 C 
ATOM     18  N   UNL     1      -2.280  10.705  17.657  0.00  0.00    +0.000 N 
ATOM     19  C   UNL     1      -2.407  11.448  16.399  0.00  0.00    +0.000 C 
ENDBRANCH  11  18
ENDBRANCH  10  16
ENDBRANCH   6  10
ENDBRANCH   1   7
BRANCH   4  20
ATOM     20  C   UNL     1       3.573   4.546  18.744  0.00  0.00    +0.000 C 
BRANCH  20  21
ATOM     21  C   UNL     1       5.062   4.592  19.116  0.00  0.00    +0.000 C 
BRANCH  21  22
ATOM     22  N   UNL     1       5.815   5.575  18.326  0.00  0.00    +0.000 NA
ATOM     23  H   UNL     1       6.128   6.321  18.952  0.00  0.00    +0.000 HD
BRANCH  22  24
ATOM     24  C   UNL     1       7.018   4.996  17.718  0.00  0.00    +0.000 C 
BRANCH  24  25
ATOM     25  C   UNL     1       6.869   4.752  16.249  0.00  0.00    +0.000 A 
ATOM     26  N   UNL     1       6.054   3.890  15.670  0.00  0.00    +0.000 NA
ATOM     27  C   UNL     1       6.302   3.992  14.325  0.00  0.00    +0.000 A 
ATOM     28  C   UNL     1       5.721   3.295  13.257  0.00  0.00    +0.000 A 
ATOM     29  C   UNL     1       6.186   3.550  11.961  0.00  0.00    +0.000 A 
ATOM     30  C   UNL     1       7.203   4.481  11.736  0.00  0.00    +0.000 A 
ATOM     31  C   UNL     1       7.775   5.205  12.790  0.00  0.00    +0.000 A 
ATOM     32  C   UNL     1       7.292   4.932  14.071  0.00  0.00    +0.000 A 
ATOM     33  N   UNL     1       7.605   5.435  15.310  0.00  0.00    +0.000 N 
ATOM     34  H   UNL     1       8.275   6.165  15.499  0.00  0.00    +0.000 HD
ENDBRANCH  24  25
ENDBRANCH  22  24
ENDBRANCH  21  22
ENDBRANCH  20  21
ENDBRANCH   4  20
TORSDOF 9
ENDMDL
MODEL 7
REMARK VINA RESULT:      -7.3      4.371      5.812
REMARK  Name = 
REMARK  11 active torsions:
REMARK  status: ('A' for Active; 'I' for Inactive)
REMARK    1  A    between atoms: C_1  and  N_2
REMARK    2  A    between atoms: N_2  and  C_3
REMARK    3  A    between atoms: N_2  and  C_4
REMARK    4  A    between atoms: C_9  and  C_10
REMARK    5  A    between atoms: C_10  and  N_11
REMARK    6  A    between atoms: C_12  and  C_14
REMARK    7  A    between atoms: C_17  and  C_18
REMARK    8  A    between atoms: C_18  and  C_19
REMARK    9  A    between atoms: C_19  and  N_20
REMARK   10  A    between atoms: N_20  and  C_21
REMARK   11  A    between atoms: C_21  and  C_22
REMARK                            x       y       z     vdW  Elec       q    Type
REMARK                         _______ _______ _______ _____ _____    ______ ____
ROOT
ATOM      1  C   UNL     1       3.305   7.327  18.133  0.00  0.00    +0.000 A 
ATOM      2  C   UNL     1       3.073   6.128  18.789  0.00  0.00    +0.000 A 
ATOM      3  S   UNL     1       4.440   5.114  18.712  0.00  0.00    +0.000 S 
ATOM      4  C   UNL     1       5.270   6.322  17.806  0.00  0.00    +0.000 A 
ATOM      5  N   UNL     1       4.588   7.434  17.580  0.00  0.00    +0.000 NA
ENDROOT
BRANCH   1   7
ATOM      6  N   UNL     1       1.609   8.636  19.236  0.00  0.00    +0.000 N 
ATOM      7  C   UNL     1       2.280   8.371  18.057  0.00  0.00    +0.000 C 
ATOM      8  O   UNL     1       2.061   8.981  17.019  0.00  0.00    +0.000 OA
ATOM      9  H   UNL     1       2.019   8.231  20.069  0.00  0.00    +0.000 HD
BRANCH   6  10
ATOM     10  C   UNL     1       0.694   9.767  19.318  0.00  0.00    +0.000 C 
BRANCH  10  16
ATOM     11  C   UNL     1      -0.605  11.254  20.968  0.00  0.00    +0.000 A 
ATOM     12  C   UNL     1      -1.135  11.412  22.267  0.00  0.00    +0.000 A 
ATOM     13  C   UNL     1      -0.967  10.450  23.264  0.00  0.00    +0.000 A 
ATOM     14  C   UNL     1      -0.245   9.300  22.997  0.00  0.00    +0.000 A 
ATOM     15  C   UNL     1       0.289   9.103  21.725  0.00  0.00    +0.000 A 
ATOM     16  C   UNL     1       0.102  10.044  20.690  0.00  0.00    +0.000 A 
BRANCH  11  18
ATOM     17  C   UNL     1      -2.064  12.896  19.826  0.00  0.00    +0.000 C 
ATOM     18  N   UNL     1      -0.743  12.272  19.995  0.00  0.00    +0.000 N 
ATOM     19  C   UNL     1       0.361  13.238  20.008  0.00  0.00    +0.000 C 
ENDBRANCH  11  18
ENDBRANCH  10  16
ENDBRANCH   6  10
ENDBRANCH   1   7
BRANCH   4  20
ATOM     20  C   UNL     1       6.690   6.057  17.388  0.00  0.00    +0.000 C 
BRANCH  20  21
ATOM     21  C   UNL     1       7.655   5.911  18.574  0.00  0.00    +0.000 C 
BRANCH  21  22
ATOM     22  N   UNL     1       8.439   7.128  18.821  0.00  0.00    +0.000 NA
ATOM     23  H   UNL     1       9.422   6.925  18.619  0.00  0.00    +0.000 HD
BRANCH  22  24
ATOM     24  C   UNL     1       8.041   8.233  17.942  0.00  0.00    +0.000 C 
BRANCH  24  25
ATOM     25  C   UNL     1       8.601   9.552  18.374  0.00  0.00    +0.000 A 
ATOM     26  N   UNL     1       8.572  10.683  17.694  0.00  0.00    +0.000 NA
ATOM     27  C   UNL     1       9.240  11.597  18.467  0.00  0.00    +0.000 A 
ATOM     28  C   UNL     1       9.510  12.949  18.216  0.00  0.00    +0.000 A 
ATOM     29  C   UNL     1      10.262  13.666  19.154  0.00  0.00    +0.000 A 
ATOM     30  C   UNL     1      10.729  13.051  20.318  0.00  0.00    +0.000 A 
ATOM     31  C   UNL     1      10.445  11.708  20.598  0.00  0.00    +0.000 A 
ATOM     32  C   UNL     1       9.693  11.016  19.645  0.00  0.00    +0.000 A 
ATOM     33  N   UNL     1       9.234   9.724  19.582  0.00  0.00    +0.000 N 
ATOM     34  H   UNL     1       9.358   9.019  20.292  0.00  0.00    +0.000 HD
ENDBRANCH  24  25
ENDBRANCH  22  24
ENDBRANCH  21  22
ENDBRANCH  20  21
ENDBRANCH   4  20
TORSDOF 9
ENDMDL
MODEL 8
REMARK VINA RESULT:      -7.3      2.058      3.204
REMARK  Name = 
REMARK  11 active torsions:
REMARK  status: ('A' for Active; 'I' for Inactive)
REMARK    1  A    between atoms: C_1  and  N_2
REMARK    2  A    between atoms: N_2  and  C_3
REMARK    3  A    between atoms: N_2  and  C_4
REMARK    4  A    between atoms: C_9  and  C_10
REMARK    5  A    between atoms: C_10  and  N_11
REMARK    6  A    between atoms: C_12  and  C_14
REMARK    7  A    between atoms: C_17  and  C_18
REMARK    8  A    between atoms: C_18  and  C_19
REMARK    9  A    between atoms: C_19  and  N_20
REMARK   10  A    between atoms: N_20  and  C_21
REMARK   11  A    between atoms: C_21  and  C_22
REMARK                            x       y       z     vdW  Elec       q    Type
REMARK                         _______ _______ _______ _____ _____    ______ ____
ROOT
ATOM      1  C   UNL     1       1.524   9.029  19.012  0.00  0.00    +0.000 A 
ATOM      2  C   UNL     1       2.245   8.611  17.904  0.00  0.00    +0.000 A 
ATOM      3  S   UNL     1       2.938   7.077  18.168  0.00  0.00    +0.000 S 
ATOM      4  C   UNL     1       2.246   7.050  19.747  0.00  0.00    +0.000 A 
ATOM      5  N   UNL     1       1.520   8.109  20.068  0.00  0.00    +0.000 NA
ENDROOT
BRANCH   1   7
ATOM      6  N   UNL     1      -0.443  10.305  19.565  0.00  0.00    +0.000 N 
ATOM      7  C   UNL     1       0.832  10.320  19.034  0.00  0.00    +0.000 C 
ATOM      8  O   UNL     1       1.370  11.344  18.631  0.00  0.00    +0.000 OA
ATOM      9  H   UNL     1      -0.697   9.459  20.060  0.00  0.00    +0.000 HD
BRANCH   6  10
ATOM     10  C   UNL     1      -1.155  11.556  19.794  0.00  0.00    +0.000 C 
BRANCH  10  16
ATOM     11  C   UNL     1      -3.579  12.418  19.761  0.00  0.00    +0.000 A 
ATOM     12  C   UNL     1      -4.814  12.477  19.079  0.00  0.00    +0.000 A 
ATOM     13  C   UNL     1      -5.032  11.813  17.870  0.00  0.00    +0.000 A 
ATOM     14  C   UNL     1      -4.021  11.053  17.310  0.00  0.00    +0.000 A 
ATOM     15  C   UNL     1      -2.785  10.975  17.948  0.00  0.00    +0.000 A 
ATOM     16  C   UNL     1      -2.529  11.666  19.152  0.00  0.00    +0.000 A 
BRANCH  11  18
ATOM     17  C   UNL     1      -3.043  14.480  21.022  0.00  0.00    +0.000 C 
ATOM     18  N   UNL     1      -3.406  13.054  21.012  0.00  0.00    +0.000 N 
ATOM     19  C   UNL     1      -4.450  12.712  21.985  0.00  0.00    +0.000 C 
ENDBRANCH  11  18
ENDBRANCH  10  16
ENDBRANCH   6  10
ENDBRANCH   1   7
BRANCH   4  20
ATOM     20  C   UNL     1       2.467   5.836  20.606  0.00  0.00    +0.000 C 
BRANCH  20  21
ATOM     21  C   UNL     1       1.372   4.771  20.447  0.00  0.00    +0.000 C 
BRANCH  21  22
ATOM     22  N   UNL     1       1.841   3.577  19.732  0.00  0.00    +0.000 NA
ATOM     23  H   UNL     1       1.757   3.749  18.727  0.00  0.00    +0.000 HD
BRANCH  22  24
ATOM     24  C   UNL     1       3.255   3.290  19.998  0.00  0.00    +0.000 C 
BRANCH  24  25
ATOM     25  C   UNL     1       4.151   3.669  18.860  0.00  0.00    +0.000 A 
ATOM     26  N   UNL     1       3.865   3.602  17.573  0.00  0.00    +0.000 NA
ATOM     27  C   UNL     1       5.000   4.008  16.920  0.00  0.00    +0.000 A 
ATOM     28  C   UNL     1       5.247   4.116  15.545  0.00  0.00    +0.000 A 
ATOM     29  C   UNL     1       6.520   4.515  15.123  0.00  0.00    +0.000 A 
ATOM     30  C   UNL     1       7.523   4.804  16.051  0.00  0.00    +0.000 A 
ATOM     31  C   UNL     1       7.286   4.728  17.430  0.00  0.00    +0.000 A 
ATOM     32  C   UNL     1       6.007   4.327  17.823  0.00  0.00    +0.000 A 
ATOM     33  N   UNL     1       5.426   4.147  19.053  0.00  0.00    +0.000 N 
ATOM     34  H   UNL     1       5.866   4.316  19.945  0.00  0.00    +0.000 HD
ENDBRANCH  24  25
ENDBRANCH  22  24
ENDBRANCH  21  22
ENDBRANCH  20  21
ENDBRANCH   4  20
TORSDOF 9
ENDMDL
MODEL 9
REMARK VINA RESULT:      -7.2      2.827      9.802
REMARK  Name = 
REMARK  11 active torsions:
REMARK  status: ('A' for Active; 'I' for Inactive)
REMARK    1  A    between atoms: C_1  and  N_2
REMARK    2  A    between atoms: N_2  and  C_3
REMARK    3  A    between atoms: N_2  and  C_4
REMARK    4  A    between atoms: C_9  and  C_10
REMARK    5  A    between atoms: C_10  and  N_11
REMARK    6  A    between atoms: C_12  and  C_14
REMARK    7  A    between atoms: C_17  and  C_18
REMARK    8  A    between atoms: C_18  and  C_19
REMARK    9  A    between atoms: C_19  and  N_20
REMARK   10  A    between atoms: N_20  and  C_21
REMARK   11  A    between atoms: C_21  and  C_22
REMARK                            x       y       z     vdW  Elec       q    Type
REMARK                         _______ _______ _______ _____ _____    ______ ____
ROOT
ATOM      1  C   UNL     1       1.334   9.042  20.037  0.00  0.00    +0.000 A 
ATOM      2  C   UNL     1       1.184   8.282  21.187  0.00  0.00    +0.000 A 
ATOM      3  S   UNL     1       0.491   9.202  22.442  0.00  0.00    +0.000 S 
ATOM      4  C   UNL     1       0.430  10.567  21.391  0.00  0.00    +0.000 A 
ATOM      5  N   UNL     1       0.880  10.361  20.163  0.00  0.00    +0.000 NA
ENDROOT
BRANCH   1   7
ATOM      6  N   UNL     1       2.448   7.210  18.937  0.00  0.00    +0.000 N 
ATOM      7  C   UNL     1       1.909   8.476  18.814  0.00  0.00    +0.000 C 
ATOM      8  O   UNL     1       1.883   9.085  17.752  0.00  0.00    +0.000 OA
ATOM      9  H   UNL     1       2.221   6.724  19.796  0.00  0.00    +0.000 HD
BRANCH   6  10
ATOM     10  C   UNL     1       2.890   6.485  17.753  0.00  0.00    +0.000 C 
BRANCH  10  16
ATOM     11  C   UNL     1       4.783   4.780  18.111  0.00  0.00    +0.000 A 
ATOM     12  C   UNL     1       6.165   4.499  18.035  0.00  0.00    +0.000 A 
ATOM     13  C   UNL     1       7.099   5.452  17.629  0.00  0.00    +0.000 A 
ATOM     14  C   UNL     1       6.681   6.729  17.298  0.00  0.00    +0.000 A 
ATOM     15  C   UNL     1       5.325   7.044  17.353  0.00  0.00    +0.000 A 
ATOM     16  C   UNL     1       4.357   6.087  17.727  0.00  0.00    +0.000 A 
BRANCH  11  18
ATOM     17  C   UNL     1       3.121   3.020  17.591  0.00  0.00    +0.000 C 
ATOM     18  N   UNL     1       3.867   3.810  18.582  0.00  0.00    +0.000 N 
ATOM     19  C   UNL     1       4.392   3.007  19.692  0.00  0.00    +0.000 C 
ENDBRANCH  11  18
ENDBRANCH  10  16
ENDBRANCH   6  10
ENDBRANCH   1   7
BRANCH   4  20
ATOM     20  C   UNL     1      -0.159  11.848  21.912  0.00  0.00    +0.000 C 
BRANCH  20  21
ATOM     21  C   UNL     1      -0.009  13.027  20.939  0.00  0.00    +0.000 C 
BRANCH  21  22
ATOM     22  N   UNL     1      -1.297  13.630  20.575  0.00  0.00    +0.000 NA
ATOM     23  H   UNL     1      -1.239  13.955  19.606  0.00  0.00    +0.000 HD
BRANCH  22  24
ATOM     24  C   UNL     1      -2.400  12.664  20.636  0.00  0.00    +0.000 C 
BRANCH  24  25
ATOM     25  C   UNL     1      -2.637  11.967  19.333  0.00  0.00    +0.000 A 
ATOM     26  N   UNL     1      -1.859  11.061  18.769  0.00  0.00    +0.000 NA
ATOM     27  C   UNL     1      -2.461  10.748  17.578  0.00  0.00    +0.000 A 
ATOM     28  C   UNL     1      -2.052   9.850  16.582  0.00  0.00    +0.000 A 
ATOM     29  C   UNL     1      -2.825   9.742  15.421  0.00  0.00    +0.000 A 
ATOM     30  C   UNL     1      -3.982  10.508  15.257  0.00  0.00    +0.000 A 
ATOM     31  C   UNL     1      -4.420  11.390  16.254  0.00  0.00    +0.000 A 
ATOM     32  C   UNL     1      -3.629  11.478  17.402  0.00  0.00    +0.000 A 
ATOM     33  N   UNL     1      -3.744  12.213  18.556  0.00  0.00    +0.000 N 
ATOM     34  H   UNL     1      -4.499  12.842  18.783  0.00  0.00    +0.000 HD
ENDBRANCH  24  25
ENDBRANCH  22  24
ENDBRANCH  21  22
ENDBRANCH  20  21
ENDBRANCH   4  20
TORSDOF 9
ENDMDL
