MODEL 1
REMARK VINA RESULT:      -7.8      0.000      0.000
REMARK  Name = 
REMARK  8 active torsions:
REMARK  status: ('A' for Active; 'I' for Inactive)
REMARK    1  A    between atoms: C_1  and  O_2
REMARK    2  A    between atoms: O_2  and  C_3
REMARK    3  A    between atoms: C_6  and  C_7
REMARK    4  A    between atoms: C_7  and  C_9
REMARK    5  A    between atoms: C_10  and  O_11
REMARK    6  A    between atoms: C_10  and  C_12
REMARK    7  A    between atoms: N_14  and  N_15
REMARK    8  A    between atoms: C_16  and  C_18
REMARK                            x       y       z     vdW  Elec       q    Type
REMARK                         _______ _______ _______ _____ _____    ______ ____
ROOT
ATOM      1  C   UNL     1       3.174   4.164  18.222  0.00  0.00    +0.000 C 
ATOM      2  C   UNL     1       2.981   3.960  19.541  0.00  0.00    +0.000 C 
ENDROOT
BRANCH   2   3
ATOM      3  C   UNL     1       2.085   4.936  20.271  0.00  0.00    +0.000 C 
ATOM      4  O   UNL     1       1.043   4.594  20.817  0.00  0.00    +0.000 OA
ATOM      5  N   UNL     1       2.545   6.238  20.269  0.00  0.00    +0.000 N 
ATOM      6  H   UNL     1       3.436   6.504  19.852  0.00  0.00    +0.000 HD
BRANCH   5   7
ATOM      7  N   UNL     1       1.805   7.229  20.937  0.00  0.00    +0.000 N 
ATOM      8  C   UNL     1       1.476   8.403  20.276  0.00  0.00    +0.000 C 
ATOM      9  O   UNL     1       1.804   8.640  19.117  0.00  0.00    +0.000 OA
ATOM     10  H   UNL     1       1.394   6.955  21.828  0.00  0.00    +0.000 HD
BRANCH   8  11
ATOM     11  C   UNL     1       0.664   9.384  21.060  0.00  0.00    +0.000 A 
ATOM     12  C   UNL     1       0.357  10.641  20.522  0.00  0.00    +0.000 A 
ATOM     13  C   UNL     1      -0.372  11.569  21.267  0.00  0.00    +0.000 A 
ATOM     14  C   UNL     1      -0.810  11.248  22.551  0.00  0.00    +0.000 A 
ATOM     15  C   UNL     1      -0.533   9.990  23.086  0.00  0.00    +0.000 A 
ATOM     16  C   UNL     1       0.196   9.054  22.341  0.00  0.00    +0.000 A 
ENDBRANCH   8  11
ENDBRANCH   5   7
ENDBRANCH   2   3
BRANCH   1  17
ATOM     17  C   UNL     1       4.041   3.278  17.393  0.00  0.00    +0.000 C 
ATOM     18  O   UNL     1       3.889   2.059  17.465  0.00  0.00    +0.000 OA
BRANCH  17  22
ATOM     19  C   UNL     1       7.115   5.042  14.884  0.00  0.00    +0.000 A 
ATOM     20  C   UNL     1       7.072   5.274  16.258  0.00  0.00    +0.000 A 
ATOM     21  C   UNL     1       6.078   4.686  17.054  0.00  0.00    +0.000 A 
ATOM     22  C   UNL     1       5.087   3.870  16.484  0.00  0.00    +0.000 A 
ATOM     23  C   UNL     1       5.131   3.655  15.100  0.00  0.00    +0.000 A 
ATOM     24  C   UNL     1       6.135   4.239  14.307  0.00  0.00    +0.000 A 
BRANCH  19  26
ATOM     25  C   UNL     1       8.130   5.514  12.795  0.00  0.00    +0.000 C 
ATOM     26  O   UNL     1       8.130   5.664  14.212  0.00  0.00    +0.000 OA
ENDBRANCH  19  26
ENDBRANCH  17  22
ENDBRANCH   1  17
BRANCH   2  27
ATOM     27  O   UNL     1       3.555   2.924  20.259  0.00  0.00    +0.000 OA
ATOM     28  H   UNL     1       3.192   2.970  21.175  0.00  0.00    +0.000 HD
ENDBRANCH   2  27
TORSDOF 7
ENDMDL
MODEL 2
REMARK VINA RESULT:      -7.7      5.007      7.544
REMARK  Name = 
REMARK  8 active torsions:
REMARK  status: ('A' for Active; 'I' for Inactive)
REMARK    1  A    between atoms: C_1  and  O_2
REMARK    2  A    between atoms: O_2  and  C_3
REMARK    3  A    between atoms: C_6  and  C_7
REMARK    4  A    between atoms: C_7  and  C_9
REMARK    5  A    between atoms: C_10  and  O_11
REMARK    6  A    between atoms: C_10  and  C_12
REMARK    7  A    between atoms: N_14  and  N_15
REMARK    8  A    between atoms: C_16  and  C_18
REMARK                            x       y       z     vdW  Elec       q    Type
REMARK                         _______ _______ _______ _____ _____    ______ ____
ROOT
ATOM      1  C   UNL     1       5.979   5.848  17.241  0.00  0.00    +0.000 C 
ATOM      2  C   UNL     1       6.932   5.307  18.025  0.00  0.00    +0.000 C 
ENDROOT
BRANCH   2   3
ATOM      3  C   UNL     1       7.870   6.257  18.735  0.00  0.00    +0.000 C 
ATOM      4  O   UNL     1       8.523   5.928  19.720  0.00  0.00    +0.000 OA
ATOM      5  N   UNL     1       7.927   7.520  18.178  0.00  0.00    +0.000 N 
ATOM      6  H   UNL     1       7.415   7.769  17.333  0.00  0.00    +0.000 HD
BRANCH   5   7
ATOM      7  N   UNL     1       8.783   8.481  18.743  0.00  0.00    +0.000 N 
ATOM      8  C   UNL     1       8.690   9.805  18.339  0.00  0.00    +0.000 C 
ATOM      9  O   UNL     1       7.891  10.198  17.494  0.00  0.00    +0.000 OA
ATOM     10  H   UNL     1       9.317   8.181  19.556  0.00  0.00    +0.000 HD
BRANCH   8  11
ATOM     11  C   UNL     1       9.623  10.758  19.015  0.00  0.00    +0.000 A 
ATOM     12  C   UNL     1      10.746  11.253  18.339  0.00  0.00    +0.000 A 
ATOM     13  C   UNL     1      11.634  12.116  18.982  0.00  0.00    +0.000 A 
ATOM     14  C   UNL     1      11.406  12.501  20.301  0.00  0.00    +0.000 A 
ATOM     15  C   UNL     1      10.277  12.035  20.976  0.00  0.00    +0.000 A 
ATOM     16  C   UNL     1       9.380  11.171  20.334  0.00  0.00    +0.000 A 
ENDBRANCH   8  11
ENDBRANCH   5   7
ENDBRANCH   2   3
BRANCH   1  17
ATOM     17  C   UNL     1       4.999   5.018  16.481  0.00  0.00    +0.000 C 
ATOM     18  O   UNL     1       5.149   4.882  15.267  0.00  0.00    +0.000 OA
BRANCH  17  22
ATOM     19  C   UNL     1       1.637   3.245  18.581  0.00  0.00    +0.000 A 
ATOM     20  C   UNL     1       1.933   4.603  18.692  0.00  0.00    +0.000 A 
ATOM     21  C   UNL     1       3.017   5.160  17.997  0.00  0.00    +0.000 A 
ATOM     22  C   UNL     1       3.846   4.360  17.192  0.00  0.00    +0.000 A 
ATOM     23  C   UNL     1       3.547   2.994  17.100  0.00  0.00    +0.000 A 
ATOM     24  C   UNL     1       2.455   2.442  17.791  0.00  0.00    +0.000 A 
BRANCH  19  26
ATOM     25  C   UNL     1       0.675   2.894  20.718  0.00  0.00    +0.000 C 
ATOM     26  O   UNL     1       0.557   2.817  19.300  0.00  0.00    +0.000 OA
ENDBRANCH  19  26
ENDBRANCH  17  22
ENDBRANCH   1  17
BRANCH   2  27
ATOM     27  O   UNL     1       7.105   3.944  18.210  0.00  0.00    +0.000 OA
ATOM     28  H   UNL     1       6.680   3.491  17.445  0.00  0.00    +0.000 HD
ENDBRANCH   2  27
TORSDOF 7
ENDMDL
MODEL 3
REMARK VINA RESULT:      -7.7      5.048      7.677
REMARK  Name = 
REMARK  8 active torsions:
REMARK  status: ('A' for Active; 'I' for Inactive)
REMARK    1  A    between atoms: C_1  and  O_2
REMARK    2  A    between atoms: O_2  and  C_3
REMARK    3  A    between atoms: C_6  and  C_7
REMARK    4  A    between atoms: C_7  and  C_9
REMARK    5  A    between atoms: C_10  and  O_11
REMARK    6  A    between atoms: C_10  and  C_12
REMARK    7  A    between atoms: N_14  and  N_15
REMARK    8  A    between atoms: C_16  and  C_18
REMARK                            x       y       z     vdW  Elec       q    Type
REMARK                         _______ _______ _______ _____ _____    ______ ____
ROOT
ATOM      1  C   UNL     1       5.856   6.017  17.360  0.00  0.00    +0.000 C 
ATOM      2  C   UNL     1       6.867   5.449  18.047  0.00  0.00    +0.000 C 
ENDROOT
BRANCH   2   3
ATOM      3  C   UNL     1       7.853   6.373  18.725  0.00  0.00    +0.000 C 
ATOM      4  O   UNL     1       8.553   6.018  19.666  0.00  0.00    +0.000 OA
ATOM      5  N   UNL     1       7.897   7.646  18.190  0.00  0.00    +0.000 N 
ATOM      6  H   UNL     1       7.344   7.918  17.378  0.00  0.00    +0.000 HD
BRANCH   5   7
ATOM      7  N   UNL     1       8.794   8.586  18.727  0.00  0.00    +0.000 N 
ATOM      8  C   UNL     1       8.730   9.909  18.315  0.00  0.00    +0.000 C 
ATOM      9  O   UNL     1       7.923  10.320  17.486  0.00  0.00    +0.000 OA
ATOM     10  H   UNL     1       9.338   8.277  19.530  0.00  0.00    +0.000 HD
BRANCH   8  11
ATOM     11  C   UNL     1       9.706  10.839  18.962  0.00  0.00    +0.000 A 
ATOM     12  C   UNL     1       9.596  11.150  20.323  0.00  0.00    +0.000 A 
ATOM     13  C   UNL     1      10.488  12.044  20.918  0.00  0.00    +0.000 A 
ATOM     14  C   UNL     1      11.503  12.628  20.163  0.00  0.00    +0.000 A 
ATOM     15  C   UNL     1      11.638  12.305  18.812  0.00  0.00    +0.000 A 
ATOM     16  C   UNL     1      10.748  11.406  18.212  0.00  0.00    +0.000 A 
ENDBRANCH   8  11
ENDBRANCH   5   7
ENDBRANCH   2   3
BRANCH   1  17
ATOM     17  C   UNL     1       4.824   5.215  16.642  0.00  0.00    +0.000 C 
ATOM     18  O   UNL     1       4.891   5.118  15.417  0.00  0.00    +0.000 OA
BRANCH  17  22
ATOM     19  C   UNL     1       1.627   3.371  18.930  0.00  0.00    +0.000 A 
ATOM     20  C   UNL     1       2.143   4.620  19.273  0.00  0.00    +0.000 A 
ATOM     21  C   UNL     1       3.169   5.204  18.514  0.00  0.00    +0.000 A 
ATOM     22  C   UNL     1       3.718   4.536  17.407  0.00  0.00    +0.000 A 
ATOM     23  C   UNL     1       3.202   3.275  17.081  0.00  0.00    +0.000 A 
ATOM     24  C   UNL     1       2.167   2.696  17.839  0.00  0.00    +0.000 A 
BRANCH  19  26
ATOM     25  C   UNL     1       0.949   2.772  21.121  0.00  0.00    +0.000 C 
ATOM     26  O   UNL     1       0.629   2.903  19.738  0.00  0.00    +0.000 OA
ENDBRANCH  19  26
ENDBRANCH  17  22
ENDBRANCH   1  17
BRANCH   2  27
ATOM     27  O   UNL     1       7.057   4.081  18.161  0.00  0.00    +0.000 OA
ATOM     28  H   UNL     1       6.185   3.652  17.995  0.00  0.00    +0.000 HD
ENDBRANCH   2  27
TORSDOF 7
ENDMDL
MODEL 4
REMARK VINA RESULT:      -7.6      6.316      7.905
REMARK  Name = 
REMARK  8 active torsions:
REMARK  status: ('A' for Active; 'I' for Inactive)
REMARK    1  A    between atoms: C_1  and  O_2
REMARK    2  A    between atoms: O_2  and  C_3
REMARK    3  A    between atoms: C_6  and  C_7
REMARK    4  A    between atoms: C_7  and  C_9
REMARK    5  A    between atoms: C_10  and  O_11
REMARK    6  A    between atoms: C_10  and  C_12
REMARK    7  A    between atoms: N_14  and  N_15
REMARK    8  A    between atoms: C_16  and  C_18
REMARK                            x       y       z     vdW  Elec       q    Type
REMARK                         _______ _______ _______ _____ _____    ______ ____
ROOT
ATOM      1  C   UNL     1       7.181   7.103  17.236  0.00  0.00    +0.000 C 
ATOM      2  C   UNL     1       7.967   7.510  18.252  0.00  0.00    +0.000 C 
ENDROOT
BRANCH   2   3
ATOM      3  C   UNL     1       8.341   8.974  18.300  0.00  0.00    +0.000 C 
ATOM      4  O   UNL     1       7.874   9.801  17.525  0.00  0.00    +0.000 OA
ATOM      5  N   UNL     1       9.248   9.296  19.291  0.00  0.00    +0.000 N 
ATOM      6  H   UNL     1       9.595   8.609  19.959  0.00  0.00    +0.000 HD
BRANCH   5   7
ATOM      7  N   UNL     1       9.652  10.633  19.444  0.00  0.00    +0.000 N 
ATOM      8  C   UNL     1       9.498  11.260  20.671  0.00  0.00    +0.000 C 
ATOM      9  O   UNL     1       9.013  10.709  21.655  0.00  0.00    +0.000 OA
ATOM     10  H   UNL     1      10.205  11.023  18.683  0.00  0.00    +0.000 HD
BRANCH   8  11
ATOM     11  C   UNL     1       9.982  12.673  20.745  0.00  0.00    +0.000 A 
ATOM     12  C   UNL     1       9.527  13.529  21.757  0.00  0.00    +0.000 A 
ATOM     13  C   UNL     1       9.954  14.857  21.805  0.00  0.00    +0.000 A 
ATOM     14  C   UNL     1      10.845  15.341  20.849  0.00  0.00    +0.000 A 
ATOM     15  C   UNL     1      11.326  14.491  19.852  0.00  0.00    +0.000 A 
ATOM     16  C   UNL     1      10.903  13.157  19.802  0.00  0.00    +0.000 A 
ENDBRANCH   8  11
ENDBRANCH   5   7
ENDBRANCH   2   3
BRANCH   1  17
ATOM     17  C   UNL     1       6.750   5.685  17.073  0.00  0.00    +0.000 C 
ATOM     18  O   UNL     1       7.592   4.837  16.778  0.00  0.00    +0.000 OA
BRANCH  17  22
ATOM     19  C   UNL     1       2.619   4.449  17.585  0.00  0.00    +0.000 A 
ATOM     20  C   UNL     1       3.579   3.587  17.056  0.00  0.00    +0.000 A 
ATOM     21  C   UNL     1       4.911   4.000  16.909  0.00  0.00    +0.000 A 
ATOM     22  C   UNL     1       5.307   5.300  17.266  0.00  0.00    +0.000 A 
ATOM     23  C   UNL     1       4.330   6.163  17.783  0.00  0.00    +0.000 A 
ATOM     24  C   UNL     1       2.998   5.741  17.938  0.00  0.00    +0.000 A 
BRANCH  19  26
ATOM     25  C   UNL     1       1.128   3.032  18.763  0.00  0.00    +0.000 C 
ATOM     26  O   UNL     1       1.356   3.936  17.685  0.00  0.00    +0.000 OA
ENDBRANCH  19  26
ENDBRANCH  17  22
ENDBRANCH   1  17
BRANCH   2  27
ATOM     27  O   UNL     1       8.454   6.670  19.242  0.00  0.00    +0.000 OA
ATOM     28  H   UNL     1       7.852   5.891  19.283  0.00  0.00    +0.000 HD
ENDBRANCH   2  27
TORSDOF 7
ENDMDL
MODEL 5
REMARK VINA RESULT:      -7.6      5.334      7.897
REMARK  Name = 
REMARK  8 active torsions:
REMARK  status: ('A' for Active; 'I' for Inactive)
REMARK    1  A    between atoms: C_1  and  O_2
REMARK    2  A    between atoms: O_2  and  C_3
REMARK    3  A    between atoms: C_6  and  C_7
REMARK    4  A    between atoms: C_7  and  C_9
REMARK    5  A    between atoms: C_10  and  O_11
REMARK    6  A    between atoms: C_10  and  C_12
REMARK    7  A    between atoms: N_14  and  N_15
REMARK    8  A    between atoms: C_16  and  C_18
REMARK                            x       y       z     vdW  Elec       q    Type
REMARK                         _______ _______ _______ _____ _____    ______ ____
ROOT
ATOM      1  C   UNL     1       6.372   5.363  17.711  0.00  0.00    +0.000 C 
ATOM      2  C   UNL     1       6.647   6.588  17.221  0.00  0.00    +0.000 C 
ENDROOT
BRANCH   2   3
ATOM      3  C   UNL     1       7.686   7.411  17.948  0.00  0.00    +0.000 C 
ATOM      4  O   UNL     1       8.414   6.940  18.815  0.00  0.00    +0.000 OA
ATOM      5  N   UNL     1       7.743   8.733  17.551  0.00  0.00    +0.000 N 
ATOM      6  H   UNL     1       7.164   9.103  16.798  0.00  0.00    +0.000 HD
BRANCH   5   7
ATOM      7  N   UNL     1       8.687   9.589  18.143  0.00  0.00    +0.000 N 
ATOM      8  C   UNL     1       8.597  10.957  17.939  0.00  0.00    +0.000 C 
ATOM      9  O   UNL     1       7.726  11.481  17.251  0.00  0.00    +0.000 OA
ATOM     10  H   UNL     1       9.295   9.167  18.844  0.00  0.00    +0.000 HD
BRANCH   8  11
ATOM     11  C   UNL     1       9.630  11.788  18.632  0.00  0.00    +0.000 A 
ATOM     12  C   UNL     1      10.734  11.181  19.245  0.00  0.00    +0.000 A 
ATOM     13  C   UNL     1      11.680  11.955  19.920  0.00  0.00    +0.000 A 
ATOM     14  C   UNL     1      11.538  13.339  19.981  0.00  0.00    +0.000 A 
ATOM     15  C   UNL     1      10.457  13.956  19.352  0.00  0.00    +0.000 A 
ATOM     16  C   UNL     1       9.507  13.185  18.670  0.00  0.00    +0.000 A 
ENDBRANCH   8  11
ENDBRANCH   5   7
ENDBRANCH   2   3
BRANCH   1  17
ATOM     17  C   UNL     1       5.361   4.459  17.090  0.00  0.00    +0.000 C 
ATOM     18  O   UNL     1       5.508   4.120  15.916  0.00  0.00    +0.000 OA
BRANCH  17  22
ATOM     19  C   UNL     1       2.042   3.044  19.505  0.00  0.00    +0.000 A 
ATOM     20  C   UNL     1       3.336   3.121  20.017  0.00  0.00    +0.000 A 
ATOM     21  C   UNL     1       4.394   3.592  19.225  0.00  0.00    +0.000 A 
ATOM     22  C   UNL     1       4.181   3.973  17.890  0.00  0.00    +0.000 A 
ATOM     23  C   UNL     1       2.878   3.876  17.381  0.00  0.00    +0.000 A 
ATOM     24  C   UNL     1       1.819   3.413  18.181  0.00  0.00    +0.000 A 
BRANCH  19  26
ATOM     25  C   UNL     1       1.437   2.592  21.752  0.00  0.00    +0.000 C 
ATOM     26  O   UNL     1       1.093   2.574  20.369  0.00  0.00    +0.000 OA
ENDBRANCH  19  26
ENDBRANCH  17  22
ENDBRANCH   1  17
BRANCH   2  27
ATOM     27  O   UNL     1       6.033   7.134  16.105  0.00  0.00    +0.000 OA
ATOM     28  H   UNL     1       6.671   7.057  15.357  0.00  0.00    +0.000 HD
ENDBRANCH   2  27
TORSDOF 7
ENDMDL
MODEL 6
REMARK VINA RESULT:      -7.5      6.162      9.959
REMARK  Name = 
REMARK  8 active torsions:
REMARK  status: ('A' for Active; 'I' for Inactive)
REMARK    1  A    between atoms: C_1  and  O_2
REMARK    2  A    between atoms: O_2  and  C_3
REMARK    3  A    between atoms: C_6  and  C_7
REMARK    4  A    between atoms: C_7  and  C_9
REMARK    5  A    between atoms: C_10  and  O_11
REMARK    6  A    between atoms: C_10  and  C_12
REMARK    7  A    between atoms: N_14  and  N_15
REMARK    8  A    between atoms: C_16  and  C_18
REMARK                            x       y       z     vdW  Elec       q    Type
REMARK                         _______ _______ _______ _____ _____    ______ ____
ROOT
ATOM      1  C   UNL     1       8.102   9.201  17.755  0.00  0.00    +0.000 C 
ATOM      2  C   UNL     1       7.950   7.877  17.955  0.00  0.00    +0.000 C 
ENDROOT
BRANCH   2   3
ATOM      3  C   UNL     1       7.097   7.117  16.965  0.00  0.00    +0.000 C 
ATOM      4  O   UNL     1       5.975   7.486  16.640  0.00  0.00    +0.000 OA
ATOM      5  N   UNL     1       7.693   5.977  16.461  0.00  0.00    +0.000 N 
ATOM      6  H   UNL     1       8.645   5.704  16.704  0.00  0.00    +0.000 HD
BRANCH   5   7
ATOM      7  N   UNL     1       7.002   5.201  15.515  0.00  0.00    +0.000 N 
ATOM      8  C   UNL     1       7.448   5.160  14.203  0.00  0.00    +0.000 C 
ATOM      9  O   UNL     1       8.431   5.779  13.804  0.00  0.00    +0.000 OA
ATOM     10  H   UNL     1       6.300   4.563  15.887  0.00  0.00    +0.000 HD
BRANCH   8  11
ATOM     11  C   UNL     1       6.664   4.287  13.276  0.00  0.00    +0.000 A 
ATOM     12  C   UNL     1       7.305   3.593  12.241  0.00  0.00    +0.000 A 
ATOM     13  C   UNL     1       6.568   2.804  11.356  0.00  0.00    +0.000 A 
ATOM     14  C   UNL     1       5.187   2.693  11.502  0.00  0.00    +0.000 A 
ATOM     15  C   UNL     1       4.541   3.358  12.545  0.00  0.00    +0.000 A 
ATOM     16  C   UNL     1       5.277   4.148  13.438  0.00  0.00    +0.000 A 
ENDBRANCH   8  11
ENDBRANCH   5   7
ENDBRANCH   2   3
BRANCH   1  17
ATOM     17  C   UNL     1       8.911  10.062  18.665  0.00  0.00    +0.000 C 
ATOM     18  O   UNL     1       9.033   9.733  19.845  0.00  0.00    +0.000 OA
BRANCH  17  22
ATOM     19  C   UNL     1      10.675  13.741  17.178  0.00  0.00    +0.000 A 
ATOM     20  C   UNL     1       9.317  13.653  17.479  0.00  0.00    +0.000 A 
ATOM     21  C   UNL     1       8.767  12.459  17.969  0.00  0.00    +0.000 A 
ATOM     22  C   UNL     1       9.565  11.316  18.145  0.00  0.00    +0.000 A 
ATOM     23  C   UNL     1      10.926  11.412  17.824  0.00  0.00    +0.000 A 
ATOM     24  C   UNL     1      11.475  12.613  17.342  0.00  0.00    +0.000 A 
BRANCH  19  26
ATOM     25  C   UNL     1      11.360  15.950  17.696  0.00  0.00    +0.000 C 
ATOM     26  O   UNL     1      11.098  14.954  16.711  0.00  0.00    +0.000 OA
ENDBRANCH  19  26
ENDBRANCH  17  22
ENDBRANCH   1  17
BRANCH   2  27
ATOM     27  O   UNL     1       8.519   7.181  19.010  0.00  0.00    +0.000 OA
ATOM     28  H   UNL     1       8.268   7.653  19.838  0.00  0.00    +0.000 HD
ENDBRANCH   2  27
TORSDOF 7
ENDMDL
MODEL 7
REMARK VINA RESULT:      -7.3      1.214      1.347
REMARK  Name = 
REMARK  8 active torsions:
REMARK  status: ('A' for Active; 'I' for Inactive)
REMARK    1  A    between atoms: C_1  and  O_2
REMARK    2  A    between atoms: O_2  and  C_3
REMARK    3  A    between atoms: C_6  and  C_7
REMARK    4  A    between atoms: C_7  and  C_9
REMARK    5  A    between atoms: C_10  and  O_11
REMARK    6  A    between atoms: C_10  and  C_12
REMARK    7  A    between atoms: N_14  and  N_15
REMARK    8  A    between atoms: C_16  and  C_18
REMARK                            x       y       z     vdW  Elec       q    Type
REMARK                         _______ _______ _______ _____ _____    ______ ____
ROOT
ATOM      1  C   UNL     1       4.146   5.199  19.256  0.00  0.00    +0.000 C 
ATOM      2  C   UNL     1       3.087   4.673  19.902  0.00  0.00    +0.000 C 
ENDROOT
BRANCH   2   3
ATOM      3  C   UNL     1       2.026   5.631  20.395  0.00  0.00    +0.000 C 
ATOM      4  O   UNL     1       0.892   5.269  20.687  0.00  0.00    +0.000 OA
ATOM      5  N   UNL     1       2.447   6.944  20.488  0.00  0.00    +0.000 N 
ATOM      6  H   UNL     1       3.405   7.227  20.286  0.00  0.00    +0.000 HD
BRANCH   5   7
ATOM      7  N   UNL     1       1.552   7.921  20.956  0.00  0.00    +0.000 N 
ATOM      8  C   UNL     1       1.194   8.976  20.130  0.00  0.00    +0.000 C 
ATOM      9  O   UNL     1       1.627   9.118  18.990  0.00  0.00    +0.000 OA
ATOM     10  H   UNL     1       1.070   7.705  21.827  0.00  0.00    +0.000 HD
BRANCH   8  11
ATOM     11  C   UNL     1       0.216   9.949  20.706  0.00  0.00    +0.000 A 
ATOM     12  C   UNL     1      -0.559  10.760  19.865  0.00  0.00    +0.000 A 
ATOM     13  C   UNL     1      -1.448  11.691  20.405  0.00  0.00    +0.000 A 
ATOM     14  C   UNL     1      -1.579  11.816  21.786  0.00  0.00    +0.000 A 
ATOM     15  C   UNL     1      -0.832  10.996  22.633  0.00  0.00    +0.000 A 
ATOM     16  C   UNL     1       0.058  10.057  22.097  0.00  0.00    +0.000 A 
ENDBRANCH   8  11
ENDBRANCH   5   7
ENDBRANCH   2   3
BRANCH   1  17
ATOM     17  C   UNL     1       5.262   4.361  18.730  0.00  0.00    +0.000 C 
ATOM     18  O   UNL     1       5.866   3.618  19.504  0.00  0.00    +0.000 OA
BRANCH  17  22
ATOM     19  C   UNL     1       6.489   4.570  14.570  0.00  0.00    +0.000 A 
ATOM     20  C   UNL     1       7.394   4.780  15.610  0.00  0.00    +0.000 A 
ATOM     21  C   UNL     1       6.981   4.697  16.948  0.00  0.00    +0.000 A 
ATOM     22  C   UNL     1       5.642   4.426  17.274  0.00  0.00    +0.000 A 
ATOM     23  C   UNL     1       4.738   4.232  16.221  0.00  0.00    +0.000 A 
ATOM     24  C   UNL     1       5.158   4.307  14.881  0.00  0.00    +0.000 A 
BRANCH  19  26
ATOM     25  C   UNL     1       6.583   3.683  12.374  0.00  0.00    +0.000 C 
ATOM     26  O   UNL     1       7.005   4.673  13.309  0.00  0.00    +0.000 OA
ENDBRANCH  19  26
ENDBRANCH  17  22
ENDBRANCH   1  17
BRANCH   2  27
ATOM     27  O   UNL     1       2.918   3.319  20.144  0.00  0.00    +0.000 OA
ATOM     28  H   UNL     1       2.313   3.235  20.917  0.00  0.00    +0.000 HD
ENDBRANCH   2  27
TORSDOF 7
ENDMDL
MODEL 8
REMARK VINA RESULT:      -7.3      1.085      1.586
REMARK  Name = 
REMARK  8 active torsions:
REMARK  status: ('A' for Active; 'I' for Inactive)
REMARK    1  A    between atoms: C_1  and  O_2
REMARK    2  A    between atoms: O_2  and  C_3
REMARK    3  A    between atoms: C_6  and  C_7
REMARK    4  A    between atoms: C_7  and  C_9
REMARK    5  A    between atoms: C_10  and  O_11
REMARK    6  A    between atoms: C_10  and  C_12
REMARK    7  A    between atoms: N_14  and  N_15
REMARK    8  A    between atoms: C_16  and  C_18
REMARK                            x       y       z     vdW  Elec       q    Type
REMARK                         _______ _______ _______ _____ _____    ______ ____
ROOT
ATOM      1  C   UNL     1       3.885   4.663  19.855  0.00  0.00    +0.000 C 
ATOM      2  C   UNL     1       2.592   4.768  19.490  0.00  0.00    +0.000 C 
ENDROOT
BRANCH   2   3
ATOM      3  C   UNL     1       1.735   5.760  20.243  0.00  0.00    +0.000 C 
ATOM      4  O   UNL     1       0.599   5.498  20.621  0.00  0.00    +0.000 OA
ATOM      5  N   UNL     1       2.343   6.980  20.467  0.00  0.00    +0.000 N 
ATOM      6  H   UNL     1       3.304   7.172  20.188  0.00  0.00    +0.000 HD
BRANCH   5   7
ATOM      7  N   UNL     1       1.648   7.973  21.177  0.00  0.00    +0.000 N 
ATOM      8  C   UNL     1       1.063   9.027  20.490  0.00  0.00    +0.000 C 
ATOM      9  O   UNL     1       1.121   9.152  19.271  0.00  0.00    +0.000 OA
ATOM     10  H   UNL     1       1.459   7.772  22.158  0.00  0.00    +0.000 HD
BRANCH   8  11
ATOM     11  C   UNL     1       0.322  10.019  21.329  0.00  0.00    +0.000 A 
ATOM     12  C   UNL     1      -0.367   9.604  22.477  0.00  0.00    +0.000 A 
ATOM     13  C   UNL     1      -1.086  10.526  23.241  0.00  0.00    +0.000 A 
ATOM     14  C   UNL     1      -1.115  11.869  22.872  0.00  0.00    +0.000 A 
ATOM     15  C   UNL     1      -0.411  12.298  21.747  0.00  0.00    +0.000 A 
ATOM     16  C   UNL     1       0.315  11.377  20.979  0.00  0.00    +0.000 A 
ENDBRANCH   8  11
ENDBRANCH   5   7
ENDBRANCH   2   3
BRANCH   1  17
ATOM     17  C   UNL     1       4.831   3.716  19.196  0.00  0.00    +0.000 C 
ATOM     18  O   UNL     1       5.033   2.619  19.714  0.00  0.00    +0.000 OA
BRANCH  17  22
ATOM     19  C   UNL     1       6.928   4.901  15.583  0.00  0.00    +0.000 A 
ATOM     20  C   UNL     1       7.319   5.363  16.839  0.00  0.00    +0.000 A 
ATOM     21  C   UNL     1       6.636   4.961  17.996  0.00  0.00    +0.000 A 
ATOM     22  C   UNL     1       5.527   4.102  17.917  0.00  0.00    +0.000 A 
ATOM     23  C   UNL     1       5.133   3.656  16.647  0.00  0.00    +0.000 A 
ATOM     24  C   UNL     1       5.827   4.055  15.491  0.00  0.00    +0.000 A 
BRANCH  19  26
ATOM     25  C   UNL     1       7.270   4.907  13.237  0.00  0.00    +0.000 C 
ATOM     26  O   UNL     1       7.669   5.357  14.529  0.00  0.00    +0.000 OA
ENDBRANCH  19  26
ENDBRANCH  17  22
ENDBRANCH   1  17
BRANCH   2  27
ATOM     27  O   UNL     1       2.008   4.021  18.479  0.00  0.00    +0.000 OA
ATOM     28  H   UNL     1       2.724   3.777  17.847  0.00  0.00    +0.000 HD
ENDBRANCH   2  27
TORSDOF 7
ENDMDL
MODEL 9
REMARK VINA RESULT:      -7.2      5.996      7.771
REMARK  Name = 
REMARK  8 active torsions:
REMARK  status: ('A' for Active; 'I' for Inactive)
REMARK    1  A    between atoms: C_1  and  O_2
REMARK    2  A    between atoms: O_2  and  C_3
REMARK    3  A    between atoms: C_6  and  C_7
REMARK    4  A    between atoms: C_7  and  C_9
REMARK    5  A    between atoms: C_10  and  O_11
REMARK    6  A    between atoms: C_10  and  C_12
REMARK    7  A    between atoms: N_14  and  N_15
REMARK    8  A    between atoms: C_16  and  C_18
REMARK                            x       y       z     vdW  Elec       q    Type
REMARK                         _______ _______ _______ _____ _____    ______ ____
ROOT
ATOM      1  C   UNL     1       7.099   6.211  17.539  0.00  0.00    +0.000 C 
ATOM      2  C   UNL     1       7.872   6.911  18.392  0.00  0.00    +0.000 C 
ENDROOT
BRANCH   2   3
ATOM      3  C   UNL     1       8.103   8.373  18.082  0.00  0.00    +0.000 C 
ATOM      4  O   UNL     1       7.588   8.934  17.121  0.00  0.00    +0.000 OA
ATOM      5  N   UNL     1       8.940   9.016  18.973  0.00  0.00    +0.000 N 
ATOM      6  H   UNL     1       9.326   8.552  19.794  0.00  0.00    +0.000 HD
BRANCH   5   7
ATOM      7  N   UNL     1       9.209  10.384  18.797  0.00  0.00    +0.000 N 
ATOM      8  C   UNL     1       9.397  11.196  19.906  0.00  0.00    +0.000 C 
ATOM      9  O   UNL     1       9.334  10.785  21.061  0.00  0.00    +0.000 OA
ATOM     10  H   UNL     1       9.428  10.678  17.846  0.00  0.00    +0.000 HD
BRANCH   8  11
ATOM     11  C   UNL     1       9.706  12.630  19.617  0.00  0.00    +0.000 A 
ATOM     12  C   UNL     1      10.462  12.981  18.492  0.00  0.00    +0.000 A 
ATOM     13  C   UNL     1      10.778  14.318  18.242  0.00  0.00    +0.000 A 
ATOM     14  C   UNL     1      10.334  15.316  19.106  0.00  0.00    +0.000 A 
ATOM     15  C   UNL     1       9.558  14.981  20.216  0.00  0.00    +0.000 A 
ATOM     16  C   UNL     1       9.235  13.641  20.469  0.00  0.00    +0.000 A 
ENDBRANCH   8  11
ENDBRANCH   5   7
ENDBRANCH   2   3
BRANCH   1  17
ATOM     17  C   UNL     1       6.803   4.762  17.729  0.00  0.00    +0.000 C 
ATOM     18  O   UNL     1       7.737   3.960  17.743  0.00  0.00    +0.000 OA
BRANCH  17  22
ATOM     19  C   UNL     1       2.726   3.408  18.359  0.00  0.00    +0.000 A 
ATOM     20  C   UNL     1       3.597   3.620  19.426  0.00  0.00    +0.000 A 
ATOM     21  C   UNL     1       4.908   4.069  19.203  0.00  0.00    +0.000 A 
ATOM     22  C   UNL     1       5.382   4.290  17.900  0.00  0.00    +0.000 A 
ATOM     23  C   UNL     1       4.502   4.059  16.834  0.00  0.00    +0.000 A 
ATOM     24  C   UNL     1       3.187   3.618  17.062  0.00  0.00    +0.000 A 
BRANCH  19  26
ATOM     25  C   UNL     1       0.975   3.414  19.957  0.00  0.00    +0.000 C 
ATOM     26  O   UNL     1       1.474   2.974  18.697  0.00  0.00    +0.000 OA
ENDBRANCH  19  26
ENDBRANCH  17  22
ENDBRANCH   1  17
BRANCH   2  27
ATOM     27  O   UNL     1       8.468   6.373  19.521  0.00  0.00    +0.000 OA
ATOM     28  H   UNL     1       9.329   6.836  19.644  0.00  0.00    +0.000 HD
ENDBRANCH   2  27
TORSDOF 7
ENDMDL
