MODEL 1
REMARK VINA RESULT:      -7.6      0.000      0.000
REMARK  Name = 
REMARK  6 active torsions:
REMARK  status: ('A' for Active; 'I' for Inactive)
REMARK    1  A    between atoms: C_1  and  C_2
REMARK    2  A    between atoms: C_5  and  C_6
REMARK    3  A    between atoms: C_6  and  N_7
REMARK    4  A    between atoms: C_11  and  C_13
REMARK    5  A    between atoms: C_18  and  O_19
REMARK    6  A    between atoms: C_20  and  C_21
REMARK                            x       y       z     vdW  Elec       q    Type
REMARK                         _______ _______ _______ _____ _____    ______ ____
ROOT
ATOM      1  N   UNL     1       6.543   5.562  16.521  0.00  0.00    +0.000 N 
ATOM      2  C   UNL     1       7.156   4.547  17.382  0.00  0.00    +0.000 C 
ATOM      3  C   UNL     1       6.724   4.666  18.845  0.00  0.00    +0.000 C 
ATOM      4  N   UNL     1       5.263   4.754  18.934  0.00  0.00    +0.000 N 
ATOM      5  C   UNL     1       4.618   3.615  19.456  0.00  0.00    +0.000 C 
ATOM      6  O   UNL     1       5.255   2.622  19.809  0.00  0.00    +0.000 OA
ATOM      7  C   UNL     1       4.768   5.952  18.204  0.00  0.00    +0.000 C 
ATOM      8  C   UNL     1       3.357   6.499  18.372  0.00  0.00    +0.000 C 
ATOM      9  C   UNL     1       5.206   5.925  16.710  0.00  0.00    +0.000 C 
ATOM     10  O   UNL     1       4.515   6.397  15.808  0.00  0.00    +0.000 OA
ENDROOT
BRANCH   5  11
ATOM     11  C   UNL     1       3.146   3.540  19.605  0.00  0.00    +0.000 A 
ATOM     12  C   UNL     1       2.521   4.246  20.626  0.00  0.00    +0.000 A 
ATOM     13  C   UNL     1       1.156   4.082  20.864  0.00  0.00    +0.000 A 
ATOM     14  C   UNL     1       0.383   3.319  19.993  0.00  0.00    +0.000 A 
ATOM     15  C   UNL     1       0.967   2.747  18.863  0.00  0.00    +0.000 A 
ATOM     16  C   UNL     1       2.349   2.856  18.668  0.00  0.00    +0.000 A 
BRANCH  16  17
ATOM     17  O   UNL     1       2.886   2.264  17.558  0.00  0.00    +0.000 OA
ATOM     18  H   UNL     1       2.807   1.301  17.655  0.00  0.00    +0.000 HD
ENDBRANCH  16  17
ENDBRANCH   5  11
BRANCH   1  19
ATOM     19  C   UNL     1       7.247   5.979  15.317  0.00  0.00    +0.000 C 
BRANCH  19  24
ATOM     20  C   UNL     1       6.362   2.147  10.995  0.00  0.00    +0.000 C 
ATOM     21  C   UNL     1       6.540   3.183  12.066  0.00  0.00    +0.000 A 
ATOM     22  C   UNL     1       7.482   4.208  11.928  0.00  0.00    +0.000 A 
ATOM     23  C   UNL     1       7.698   5.122  12.966  0.00  0.00    +0.000 A 
ATOM     24  C   UNL     1       6.980   5.026  14.167  0.00  0.00    +0.000 A 
ATOM     25  C   UNL     1       6.004   4.025  14.282  0.00  0.00    +0.000 A 
ATOM     26  C   UNL     1       5.793   3.107  13.247  0.00  0.00    +0.000 A 
ENDBRANCH  19  24
ENDBRANCH   1  19
TORSDOF 4
ENDMDL
MODEL 2
REMARK VINA RESULT:      -7.4      0.794      1.369
REMARK  Name = 
REMARK  6 active torsions:
REMARK  status: ('A' for Active; 'I' for Inactive)
REMARK    1  A    between atoms: C_1  and  C_2
REMARK    2  A    between atoms: C_5  and  C_6
REMARK    3  A    between atoms: C_6  and  N_7
REMARK    4  A    between atoms: C_11  and  C_13
REMARK    5  A    between atoms: C_18  and  O_19
REMARK    6  A    between atoms: C_20  and  C_21
REMARK                            x       y       z     vdW  Elec       q    Type
REMARK                         _______ _______ _______ _____ _____    ______ ____
ROOT
ATOM      1  N   UNL     1       6.532   5.558  16.682  0.00  0.00    +0.000 N 
ATOM      2  C   UNL     1       7.142   4.623  17.631  0.00  0.00    +0.000 C 
ATOM      3  C   UNL     1       6.587   4.766  19.050  0.00  0.00    +0.000 C 
ATOM      4  N   UNL     1       5.120   4.751  19.021  0.00  0.00    +0.000 N 
ATOM      5  C   UNL     1       4.516   3.589  19.541  0.00  0.00    +0.000 C 
ATOM      6  O   UNL     1       5.189   2.659  19.985  0.00  0.00    +0.000 OA
ATOM      7  C   UNL     1       4.604   5.882  18.203  0.00  0.00    +0.000 C 
ATOM      8  C   UNL     1       3.150   6.332  18.237  0.00  0.00    +0.000 C 
ATOM      9  C   UNL     1       5.162   5.830  16.750  0.00  0.00    +0.000 C 
ATOM     10  O   UNL     1       4.514   6.216  15.778  0.00  0.00    +0.000 OA
ENDROOT
BRANCH   5  11
ATOM     11  C   UNL     1       3.045   3.414  19.579  0.00  0.00    +0.000 A 
ATOM     12  C   UNL     1       2.441   2.484  18.742  0.00  0.00    +0.000 A 
ATOM     13  C   UNL     1       1.051   2.400  18.667  0.00  0.00    +0.000 A 
ATOM     14  C   UNL     1       0.259   3.150  19.533  0.00  0.00    +0.000 A 
ATOM     15  C   UNL     1       0.858   3.959  20.499  0.00  0.00    +0.000 A 
ATOM     16  C   UNL     1       2.251   4.093  20.522  0.00  0.00    +0.000 A 
BRANCH  16  17
ATOM     17  O   UNL     1       2.798   4.911  21.472  0.00  0.00    +0.000 OA
ATOM     18  H   UNL     1       2.471   4.632  22.343  0.00  0.00    +0.000 HD
ENDBRANCH  16  17
ENDBRANCH   5  11
BRANCH   1  19
ATOM     19  C   UNL     1       7.299   5.978  15.519  0.00  0.00    +0.000 C 
BRANCH  19  24
ATOM     20  C   UNL     1       6.488   2.303  11.049  0.00  0.00    +0.000 C 
ATOM     21  C   UNL     1       6.641   3.297  12.162  0.00  0.00    +0.000 A 
ATOM     22  C   UNL     1       7.496   4.397  12.034  0.00  0.00    +0.000 A 
ATOM     23  C   UNL     1       7.694   5.274  13.107  0.00  0.00    +0.000 A 
ATOM     24  C   UNL     1       7.047   5.064  14.334  0.00  0.00    +0.000 A 
ATOM     25  C   UNL     1       6.157   3.986  14.443  0.00  0.00    +0.000 A 
ATOM     26  C   UNL     1       5.963   3.105  13.372  0.00  0.00    +0.000 A 
ENDBRANCH  19  24
ENDBRANCH   1  19
TORSDOF 4
ENDMDL
MODEL 3
REMARK VINA RESULT:      -7.4      6.233      8.933
REMARK  Name = 
REMARK  6 active torsions:
REMARK  status: ('A' for Active; 'I' for Inactive)
REMARK    1  A    between atoms: C_1  and  C_2
REMARK    2  A    between atoms: C_5  and  C_6
REMARK    3  A    between atoms: C_6  and  N_7
REMARK    4  A    between atoms: C_11  and  C_13
REMARK    5  A    between atoms: C_18  and  O_19
REMARK    6  A    between atoms: C_20  and  C_21
REMARK                            x       y       z     vdW  Elec       q    Type
REMARK                         _______ _______ _______ _____ _____    ______ ____
ROOT
ATOM      1  N   UNL     1       1.678   8.589  19.448  0.00  0.00    +0.000 N 
ATOM      2  C   UNL     1       1.261   9.329  18.255  0.00  0.00    +0.000 C 
ATOM      3  C   UNL     1      -0.213   9.740  18.292  0.00  0.00    +0.000 C 
ATOM      4  N   UNL     1      -0.521  10.396  19.567  0.00  0.00    +0.000 N 
ATOM      5  C   UNL     1      -0.752  11.783  19.494  0.00  0.00    +0.000 C 
ATOM      6  O   UNL     1      -0.694  12.388  18.424  0.00  0.00    +0.000 OA
ATOM      7  C   UNL     1      -0.268   9.470  20.703  0.00  0.00    +0.000 C 
ATOM      8  C   UNL     1      -0.785   9.726  22.112  0.00  0.00    +0.000 C 
ATOM      9  C   UNL     1       1.208   8.971  20.708  0.00  0.00    +0.000 C 
ATOM     10  O   UNL     1       1.819   8.722  21.747  0.00  0.00    +0.000 OA
ENDROOT
BRANCH   5  11
ATOM     11  C   UNL     1      -1.069  12.595  20.693  0.00  0.00    +0.000 A 
ATOM     12  C   UNL     1      -2.393  12.762  21.080  0.00  0.00    +0.000 A 
ATOM     13  C   UNL     1      -2.719  13.629  22.123  0.00  0.00    +0.000 A 
ATOM     14  C   UNL     1      -1.710  14.225  22.875  0.00  0.00    +0.000 A 
ATOM     15  C   UNL     1      -0.374  13.928  22.608  0.00  0.00    +0.000 A 
ATOM     16  C   UNL     1      -0.052  13.113  21.516  0.00  0.00    +0.000 A 
BRANCH  16  17
ATOM     17  O   UNL     1       1.271  12.862  21.276  0.00  0.00    +0.000 OA
ATOM     18  H   UNL     1       1.339  12.314  20.476  0.00  0.00    +0.000 HD
ENDBRANCH  16  17
ENDBRANCH   5  11
BRANCH   1  19
ATOM     19  C   UNL     1       2.780   7.645  19.340  0.00  0.00    +0.000 C 
BRANCH  19  24
ATOM     20  C   UNL     1       0.619   2.236  18.876  0.00  0.00    +0.000 C 
ATOM     21  C   UNL     1       1.245   3.592  19.018  0.00  0.00    +0.000 A 
ATOM     22  C   UNL     1       1.312   4.229  20.262  0.00  0.00    +0.000 A 
ATOM     23  C   UNL     1       1.824   5.527  20.371  0.00  0.00    +0.000 A 
ATOM     24  C   UNL     1       2.275   6.218  19.237  0.00  0.00    +0.000 A 
ATOM     25  C   UNL     1       2.248   5.558  18.000  0.00  0.00    +0.000 A 
ATOM     26  C   UNL     1       1.730   4.263  17.889  0.00  0.00    +0.000 A 
ENDBRANCH  19  24
ENDBRANCH   1  19
TORSDOF 4
ENDMDL
MODEL 4
REMARK VINA RESULT:      -7.3      6.340      9.003
REMARK  Name = 
REMARK  6 active torsions:
REMARK  status: ('A' for Active; 'I' for Inactive)
REMARK    1  A    between atoms: C_1  and  C_2
REMARK    2  A    between atoms: C_5  and  C_6
REMARK    3  A    between atoms: C_6  and  N_7
REMARK    4  A    between atoms: C_11  and  C_13
REMARK    5  A    between atoms: C_18  and  O_19
REMARK    6  A    between atoms: C_20  and  C_21
REMARK                            x       y       z     vdW  Elec       q    Type
REMARK                         _______ _______ _______ _____ _____    ______ ____
ROOT
ATOM      1  N   UNL     1       1.693   8.581  19.530  0.00  0.00    +0.000 N 
ATOM      2  C   UNL     1       1.399   9.280  18.277  0.00  0.00    +0.000 C 
ATOM      3  C   UNL     1      -0.045   9.782  18.198  0.00  0.00    +0.000 C 
ATOM      4  N   UNL     1      -0.388  10.523  19.416  0.00  0.00    +0.000 N 
ATOM      5  C   UNL     1      -0.523  11.917  19.260  0.00  0.00    +0.000 C 
ATOM      6  O   UNL     1      -0.360  12.459  18.167  0.00  0.00    +0.000 OA
ATOM      7  C   UNL     1      -0.266   9.645  20.611  0.00  0.00    +0.000 C 
ATOM      8  C   UNL     1      -0.851  10.008  21.969  0.00  0.00    +0.000 C 
ATOM      9  C   UNL     1       1.172   9.058  20.737  0.00  0.00    +0.000 C 
ATOM     10  O   UNL     1       1.700   8.828  21.824  0.00  0.00    +0.000 OA
ENDROOT
BRANCH   5  11
ATOM     11  C   UNL     1      -0.861  12.809  20.394  0.00  0.00    +0.000 A 
ATOM     12  C   UNL     1       0.151  13.292  21.214  0.00  0.00    +0.000 A 
ATOM     13  C   UNL     1      -0.158  14.022  22.362  0.00  0.00    +0.000 A 
ATOM     14  C   UNL     1      -1.476  14.390  22.619  0.00  0.00    +0.000 A 
ATOM     15  C   UNL     1      -2.481  14.060  21.711  0.00  0.00    +0.000 A 
ATOM     16  C   UNL     1      -2.176  13.268  20.598  0.00  0.00    +0.000 A 
BRANCH  16  17
ATOM     17  O   UNL     1      -3.193  12.950  19.742  0.00  0.00    +0.000 OA
ATOM     18  H   UNL     1      -2.836  12.386  19.036  0.00  0.00    +0.000 HD
ENDBRANCH  16  17
ENDBRANCH   5  11
BRANCH   1  19
ATOM     19  C   UNL     1       2.736   7.567  19.540  0.00  0.00    +0.000 C 
BRANCH  19  24
ATOM     20  C   UNL     1       0.714   2.127  18.853  0.00  0.00    +0.000 C 
ATOM     21  C   UNL     1       1.160   3.552  19.006  0.00  0.00    +0.000 A 
ATOM     22  C   UNL     1       1.621   4.285  17.907  0.00  0.00    +0.000 A 
ATOM     23  C   UNL     1       2.110   5.586  18.073  0.00  0.00    +0.000 A 
ATOM     24  C   UNL     1       2.156   6.179  19.344  0.00  0.00    +0.000 A 
ATOM     25  C   UNL     1       1.651   5.456  20.435  0.00  0.00    +0.000 A 
ATOM     26  C   UNL     1       1.167   4.153  20.270  0.00  0.00    +0.000 A 
ENDBRANCH  19  24
ENDBRANCH   1  19
TORSDOF 4
ENDMDL
MODEL 5
REMARK VINA RESULT:      -7.3      6.506      9.102
REMARK  Name = 
REMARK  6 active torsions:
REMARK  status: ('A' for Active; 'I' for Inactive)
REMARK    1  A    between atoms: C_1  and  C_2
REMARK    2  A    between atoms: C_5  and  C_6
REMARK    3  A    between atoms: C_6  and  N_7
REMARK    4  A    between atoms: C_11  and  C_13
REMARK    5  A    between atoms: C_18  and  O_19
REMARK    6  A    between atoms: C_20  and  C_21
REMARK                            x       y       z     vdW  Elec       q    Type
REMARK                         _______ _______ _______ _____ _____    ______ ____
ROOT
ATOM      1  N   UNL     1       1.487   8.731  19.782  0.00  0.00    +0.000 N 
ATOM      2  C   UNL     1       0.973   9.454  18.616  0.00  0.00    +0.000 C 
ATOM      3  C   UNL     1      -0.508   9.817  18.743  0.00  0.00    +0.000 C 
ATOM      4  N   UNL     1      -0.759  10.466  20.034  0.00  0.00    +0.000 N 
ATOM      5  C   UNL     1      -1.039  11.845  19.975  0.00  0.00    +0.000 C 
ATOM      6  O   UNL     1      -1.066  12.449  18.903  0.00  0.00    +0.000 OA
ATOM      7  C   UNL     1      -0.406   9.551  21.153  0.00  0.00    +0.000 C 
ATOM      8  C   UNL     1      -0.844   9.794  22.591  0.00  0.00    +0.000 C 
ATOM      9  C   UNL     1       1.083   9.101  21.068  0.00  0.00    +0.000 C 
ATOM     10  O   UNL     1       1.764   8.874  22.067  0.00  0.00    +0.000 OA
ENDROOT
BRANCH   5  11
ATOM     11  C   UNL     1      -1.308  12.648  21.191  0.00  0.00    +0.000 A 
ATOM     12  C   UNL     1      -2.597  12.705  21.706  0.00  0.00    +0.000 A 
ATOM     13  C   UNL     1      -2.896  13.560  22.767  0.00  0.00    +0.000 A 
ATOM     14  C   UNL     1      -1.876  14.258  23.409  0.00  0.00    +0.000 A 
ATOM     15  C   UNL     1      -0.552  14.075  23.013  0.00  0.00    +0.000 A 
ATOM     16  C   UNL     1      -0.266  13.271  21.903  0.00  0.00    +0.000 A 
BRANCH  16  17
ATOM     17  O   UNL     1       1.044  13.133  21.535  0.00  0.00    +0.000 OA
ATOM     18  H   UNL     1       1.079  12.619  20.711  0.00  0.00    +0.000 HD
ENDBRANCH  16  17
ENDBRANCH   5  11
BRANCH   1  19
ATOM     19  C   UNL     1       2.611   7.823  19.606  0.00  0.00    +0.000 C 
BRANCH  19  24
ATOM     20  C   UNL     1       1.007   2.254  18.858  0.00  0.00    +0.000 C 
ATOM     21  C   UNL     1       1.344   3.707  19.024  0.00  0.00    +0.000 A 
ATOM     22  C   UNL     1       1.784   4.474  17.940  0.00  0.00    +0.000 A 
ATOM     23  C   UNL     1       2.174   5.806  18.121  0.00  0.00    +0.000 A 
ATOM     24  C   UNL     1       2.138   6.398  19.392  0.00  0.00    +0.000 A 
ATOM     25  C   UNL     1       1.654   5.639  20.468  0.00  0.00    +0.000 A 
ATOM     26  C   UNL     1       1.270   4.305  20.288  0.00  0.00    +0.000 A 
ENDBRANCH  19  24
ENDBRANCH   1  19
TORSDOF 4
ENDMDL
MODEL 6
REMARK VINA RESULT:      -7.1      5.573      8.102
REMARK  Name = 
REMARK  6 active torsions:
REMARK  status: ('A' for Active; 'I' for Inactive)
REMARK    1  A    between atoms: C_1  and  C_2
REMARK    2  A    between atoms: C_5  and  C_6
REMARK    3  A    between atoms: C_6  and  N_7
REMARK    4  A    between atoms: C_11  and  C_13
REMARK    5  A    between atoms: C_18  and  O_19
REMARK    6  A    between atoms: C_20  and  C_21
REMARK                            x       y       z     vdW  Elec       q    Type
REMARK                         _______ _______ _______ _____ _____    ______ ____
ROOT
ATOM      1  N   UNL     1       1.820   7.822  19.794  0.00  0.00    +0.000 N 
ATOM      2  C   UNL     1       2.464   8.308  18.571  0.00  0.00    +0.000 C 
ATOM      3  C   UNL     1       1.600   9.305  17.796  0.00  0.00    +0.000 C 
ATOM      4  N   UNL     1       1.109  10.353  18.697  0.00  0.00    +0.000 N 
ATOM      5  C   UNL     1       1.687  11.625  18.517  0.00  0.00    +0.000 C 
ATOM      6  O   UNL     1       2.546  11.825  17.658  0.00  0.00    +0.000 OA
ATOM      7  C   UNL     1       0.279   9.762  19.780  0.00  0.00    +0.000 C 
ATOM      8  C   UNL     1      -0.628  10.594  20.676  0.00  0.00    +0.000 C 
ATOM      9  C   UNL     1       1.080   8.701  20.591  0.00  0.00    +0.000 C 
ATOM     10  O   UNL     1       0.899   8.511  21.793  0.00  0.00    +0.000 OA
ENDROOT
BRANCH   5  11
ATOM     11  C   UNL     1       1.306  12.790  19.350  0.00  0.00    +0.000 A 
ATOM     12  C   UNL     1       2.115  13.170  20.413  0.00  0.00    +0.000 A 
ATOM     13  C   UNL     1       1.705  14.177  21.288  0.00  0.00    +0.000 A 
ATOM     14  C   UNL     1       0.549  14.905  21.020  0.00  0.00    +0.000 A 
ATOM     15  C   UNL     1      -0.181  14.650  19.858  0.00  0.00    +0.000 A 
ATOM     16  C   UNL     1       0.196  13.592  19.023  0.00  0.00    +0.000 A 
BRANCH  16  17
ATOM     17  O   UNL     1      -0.557  13.362  17.905  0.00  0.00    +0.000 OA
ATOM     18  H   UNL     1      -0.469  14.127  17.313  0.00  0.00    +0.000 HD
ENDBRANCH  16  17
ENDBRANCH   5  11
BRANCH   1  19
ATOM     19  C   UNL     1       2.179   6.507  20.302  0.00  0.00    +0.000 C 
BRANCH  19  24
ATOM     20  C   UNL     1       5.302   3.691  16.245  0.00  0.00    +0.000 C 
ATOM     21  C   UNL     1       4.490   4.342  17.326  0.00  0.00    +0.000 A 
ATOM     22  C   UNL     1       3.092   4.332  17.283  0.00  0.00    +0.000 A 
ATOM     23  C   UNL     1       2.345   5.012  18.252  0.00  0.00    +0.000 A 
ATOM     24  C   UNL     1       2.981   5.722  19.281  0.00  0.00    +0.000 A 
ATOM     25  C   UNL     1       4.382   5.692  19.345  0.00  0.00    +0.000 A 
ATOM     26  C   UNL     1       5.129   5.017  18.372  0.00  0.00    +0.000 A 
ENDBRANCH  19  24
ENDBRANCH   1  19
TORSDOF 4
ENDMDL
MODEL 7
REMARK VINA RESULT:      -6.9      5.517      8.574
REMARK  Name = 
REMARK  6 active torsions:
REMARK  status: ('A' for Active; 'I' for Inactive)
REMARK    1  A    between atoms: C_1  and  C_2
REMARK    2  A    between atoms: C_5  and  C_6
REMARK    3  A    between atoms: C_6  and  N_7
REMARK    4  A    between atoms: C_11  and  C_13
REMARK    5  A    between atoms: C_18  and  O_19
REMARK    6  A    between atoms: C_20  and  C_21
REMARK                            x       y       z     vdW  Elec       q    Type
REMARK                         _______ _______ _______ _____ _____    ______ ____
ROOT
ATOM      1  N   UNL     1       1.547   7.875  20.431  0.00  0.00    +0.000 N 
ATOM      2  C   UNL     1       2.216   8.050  19.140  0.00  0.00    +0.000 C 
ATOM      3  C   UNL     1       1.401   8.891  18.155  0.00  0.00    +0.000 C 
ATOM      4  N   UNL     1       0.958  10.133  18.797  0.00  0.00    +0.000 N 
ATOM      5  C   UNL     1       1.595  11.307  18.350  0.00  0.00    +0.000 C 
ATOM      6  O   UNL     1       2.464  11.273  17.479  0.00  0.00    +0.000 OA
ATOM      7  C   UNL     1       0.099   9.832  19.974  0.00  0.00    +0.000 C 
ATOM      8  C   UNL     1      -0.770  10.881  20.654  0.00  0.00    +0.000 C 
ATOM      9  C   UNL     1       0.848   8.940  21.008  0.00  0.00    +0.000 C 
ATOM     10  O   UNL     1       0.656   9.026  22.220  0.00  0.00    +0.000 OA
ENDROOT
BRANCH   5  11
ATOM     11  C   UNL     1       1.267  12.642  18.903  0.00  0.00    +0.000 A 
ATOM     12  C   UNL     1       2.140  13.250  19.797  0.00  0.00    +0.000 A 
ATOM     13  C   UNL     1       1.785  14.442  20.429  0.00  0.00    +0.000 A 
ATOM     14  C   UNL     1       0.616  15.104  20.062  0.00  0.00    +0.000 A 
ATOM     15  C   UNL     1      -0.182  14.593  19.039  0.00  0.00    +0.000 A 
ATOM     16  C   UNL     1       0.141  13.361  18.459  0.00  0.00    +0.000 A 
BRANCH  16  17
ATOM     17  O   UNL     1      -0.678  12.885  17.473  0.00  0.00    +0.000 OA
ATOM     18  H   UNL     1      -0.515  13.398  16.664  0.00  0.00    +0.000 HD
ENDBRANCH  16  17
ENDBRANCH   5  11
BRANCH   1  19
ATOM     19  C   UNL     1       1.844   6.688  21.220  0.00  0.00    +0.000 C 
BRANCH  19  24
ATOM     20  C   UNL     1       2.574   2.151  17.611  0.00  0.00    +0.000 C 
ATOM     21  C   UNL     1       2.403   3.266  18.601  0.00  0.00    +0.000 A 
ATOM     22  C   UNL     1       1.190   3.454  19.273  0.00  0.00    +0.000 A 
ATOM     23  C   UNL     1       1.014   4.544  20.132  0.00  0.00    +0.000 A 
ATOM     24  C   UNL     1       2.045   5.474  20.333  0.00  0.00    +0.000 A 
ATOM     25  C   UNL     1       3.274   5.255  19.693  0.00  0.00    +0.000 A 
ATOM     26  C   UNL     1       3.448   4.169  18.828  0.00  0.00    +0.000 A 
ENDBRANCH  19  24
ENDBRANCH   1  19
TORSDOF 4
ENDMDL
MODEL 8
REMARK VINA RESULT:      -6.9      7.079      9.519
REMARK  Name = 
REMARK  6 active torsions:
REMARK  status: ('A' for Active; 'I' for Inactive)
REMARK    1  A    between atoms: C_1  and  C_2
REMARK    2  A    between atoms: C_5  and  C_6
REMARK    3  A    between atoms: C_6  and  N_7
REMARK    4  A    between atoms: C_11  and  C_13
REMARK    5  A    between atoms: C_18  and  O_19
REMARK    6  A    between atoms: C_20  and  C_21
REMARK                            x       y       z     vdW  Elec       q    Type
REMARK                         _______ _______ _______ _____ _____    ______ ____
ROOT
ATOM      1  N   UNL     1       1.229   9.190  20.034  0.00  0.00    +0.000 N 
ATOM      2  C   UNL     1       0.493   9.820  18.935  0.00  0.00    +0.000 C 
ATOM      3  C   UNL     1      -0.990  10.027  19.250  0.00  0.00    +0.000 C 
ATOM      4  N   UNL     1      -1.141  10.683  20.554  0.00  0.00    +0.000 N 
ATOM      5  C   UNL     1      -1.575  12.022  20.511  0.00  0.00    +0.000 C 
ATOM      6  O   UNL     1      -1.806  12.588  19.443  0.00  0.00    +0.000 OA
ATOM      7  C   UNL     1      -0.549   9.843  21.630  0.00  0.00    +0.000 C 
ATOM      8  C   UNL     1      -0.822  10.080  23.109  0.00  0.00    +0.000 C 
ATOM      9  C   UNL     1       0.956   9.552  21.357  0.00  0.00    +0.000 C 
ATOM     10  O   UNL     1       1.781   9.428  22.261  0.00  0.00    +0.000 OA
ENDROOT
BRANCH   5  11
ATOM     11  C   UNL     1      -1.771  12.827  21.740  0.00  0.00    +0.000 A 
ATOM     12  C   UNL     1      -0.731  13.611  22.222  0.00  0.00    +0.000 A 
ATOM     13  C   UNL     1      -0.852  14.268  23.447  0.00  0.00    +0.000 A 
ATOM     14  C   UNL     1      -2.067  14.258  24.126  0.00  0.00    +0.000 A 
ATOM     15  C   UNL     1      -3.173  13.620  23.565  0.00  0.00    +0.000 A 
ATOM     16  C   UNL     1      -3.026  12.903  22.373  0.00  0.00    +0.000 A 
BRANCH  16  17
ATOM     17  O   UNL     1      -4.130  12.275  21.866  0.00  0.00    +0.000 OA
ATOM     18  H   UNL     1      -4.808  12.235  22.561  0.00  0.00    +0.000 HD
ENDBRANCH  16  17
ENDBRANCH   5  11
BRANCH   1  19
ATOM     19  C   UNL     1       2.413   8.402  19.725  0.00  0.00    +0.000 C 
BRANCH  19  24
ATOM     20  C   UNL     1       1.305   2.687  19.219  0.00  0.00    +0.000 C 
ATOM     21  C   UNL     1       1.517   4.169  19.315  0.00  0.00    +0.000 A 
ATOM     22  C   UNL     1       2.003   4.900  18.226  0.00  0.00    +0.000 A 
ATOM     23  C   UNL     1       2.273   6.268  18.349  0.00  0.00    +0.000 A 
ATOM     24  C   UNL     1       2.070   6.932  19.568  0.00  0.00    +0.000 A 
ATOM     25  C   UNL     1       1.540   6.205  20.644  0.00  0.00    +0.000 A 
ATOM     26  C   UNL     1       1.276   4.836  20.522  0.00  0.00    +0.000 A 
ENDBRANCH  19  24
ENDBRANCH   1  19
TORSDOF 4
ENDMDL
MODEL 9
REMARK VINA RESULT:      -6.8      9.491     12.116
REMARK  Name = 
REMARK  6 active torsions:
REMARK  status: ('A' for Active; 'I' for Inactive)
REMARK    1  A    between atoms: C_1  and  C_2
REMARK    2  A    between atoms: C_5  and  C_6
REMARK    3  A    between atoms: C_6  and  N_7
REMARK    4  A    between atoms: C_11  and  C_13
REMARK    5  A    between atoms: C_18  and  O_19
REMARK    6  A    between atoms: C_20  and  C_21
REMARK                            x       y       z     vdW  Elec       q    Type
REMARK                         _______ _______ _______ _____ _____    ______ ____
ROOT
ATOM      1  N   UNL     1      -0.049  13.522  20.547  0.00  0.00    +0.000 N 
ATOM      2  C   UNL     1      -0.468  14.623  19.676  0.00  0.00    +0.000 C 
ATOM      3  C   UNL     1       0.317  15.912  19.924  0.00  0.00    +0.000 C 
ATOM      4  N   UNL     1       1.758  15.633  19.923  0.00  0.00    +0.000 N 
ATOM      5  C   UNL     1       2.468  16.120  18.807  0.00  0.00    +0.000 C 
ATOM      6  O   UNL     1       1.901  16.734  17.904  0.00  0.00    +0.000 OA
ATOM      7  C   UNL     1       2.101  14.665  20.998  0.00  0.00    +0.000 C 
ATOM      8  C   UNL     1       3.529  14.418  21.465  0.00  0.00    +0.000 C 
ATOM      9  C   UNL     1       1.306  13.335  20.837  0.00  0.00    +0.000 C 
ATOM     10  O   UNL     1       1.770  12.243  21.161  0.00  0.00    +0.000 OA
ENDROOT
BRANCH   5  11
ATOM     11  C   UNL     1       3.927  15.916  18.651  0.00  0.00    +0.000 A 
ATOM     12  C   UNL     1       4.811  16.856  19.166  0.00  0.00    +0.000 A 
ATOM     13  C   UNL     1       6.179  16.750  18.913  0.00  0.00    +0.000 A 
ATOM     14  C   UNL     1       6.683  15.628  18.261  0.00  0.00    +0.000 A 
ATOM     15  C   UNL     1       5.824  14.593  17.893  0.00  0.00    +0.000 A 
ATOM     16  C   UNL     1       4.445  14.736  18.086  0.00  0.00    +0.000 A 
BRANCH  16  17
ATOM     17  O   UNL     1       3.635  13.706  17.693  0.00  0.00    +0.000 OA
ATOM     18  H   UNL     1       3.199  13.341  18.480  0.00  0.00    +0.000 HD
ENDBRANCH  16  17
ENDBRANCH   5  11
BRANCH   1  19
ATOM     19  C   UNL     1      -1.013  12.481  20.876  0.00  0.00    +0.000 C 
BRANCH  19  24
ATOM     20  C   UNL     1      -2.718   9.852  15.944  0.00  0.00    +0.000 C 
ATOM     21  C   UNL     1      -2.321  10.470  17.252  0.00  0.00    +0.000 A 
ATOM     22  C   UNL     1      -3.173  11.358  17.918  0.00  0.00    +0.000 A 
ATOM     23  C   UNL     1      -2.762  11.992  19.096  0.00  0.00    +0.000 A 
ATOM     24  C   UNL     1      -1.486  11.756  19.630  0.00  0.00    +0.000 A 
ATOM     25  C   UNL     1      -0.653  10.831  18.984  0.00  0.00    +0.000 A 
ATOM     26  C   UNL     1      -1.062  10.202  17.802  0.00  0.00    +0.000 A 
ENDBRANCH  19  24
ENDBRANCH   1  19
TORSDOF 4
ENDMDL
