MODEL 1
REMARK VINA RESULT:      -8.2      0.000      0.000
REMARK  Name = 
REMARK  6 active torsions:
REMARK  status: ('A' for Active; 'I' for Inactive)
REMARK    1  A    between atoms: C_1  and  C_2
REMARK    2  A    between atoms: C_5  and  C_6
REMARK    3  A    between atoms: C_8  and  N_9
REMARK    4  A    between atoms: C_13  and  C_14
REMARK    5  A    between atoms: C_16  and  N_17
REMARK    6  A    between atoms: C_24  and  C_25
REMARK                            x       y       z     vdW  Elec       q    Type
REMARK                         _______ _______ _______ _____ _____    ______ ____
ROOT
ATOM      1  N   UNL     1       4.018   3.944  18.238  0.00  0.00    +0.000 N 
ATOM      2  C   UNL     1       2.977   3.020  17.762  0.00  0.00    +0.000 C 
ATOM      3  C   UNL     1       1.597   3.476  18.230  0.00  0.00    +0.000 C 
ATOM      4  C   UNL     1       1.561   3.701  19.740  0.00  0.00    +0.000 C 
ATOM      5  C   UNL     1       2.663   4.674  20.202  0.00  0.00    +0.000 C 
ATOM      6  C   UNL     1       4.031   4.187  19.681  0.00  0.00    +0.000 C 
ENDROOT
BRANCH   1  12
ATOM      7  C   UNL     1       5.247   3.964  13.666  0.00  0.00    +0.000 C 
ATOM      8  C   UNL     1       5.645   4.315  15.066  0.00  0.00    +0.000 A 
ATOM      9  C   UNL     1       6.835   4.962  15.327  0.00  0.00    +0.000 A 
ATOM     10  C   UNL     1       7.139   5.250  16.648  0.00  0.00    +0.000 A 
ATOM     11  C   UNL     1       6.243   4.904  17.673  0.00  0.00    +0.000 A 
ATOM     12  C   UNL     1       5.027   4.277  17.355  0.00  0.00    +0.000 A 
ATOM     13  N   UNL     1       4.772   3.988  16.050  0.00  0.00    +0.000 NA
BRANCH  11  14
ATOM     14  C   UNL     1       6.680   5.181  19.005  0.00  0.00    +0.000 C 
ATOM     15  N   UNL     1       7.068   5.431  20.072  0.00  0.00    +0.000 NA
ENDBRANCH  11  14
ENDBRANCH   1  12
BRANCH   5  16
ATOM     16  C   UNL     1       2.379   6.136  19.869  0.00  0.00    +0.000 A 
ATOM     17  C   UNL     1       1.453   6.869  20.590  0.00  0.00    +0.000 A 
ATOM     18  C   UNL     1       1.145   8.155  20.170  0.00  0.00    +0.000 A 
ATOM     19  N   UNL     1       1.734   8.685  19.085  0.00  0.00    +0.000 NA
ATOM     20  C   UNL     1       2.639   7.920  18.445  0.00  0.00    +0.000 A 
ATOM     21  C   UNL     1       3.328   8.474  17.238  0.00  0.00    +0.000 C 
ATOM     22  N   UNL     1       2.970   6.662  18.784  0.00  0.00    +0.000 NA
BRANCH  18  23
ATOM     23  N   UNL     1       0.152   8.853  20.841  0.00  0.00    +0.000 N 
ATOM     24  C   UNL     1      -0.098  10.257  20.500  0.00  0.00    +0.000 C 
ATOM     25  C   UNL     1       0.326  11.214  21.620  0.00  0.00    +0.000 C 
ATOM     26  O   UNL     1      -0.211  10.816  22.894  0.00  0.00    +0.000 OA
ATOM     27  C   UNL     1       0.274   9.508  23.231  0.00  0.00    +0.000 C 
ATOM     28  C   UNL     1      -0.191   8.455  22.213  0.00  0.00    +0.000 C 
ENDBRANCH  18  23
ENDBRANCH   5  16
TORSDOF 4
ENDMDL
MODEL 2
REMARK VINA RESULT:      -7.4      3.785      6.877
REMARK  Name = 
REMARK  6 active torsions:
REMARK  status: ('A' for Active; 'I' for Inactive)
REMARK    1  A    between atoms: C_1  and  C_2
REMARK    2  A    between atoms: C_5  and  C_6
REMARK    3  A    between atoms: C_8  and  N_9
REMARK    4  A    between atoms: C_13  and  C_14
REMARK    5  A    between atoms: C_16  and  N_17
REMARK    6  A    between atoms: C_24  and  C_25
REMARK                            x       y       z     vdW  Elec       q    Type
REMARK                         _______ _______ _______ _____ _____    ______ ____
ROOT
ATOM      1  N   UNL     1       0.959   9.710  21.013  0.00  0.00    +0.000 N 
ATOM      2  C   UNL     1       0.531   9.314  22.363  0.00  0.00    +0.000 C 
ATOM      3  C   UNL     1      -0.775  10.011  22.740  0.00  0.00    +0.000 C 
ATOM      4  C   UNL     1      -0.678  11.525  22.555  0.00  0.00    +0.000 C 
ATOM      5  C   UNL     1      -0.229  11.901  21.130  0.00  0.00    +0.000 C 
ATOM      6  C   UNL     1       1.075  11.151  20.787  0.00  0.00    +0.000 C 
ENDROOT
BRANCH   1  12
ATOM      7  C   UNL     1       1.876   5.074  20.720  0.00  0.00    +0.000 C 
ATOM      8  C   UNL     1       1.902   6.397  20.019  0.00  0.00    +0.000 A 
ATOM      9  C   UNL     1       2.300   6.498  18.703  0.00  0.00    +0.000 A 
ATOM     10  C   UNL     1       2.304   7.756  18.123  0.00  0.00    +0.000 A 
ATOM     11  C   UNL     1       1.891   8.879  18.861  0.00  0.00    +0.000 A 
ATOM     12  C   UNL     1       1.460   8.720  20.188  0.00  0.00    +0.000 A 
ATOM     13  N   UNL     1       1.493   7.474  20.733  0.00  0.00    +0.000 NA
BRANCH  11  14
ATOM     14  C   UNL     1       1.996  10.138  18.193  0.00  0.00    +0.000 C 
ATOM     15  N   UNL     1       2.120  11.150  17.635  0.00  0.00    +0.000 NA
ENDBRANCH  11  14
ENDBRANCH   1  12
BRANCH   5  16
ATOM     16  C   UNL     1      -1.315  11.733  20.072  0.00  0.00    +0.000 A 
ATOM     17  C   UNL     1      -2.561  12.315  20.225  0.00  0.00    +0.000 A 
ATOM     18  C   UNL     1      -3.550  12.032  19.294  0.00  0.00    +0.000 A 
ATOM     19  N   UNL     1      -3.308  11.209  18.260  0.00  0.00    +0.000 NA
ATOM     20  C   UNL     1      -2.066  10.695  18.165  0.00  0.00    +0.000 A 
ATOM     21  C   UNL     1      -1.748   9.783  17.022  0.00  0.00    +0.000 C 
ATOM     22  N   UNL     1      -1.069  10.910  19.039  0.00  0.00    +0.000 NA
BRANCH  18  23
ATOM     23  N   UNL     1      -4.822  12.544  19.500  0.00  0.00    +0.000 N 
ATOM     24  C   UNL     1      -5.083  13.371  20.683  0.00  0.00    +0.000 C 
ATOM     25  C   UNL     1      -5.987  12.666  21.701  0.00  0.00    +0.000 C 
ATOM     26  O   UNL     1      -7.172  12.134  21.085  0.00  0.00    +0.000 OA
ATOM     27  C   UNL     1      -6.803  11.170  20.088  0.00  0.00    +0.000 C 
ATOM     28  C   UNL     1      -5.977  11.811  18.962  0.00  0.00    +0.000 C 
ENDBRANCH  18  23
ENDBRANCH   5  16
TORSDOF 4
ENDMDL
MODEL 3
REMARK VINA RESULT:      -7.4      7.480     11.496
REMARK  Name = 
REMARK  6 active torsions:
REMARK  status: ('A' for Active; 'I' for Inactive)
REMARK    1  A    between atoms: C_1  and  C_2
REMARK    2  A    between atoms: C_5  and  C_6
REMARK    3  A    between atoms: C_8  and  N_9
REMARK    4  A    between atoms: C_13  and  C_14
REMARK    5  A    between atoms: C_16  and  N_17
REMARK    6  A    between atoms: C_24  and  C_25
REMARK                            x       y       z     vdW  Elec       q    Type
REMARK                         _______ _______ _______ _____ _____    ______ ____
ROOT
ATOM      1  N   UNL     1      -6.099  12.715  20.734  0.00  0.00    +0.000 N 
ATOM      2  C   UNL     1      -7.153  11.699  20.871  0.00  0.00    +0.000 C 
ATOM      3  C   UNL     1      -7.092  10.700  19.717  0.00  0.00    +0.000 C 
ATOM      4  C   UNL     1      -7.105  11.406  18.362  0.00  0.00    +0.000 C 
ATOM      5  C   UNL     1      -5.986  12.460  18.254  0.00  0.00    +0.000 C 
ATOM      6  C   UNL     1      -6.072  13.426  19.454  0.00  0.00    +0.000 C 
ENDROOT
BRANCH   1  12
ATOM      7  C   UNL     1      -2.287  11.811  23.393  0.00  0.00    +0.000 C 
ATOM      8  C   UNL     1      -3.504  12.663  23.207  0.00  0.00    +0.000 A 
ATOM      9  C   UNL     1      -3.778  13.710  24.061  0.00  0.00    +0.000 A 
ATOM     10  C   UNL     1      -4.926  14.452  23.830  0.00  0.00    +0.000 A 
ATOM     11  C   UNL     1      -5.761  14.144  22.742  0.00  0.00    +0.000 A 
ATOM     12  C   UNL     1      -5.422  13.089  21.879  0.00  0.00    +0.000 A 
ATOM     13  N   UNL     1      -4.300  12.368  22.150  0.00  0.00    +0.000 NA
BRANCH  11  14
ATOM     14  C   UNL     1      -6.954  14.923  22.632  0.00  0.00    +0.000 C 
ATOM     15  N   UNL     1      -7.916  15.573  22.580  0.00  0.00    +0.000 NA
ENDBRANCH  11  14
ENDBRANCH   1  12
BRANCH   5  16
ATOM     16  C   UNL     1      -4.594  11.870  18.056  0.00  0.00    +0.000 A 
ATOM     17  C   UNL     1      -3.545  12.210  18.892  0.00  0.00    +0.000 A 
ATOM     18  C   UNL     1      -2.274  11.740  18.594  0.00  0.00    +0.000 A 
ATOM     19  N   UNL     1      -2.059  10.966  17.517  0.00  0.00    +0.000 NA
ATOM     20  C   UNL     1      -3.131  10.659  16.761  0.00  0.00    +0.000 A 
ATOM     21  C   UNL     1      -2.942   9.789  15.559  0.00  0.00    +0.000 C 
ATOM     22  N   UNL     1      -4.384  11.095  16.978  0.00  0.00    +0.000 NA
BRANCH  18  23
ATOM     23  N   UNL     1      -1.210  12.157  19.381  0.00  0.00    +0.000 N 
ATOM     24  C   UNL     1      -1.274  13.463  20.045  0.00  0.00    +0.000 C 
ATOM     25  C   UNL     1      -0.289  14.473  19.446  0.00  0.00    +0.000 C 
ATOM     26  O   UNL     1       1.039  13.929  19.349  0.00  0.00    +0.000 OA
ATOM     27  C   UNL     1       1.024  12.775  18.496  0.00  0.00    +0.000 C 
ATOM     28  C   UNL     1       0.138  11.660  19.072  0.00  0.00    +0.000 C 
ENDBRANCH  18  23
ENDBRANCH   5  16
TORSDOF 4
ENDMDL
MODEL 4
REMARK VINA RESULT:      -7.4      6.532      9.513
REMARK  Name = 
REMARK  6 active torsions:
REMARK  status: ('A' for Active; 'I' for Inactive)
REMARK    1  A    between atoms: C_1  and  C_2
REMARK    2  A    between atoms: C_5  and  C_6
REMARK    3  A    between atoms: C_8  and  N_9
REMARK    4  A    between atoms: C_13  and  C_14
REMARK    5  A    between atoms: C_16  and  N_17
REMARK    6  A    between atoms: C_24  and  C_25
REMARK                            x       y       z     vdW  Elec       q    Type
REMARK                         _______ _______ _______ _____ _____    ______ ____
ROOT
ATOM      1  N   UNL     1      -0.513  11.412  20.398  0.00  0.00    +0.000 N 
ATOM      2  C   UNL     1       0.730  12.086  19.994  0.00  0.00    +0.000 C 
ATOM      3  C   UNL     1       0.879  12.076  18.474  0.00  0.00    +0.000 C 
ATOM      4  C   UNL     1       0.745  10.664  17.906  0.00  0.00    +0.000 C 
ATOM      5  C   UNL     1      -0.569   9.991  18.348  0.00  0.00    +0.000 C 
ATOM      6  C   UNL     1      -0.687  10.052  19.885  0.00  0.00    +0.000 C 
ENDROOT
BRANCH   1  12
ATOM      7  C   UNL     1      -3.533  14.918  21.399  0.00  0.00    +0.000 C 
ATOM      8  C   UNL     1      -2.785  13.730  21.919  0.00  0.00    +0.000 A 
ATOM      9  C   UNL     1      -2.948  13.299  23.219  0.00  0.00    +0.000 A 
ATOM     10  C   UNL     1      -2.218  12.196  23.632  0.00  0.00    +0.000 A 
ATOM     11  C   UNL     1      -1.360  11.538  22.735  0.00  0.00    +0.000 A 
ATOM     12  C   UNL     1      -1.253  11.993  21.410  0.00  0.00    +0.000 A 
ATOM     13  N   UNL     1      -1.966  13.093  21.046  0.00  0.00    +0.000 NA
BRANCH  11  14
ATOM     14  C   UNL     1      -0.601  10.454  23.277  0.00  0.00    +0.000 C 
ATOM     15  N   UNL     1       0.019   9.595  23.754  0.00  0.00    +0.000 NA
ENDBRANCH  11  14
ENDBRANCH   1  12
BRANCH   5  16
ATOM     16  C   UNL     1      -1.808  10.515  17.628  0.00  0.00    +0.000 A 
ATOM     17  C   UNL     1      -2.751  11.280  18.291  0.00  0.00    +0.000 A 
ATOM     18  C   UNL     1      -3.917  11.629  17.623  0.00  0.00    +0.000 A 
ATOM     19  N   UNL     1      -4.130  11.236  16.357  0.00  0.00    +0.000 NA
ATOM     20  C   UNL     1      -3.158  10.511  15.770  0.00  0.00    +0.000 A 
ATOM     21  C   UNL     1      -3.348  10.062  14.355  0.00  0.00    +0.000 C 
ATOM     22  N   UNL     1      -2.017  10.121  16.362  0.00  0.00    +0.000 NA
BRANCH  18  23
ATOM     23  N   UNL     1      -4.900  12.318  18.319  0.00  0.00    +0.000 N 
ATOM     24  C   UNL     1      -5.174  11.966  19.716  0.00  0.00    +0.000 C 
ATOM     25  C   UNL     1      -6.538  11.290  19.893  0.00  0.00    +0.000 C 
ATOM     26  O   UNL     1      -7.590  12.038  19.260  0.00  0.00    +0.000 OA
ATOM     27  C   UNL     1      -7.330  12.136  17.852  0.00  0.00    +0.000 C 
ATOM     28  C   UNL     1      -6.025  12.896  17.571  0.00  0.00    +0.000 C 
ENDBRANCH  18  23
ENDBRANCH   5  16
TORSDOF 4
ENDMDL
MODEL 5
REMARK VINA RESULT:      -7.3      3.397      9.229
REMARK  Name = 
REMARK  6 active torsions:
REMARK  status: ('A' for Active; 'I' for Inactive)
REMARK    1  A    between atoms: C_1  and  C_2
REMARK    2  A    between atoms: C_5  and  C_6
REMARK    3  A    between atoms: C_8  and  N_9
REMARK    4  A    between atoms: C_13  and  C_14
REMARK    5  A    between atoms: C_16  and  N_17
REMARK    6  A    between atoms: C_24  and  C_25
REMARK                            x       y       z     vdW  Elec       q    Type
REMARK                         _______ _______ _______ _____ _____    ______ ____
ROOT
ATOM      1  N   UNL     1      -1.386  12.208  19.379  0.00  0.00    +0.000 N 
ATOM      2  C   UNL     1      -2.541  11.680  18.638  0.00  0.00    +0.000 C 
ATOM      3  C   UNL     1      -2.299  10.229  18.226  0.00  0.00    +0.000 C 
ATOM      4  C   UNL     1      -0.976  10.070  17.478  0.00  0.00    +0.000 C 
ATOM      5  C   UNL     1       0.210  10.632  18.286  0.00  0.00    +0.000 C 
ATOM      6  C   UNL     1      -0.094  12.086  18.702  0.00  0.00    +0.000 C 
ENDROOT
BRANCH   1  12
ATOM      7  C   UNL     1      -3.210  12.165  23.748  0.00  0.00    +0.000 C 
ATOM      8  C   UNL     1      -2.534  12.977  22.687  0.00  0.00    +0.000 A 
ATOM      9  C   UNL     1      -2.177  14.289  22.914  0.00  0.00    +0.000 A 
ATOM     10  C   UNL     1      -1.560  14.979  21.883  0.00  0.00    +0.000 A 
ATOM     11  C   UNL     1      -1.295  14.339  20.660  0.00  0.00    +0.000 A 
ATOM     12  C   UNL     1      -1.646  12.990  20.489  0.00  0.00    +0.000 A 
ATOM     13  N   UNL     1      -2.272  12.351  21.514  0.00  0.00    +0.000 NA
BRANCH  11  14
ATOM     14  C   UNL     1      -0.718  15.157  19.639  0.00  0.00    +0.000 C 
ATOM     15  N   UNL     1      -0.214  15.797  18.811  0.00  0.00    +0.000 NA
ENDBRANCH  11  14
ENDBRANCH   1  12
BRANCH   5  16
ATOM     16  C   UNL     1       0.639   9.750  19.454  0.00  0.00    +0.000 A 
ATOM     17  C   UNL     1       1.407   8.616  19.251  0.00  0.00    +0.000 A 
ATOM     18  C   UNL     1       1.667   7.785  20.331  0.00  0.00    +0.000 A 
ATOM     19  N   UNL     1       1.188   8.070  21.553  0.00  0.00    +0.000 NA
ATOM     20  C   UNL     1       0.466   9.200  21.678  0.00  0.00    +0.000 A 
ATOM     21  C   UNL     1      -0.078   9.565  23.023  0.00  0.00    +0.000 C 
ATOM     22  N   UNL     1       0.158  10.039  20.674  0.00  0.00    +0.000 NA
BRANCH  18  23
ATOM     23  N   UNL     1       2.359   6.603  20.107  0.00  0.00    +0.000 N 
ATOM     24  C   UNL     1       2.971   6.364  18.797  0.00  0.00    +0.000 C 
ATOM     25  C   UNL     1       2.263   5.253  18.014  0.00  0.00    +0.000 C 
ATOM     26  O   UNL     1       2.095   4.065  18.807  0.00  0.00    +0.000 OA
ATOM     27  C   UNL     1       1.293   4.367  19.959  0.00  0.00    +0.000 C 
ATOM     28  C   UNL     1       1.976   5.403  20.864  0.00  0.00    +0.000 C 
ENDBRANCH  18  23
ENDBRANCH   5  16
TORSDOF 4
ENDMDL
MODEL 6
REMARK VINA RESULT:      -7.2      3.393      9.100
REMARK  Name = 
REMARK  6 active torsions:
REMARK  status: ('A' for Active; 'I' for Inactive)
REMARK    1  A    between atoms: C_1  and  C_2
REMARK    2  A    between atoms: C_5  and  C_6
REMARK    3  A    between atoms: C_8  and  N_9
REMARK    4  A    between atoms: C_13  and  C_14
REMARK    5  A    between atoms: C_16  and  N_17
REMARK    6  A    between atoms: C_24  and  C_25
REMARK                            x       y       z     vdW  Elec       q    Type
REMARK                         _______ _______ _______ _____ _____    ______ ____
ROOT
ATOM      1  N   UNL     1      -1.606  11.963  19.532  0.00  0.00    +0.000 N 
ATOM      2  C   UNL     1      -2.643  11.388  18.662  0.00  0.00    +0.000 C 
ATOM      3  C   UNL     1      -2.206  10.024  18.133  0.00  0.00    +0.000 C 
ATOM      4  C   UNL     1      -0.831  10.091  17.471  0.00  0.00    +0.000 C 
ATOM      5  C   UNL     1       0.229  10.696  18.413  0.00  0.00    +0.000 C 
ATOM      6  C   UNL     1      -0.270  12.057  18.942  0.00  0.00    +0.000 C 
ENDROOT
BRANCH   1  12
ATOM      7  C   UNL     1      -5.408  13.073  22.127  0.00  0.00    +0.000 C 
ATOM      8  C   UNL     1      -3.916  13.134  22.010  0.00  0.00    +0.000 A 
ATOM      9  C   UNL     1      -3.146  13.683  23.014  0.00  0.00    +0.000 A 
ATOM     10  C   UNL     1      -1.772  13.710  22.833  0.00  0.00    +0.000 A 
ATOM     11  C   UNL     1      -1.199  13.173  21.668  0.00  0.00    +0.000 A 
ATOM     12  C   UNL     1      -2.023  12.593  20.689  0.00  0.00    +0.000 A 
ATOM     13  N   UNL     1      -3.369  12.605  20.888  0.00  0.00    +0.000 NA
BRANCH  11  14
ATOM     14  C   UNL     1       0.218  13.312  21.548  0.00  0.00    +0.000 C 
ATOM     15  N   UNL     1       1.374  13.383  21.447  0.00  0.00    +0.000 NA
ENDBRANCH  11  14
ENDBRANCH   1  12
BRANCH   5  16
ATOM     16  C   UNL     1       0.687   9.752  19.519  0.00  0.00    +0.000 A 
ATOM     17  C   UNL     1       1.437   8.625  19.235  0.00  0.00    +0.000 A 
ATOM     18  C   UNL     1       1.725   7.737  20.262  0.00  0.00    +0.000 A 
ATOM     19  N   UNL     1       1.288   7.963  21.512  0.00  0.00    +0.000 NA
ATOM     20  C   UNL     1       0.581   9.091  21.717  0.00  0.00    +0.000 A 
ATOM     21  C   UNL     1       0.084   9.390  23.097  0.00  0.00    +0.000 C 
ATOM     22  N   UNL     1       0.249   9.982  20.768  0.00  0.00    +0.000 NA
BRANCH  18  23
ATOM     23  N   UNL     1       2.398   6.563  19.956  0.00  0.00    +0.000 N 
ATOM     24  C   UNL     1       2.801   6.304  18.570  0.00  0.00    +0.000 C 
ATOM     25  C   UNL     1       2.003   5.162  17.932  0.00  0.00    +0.000 C 
ATOM     26  O   UNL     1       1.987   3.990  18.766  0.00  0.00    +0.000 OA
ATOM     27  C   UNL     1       1.371   4.305  20.024  0.00  0.00    +0.000 C 
ATOM     28  C   UNL     1       2.165   5.375  20.789  0.00  0.00    +0.000 C 
ENDBRANCH  18  23
ENDBRANCH   5  16
TORSDOF 4
ENDMDL
MODEL 7
REMARK VINA RESULT:      -7.1      6.369      9.422
REMARK  Name = 
REMARK  6 active torsions:
REMARK  status: ('A' for Active; 'I' for Inactive)
REMARK    1  A    between atoms: C_1  and  C_2
REMARK    2  A    between atoms: C_5  and  C_6
REMARK    3  A    between atoms: C_8  and  N_9
REMARK    4  A    between atoms: C_13  and  C_14
REMARK    5  A    between atoms: C_16  and  N_17
REMARK    6  A    between atoms: C_24  and  C_25
REMARK                            x       y       z     vdW  Elec       q    Type
REMARK                         _______ _______ _______ _____ _____    ______ ____
ROOT
ATOM      1  N   UNL     1      -1.833  11.418  17.979  0.00  0.00    +0.000 N 
ATOM      2  C   UNL     1      -1.181  10.214  17.441  0.00  0.00    +0.000 C 
ATOM      3  C   UNL     1      -0.097   9.717  18.395  0.00  0.00    +0.000 C 
ATOM      4  C   UNL     1       0.887  10.828  18.756  0.00  0.00    +0.000 C 
ATOM      5  C   UNL     1       0.169  12.070  19.317  0.00  0.00    +0.000 C 
ATOM      6  C   UNL     1      -0.933  12.516  18.334  0.00  0.00    +0.000 C 
ENDROOT
BRANCH   1  12
ATOM      7  C   UNL     1      -5.837  12.372  20.320  0.00  0.00    +0.000 C 
ATOM      8  C   UNL     1      -5.217  12.007  19.006  0.00  0.00    +0.000 A 
ATOM      9  C   UNL     1      -5.982  11.890  17.865  0.00  0.00    +0.000 A 
ATOM     10  C   UNL     1      -5.339  11.544  16.687  0.00  0.00    +0.000 A 
ATOM     11  C   UNL     1      -3.949  11.343  16.671  0.00  0.00    +0.000 A 
ATOM     12  C   UNL     1      -3.206  11.508  17.852  0.00  0.00    +0.000 A 
ATOM     13  N   UNL     1      -3.873  11.825  18.995  0.00  0.00    +0.000 NA
BRANCH  11  14
ATOM     14  C   UNL     1      -3.393  10.923  15.423  0.00  0.00    +0.000 C 
ATOM     15  N   UNL     1      -2.953  10.541  14.417  0.00  0.00    +0.000 NA
ENDBRANCH  11  14
ENDBRANCH   1  12
BRANCH   5  16
ATOM     16  C   UNL     1      -0.335  11.903  20.748  0.00  0.00    +0.000 A 
ATOM     17  C   UNL     1      -1.003  12.926  21.397  0.00  0.00    +0.000 A 
ATOM     18  C   UNL     1      -1.331  12.766  22.736  0.00  0.00    +0.000 A 
ATOM     19  N   UNL     1      -1.011  11.639  23.394  0.00  0.00    +0.000 NA
ATOM     20  C   UNL     1      -0.380  10.679  22.692  0.00  0.00    +0.000 A 
ATOM     21  C   UNL     1      -0.014   9.402  23.381  0.00  0.00    +0.000 C 
ATOM     22  N   UNL     1      -0.013  10.775  21.402  0.00  0.00    +0.000 NA
BRANCH  18  23
ATOM     23  N   UNL     1      -1.919  13.828  23.407  0.00  0.00    +0.000 N 
ATOM     24  C   UNL     1      -3.245  13.655  24.008  0.00  0.00    +0.000 C 
ATOM     25  C   UNL     1      -4.328  14.458  23.278  0.00  0.00    +0.000 C 
ATOM     26  O   UNL     1      -3.942  15.831  23.095  0.00  0.00    +0.000 OA
ATOM     27  C   UNL     1      -2.745  15.892  22.305  0.00  0.00    +0.000 C 
ATOM     28  C   UNL     1      -1.569  15.198  23.010  0.00  0.00    +0.000 C 
ENDBRANCH  18  23
ENDBRANCH   5  16
TORSDOF 4
ENDMDL
MODEL 8
REMARK VINA RESULT:      -7.1      4.629      8.634
REMARK  Name = 
REMARK  6 active torsions:
REMARK  status: ('A' for Active; 'I' for Inactive)
REMARK    1  A    between atoms: C_1  and  C_2
REMARK    2  A    between atoms: C_5  and  C_6
REMARK    3  A    between atoms: C_8  and  N_9
REMARK    4  A    between atoms: C_13  and  C_14
REMARK    5  A    between atoms: C_16  and  N_17
REMARK    6  A    between atoms: C_24  and  C_25
REMARK                            x       y       z     vdW  Elec       q    Type
REMARK                         _______ _______ _______ _____ _____    ______ ____
ROOT
ATOM      1  N   UNL     1       0.619  12.017  20.121  0.00  0.00    +0.000 N 
ATOM      2  C   UNL     1       1.486  12.887  20.929  0.00  0.00    +0.000 C 
ATOM      3  C   UNL     1       0.667  13.983  21.608  0.00  0.00    +0.000 C 
ATOM      4  C   UNL     1      -0.191  14.749  20.603  0.00  0.00    +0.000 C 
ATOM      5  C   UNL     1      -1.086  13.805  19.777  0.00  0.00    +0.000 C 
ATOM      6  C   UNL     1      -0.219  12.702  19.136  0.00  0.00    +0.000 C 
ENDROOT
BRANCH   1  12
ATOM      7  C   UNL     1       2.331   8.345  17.670  0.00  0.00    +0.000 C 
ATOM      8  C   UNL     1       1.736   8.813  18.962  0.00  0.00    +0.000 A 
ATOM      9  C   UNL     1       1.575   7.951  20.026  0.00  0.00    +0.000 A 
ATOM     10  C   UNL     1       1.012   8.455  21.188  0.00  0.00    +0.000 A 
ATOM     11  C   UNL     1       0.643   9.809  21.268  0.00  0.00    +0.000 A 
ATOM     12  C   UNL     1       0.860  10.657  20.169  0.00  0.00    +0.000 A 
ATOM     13  N   UNL     1       1.392  10.123  19.036  0.00  0.00    +0.000 NA
BRANCH  11  14
ATOM     14  C   UNL     1       0.009  10.213  22.484  0.00  0.00    +0.000 C 
ATOM     15  N   UNL     1      -0.531  10.507  23.470  0.00  0.00    +0.000 NA
ENDBRANCH  11  14
ENDBRANCH   1  12
BRANCH   5  16
ATOM     16  C   UNL     1      -2.285  13.257  20.545  0.00  0.00    +0.000 A 
ATOM     17  C   UNL     1      -3.483  12.989  19.908  0.00  0.00    +0.000 A 
ATOM     18  C   UNL     1      -4.576  12.606  20.673  0.00  0.00    +0.000 A 
ATOM     19  N   UNL     1      -4.478  12.495  22.008  0.00  0.00    +0.000 NA
ATOM     20  C   UNL     1      -3.275  12.753  22.556  0.00  0.00    +0.000 A 
ATOM     21  C   UNL     1      -3.116  12.629  24.039  0.00  0.00    +0.000 C 
ATOM     22  N   UNL     1      -2.182  13.146  21.880  0.00  0.00    +0.000 NA
BRANCH  18  23
ATOM     23  N   UNL     1      -5.798  12.427  20.042  0.00  0.00    +0.000 N 
ATOM     24  C   UNL     1      -6.643  11.289  20.418  0.00  0.00    +0.000 C 
ATOM     25  C   UNL     1      -6.732  10.235  19.307  0.00  0.00    +0.000 C 
ATOM     26  O   UNL     1      -7.072  10.824  18.039  0.00  0.00    +0.000 OA
ATOM     27  C   UNL     1      -6.060  11.770  17.664  0.00  0.00    +0.000 C 
ATOM     28  C   UNL     1      -5.968  12.927  18.671  0.00  0.00    +0.000 C 
ENDBRANCH  18  23
ENDBRANCH   5  16
TORSDOF 4
ENDMDL
MODEL 9
REMARK VINA RESULT:      -7.1      4.970      8.814
REMARK  Name = 
REMARK  6 active torsions:
REMARK  status: ('A' for Active; 'I' for Inactive)
REMARK    1  A    between atoms: C_1  and  C_2
REMARK    2  A    between atoms: C_5  and  C_6
REMARK    3  A    between atoms: C_8  and  N_9
REMARK    4  A    between atoms: C_13  and  C_14
REMARK    5  A    between atoms: C_16  and  N_17
REMARK    6  A    between atoms: C_24  and  C_25
REMARK                            x       y       z     vdW  Elec       q    Type
REMARK                         _______ _______ _______ _____ _____    ______ ____
ROOT
ATOM      1  N   UNL     1       0.882  12.229  19.546  0.00  0.00    +0.000 N 
ATOM      2  C   UNL     1       2.171  12.936  19.578  0.00  0.00    +0.000 C 
ATOM      3  C   UNL     1       1.964  14.420  19.872  0.00  0.00    +0.000 C 
ATOM      4  C   UNL     1       0.954  15.047  18.913  0.00  0.00    +0.000 C 
ATOM      5  C   UNL     1      -0.383  14.282  18.908  0.00  0.00    +0.000 C 
ATOM      6  C   UNL     1      -0.119  12.787  18.636  0.00  0.00    +0.000 C 
ENDROOT
BRANCH   1  12
ATOM      7  C   UNL     1      -0.413   9.948  23.488  0.00  0.00    +0.000 C 
ATOM      8  C   UNL     1       0.155   9.829  22.108  0.00  0.00    +0.000 A 
ATOM      9  C   UNL     1       0.460   8.597  21.567  0.00  0.00    +0.000 A 
ATOM     10  C   UNL     1       0.988   8.566  20.286  0.00  0.00    +0.000 A 
ATOM     11  C   UNL     1       1.180   9.758  19.569  0.00  0.00    +0.000 A 
ATOM     12  C   UNL     1       0.822  10.987  20.149  0.00  0.00    +0.000 A 
ATOM     13  N   UNL     1       0.329  10.982  21.417  0.00  0.00    +0.000 NA
BRANCH  11  14
ATOM     14  C   UNL     1       1.794   9.623  18.285  0.00  0.00    +0.000 C 
ATOM     15  N   UNL     1       2.309   9.476  17.254  0.00  0.00    +0.000 NA
ENDBRANCH  11  14
ENDBRANCH   1  12
BRANCH   5  16
ATOM     16  C   UNL     1      -1.243  14.526  20.144  0.00  0.00    +0.000 A 
ATOM     17  C   UNL     1      -1.990  13.508  20.710  0.00  0.00    +0.000 A 
ATOM     18  C   UNL     1      -2.846  13.812  21.759  0.00  0.00    +0.000 A 
ATOM     19  N   UNL     1      -2.952  15.068  22.221  0.00  0.00    +0.000 NA
ATOM     20  C   UNL     1      -2.179  16.003  21.635  0.00  0.00    +0.000 A 
ATOM     21  C   UNL     1      -2.254  17.414  22.126  0.00  0.00    +0.000 C 
ATOM     22  N   UNL     1      -1.344  15.784  20.604  0.00  0.00    +0.000 NA
BRANCH  18  23
ATOM     23  N   UNL     1      -3.660  12.808  22.263  0.00  0.00    +0.000 N 
ATOM     24  C   UNL     1      -5.089  12.805  21.933  0.00  0.00    +0.000 C 
ATOM     25  C   UNL     1      -5.970  13.133  23.144  0.00  0.00    +0.000 C 
ATOM     26  O   UNL     1      -5.631  12.327  24.285  0.00  0.00    +0.000 OA
ATOM     27  C   UNL     1      -4.267  12.572  24.658  0.00  0.00    +0.000 C 
ATOM     28  C   UNL     1      -3.295  12.172  23.536  0.00  0.00    +0.000 C 
ENDBRANCH  18  23
ENDBRANCH   5  16
TORSDOF 4
ENDMDL
