MODEL 1
REMARK VINA RESULT:      -7.4      0.000      0.000
REMARK  Name = 
REMARK  7 active torsions:
REMARK  status: ('A' for Active; 'I' for Inactive)
REMARK    1  A    between atoms: C_1  and  C_2
REMARK    2  A    between atoms: C_2  and  C_12
REMARK    3  A    between atoms: C_3  and  C_4
REMARK    4  A    between atoms: C_15  and  C_16
REMARK    5  A    between atoms: C_16  and  C_17
REMARK    6  A    between atoms: C_17  and  C_18
REMARK    7  A    between atoms: C_17  and  C_19
REMARK                            x       y       z     vdW  Elec       q    Type
REMARK                         _______ _______ _______ _____ _____    ______ ____
ROOT
ATOM      1  C   UNL     1       2.150   7.013  19.774  0.00  0.00    +0.000 C 
ATOM      2  C   UNL     1       2.627   7.564  18.451  0.00  0.00    +0.000 C 
ATOM      3  C   UNL     1       2.273   8.741  17.890  0.00  0.00    +0.000 C 
ENDROOT
BRANCH   3   4
ATOM      4  C   UNL     1       1.188   9.590  18.471  0.00  0.00    +0.000 C 
ATOM      5  O   UNL     1       1.324  10.105  19.572  0.00  0.00    +0.000 OA
ATOM      6  N   UNL     1       0.005   9.585  17.766  0.00  0.00    +0.000 N 
ATOM      7  C   UNL     1      -1.032  10.410  18.082  0.00  0.00    +0.000 C 
ATOM      8  N   UNL     1      -0.965  11.482  18.791  0.00  0.00    +0.000 NA
ATOM      9  C   UNL     1      -2.311  12.019  19.027  0.00  0.00    +0.000 C 
ATOM     10  C   UNL     1      -3.268  11.532  17.949  0.00  0.00    +0.000 C 
ATOM     11  S   UNL     1      -2.567   9.949  17.423  0.00  0.00    +0.000 S 
ATOM     12  H   UNL     1      -0.160   8.901  17.050  0.00  0.00    +0.000 HD
ENDBRANCH   3   4
BRANCH   2  13
ATOM     13  C   UNL     1       3.500   6.617  17.725  0.00  0.00    +0.000 A 
ATOM     14  C   UNL     1       3.289   5.238  17.749  0.00  0.00    +0.000 A 
ATOM     15  C   UNL     1       4.067   4.386  16.945  0.00  0.00    +0.000 A 
ATOM     16  C   UNL     1       5.060   4.903  16.099  0.00  0.00    +0.000 A 
ATOM     17  C   UNL     1       5.276   6.287  16.093  0.00  0.00    +0.000 A 
ATOM     18  C   UNL     1       4.506   7.134  16.899  0.00  0.00    +0.000 A 
BRANCH  16  19
ATOM     19  C   UNL     1       5.919   4.004  15.233  0.00  0.00    +0.000 C 
BRANCH  19  20
ATOM     20  C   UNL     1       6.181   4.497  13.793  0.00  0.00    +0.000 C 
ATOM     21  C   UNL     1       7.609   5.015  13.600  0.00  0.00    +0.000 C 
ATOM     22  C   UNL     1       5.924   3.362  12.794  0.00  0.00    +0.000 C 
ENDBRANCH  19  20
ENDBRANCH  16  19
ENDBRANCH   2  13
TORSDOF 4
ENDMDL
MODEL 2
REMARK VINA RESULT:      -7.3      2.450      3.108
REMARK  Name = 
REMARK  7 active torsions:
REMARK  status: ('A' for Active; 'I' for Inactive)
REMARK    1  A    between atoms: C_1  and  C_2
REMARK    2  A    between atoms: C_2  and  C_12
REMARK    3  A    between atoms: C_3  and  C_4
REMARK    4  A    between atoms: C_15  and  C_16
REMARK    5  A    between atoms: C_16  and  C_17
REMARK    6  A    between atoms: C_17  and  C_18
REMARK    7  A    between atoms: C_17  and  C_19
REMARK                            x       y       z     vdW  Elec       q    Type
REMARK                         _______ _______ _______ _____ _____    ______ ____
ROOT
ATOM      1  C   UNL     1       4.623   5.076  19.384  0.00  0.00    +0.000 C 
ATOM      2  C   UNL     1       4.198   5.826  18.144  0.00  0.00    +0.000 C 
ATOM      3  C   UNL     1       3.253   6.788  18.064  0.00  0.00    +0.000 C 
ENDROOT
BRANCH   3   4
ATOM      4  C   UNL     1       2.367   7.114  19.224  0.00  0.00    +0.000 C 
ATOM      5  O   UNL     1       1.999   6.235  19.991  0.00  0.00    +0.000 OA
ATOM      6  N   UNL     1       1.878   8.401  19.238  0.00  0.00    +0.000 N 
ATOM      7  C   UNL     1       1.173   8.897  20.292  0.00  0.00    +0.000 C 
ATOM      8  N   UNL     1       1.154   8.422  21.489  0.00  0.00    +0.000 NA
ATOM      9  C   UNL     1       0.170   9.145  22.305  0.00  0.00    +0.000 C 
ATOM     10  C   UNL     1      -0.086  10.526  21.721  0.00  0.00    +0.000 C 
ATOM     11  S   UNL     1       0.247  10.323  19.954  0.00  0.00    +0.000 S 
ATOM     12  H   UNL     1       1.950   8.984  18.424  0.00  0.00    +0.000 HD
ENDBRANCH   3   4
BRANCH   2  13
ATOM     13  C   UNL     1       4.874   5.332  16.925  0.00  0.00    +0.000 A 
ATOM     14  C   UNL     1       5.161   3.982  16.724  0.00  0.00    +0.000 A 
ATOM     15  C   UNL     1       5.692   3.543  15.498  0.00  0.00    +0.000 A 
ATOM     16  C   UNL     1       5.934   4.447  14.453  0.00  0.00    +0.000 A 
ATOM     17  C   UNL     1       5.658   5.803  14.669  0.00  0.00    +0.000 A 
ATOM     18  C   UNL     1       5.137   6.241  15.892  0.00  0.00    +0.000 A 
BRANCH  16  19
ATOM     19  C   UNL     1       6.517   3.999  13.128  0.00  0.00    +0.000 C 
BRANCH  19  20
ATOM     20  C   UNL     1       5.746   2.883  12.390  0.00  0.00    +0.000 C 
ATOM     21  C   UNL     1       4.521   3.412  11.640  0.00  0.00    +0.000 C 
ATOM     22  C   UNL     1       6.674   2.176  11.393  0.00  0.00    +0.000 C 
ENDBRANCH  19  20
ENDBRANCH  16  19
ENDBRANCH   2  13
TORSDOF 4
ENDMDL
MODEL 3
REMARK VINA RESULT:      -7.2      4.069      9.380
REMARK  Name = 
REMARK  7 active torsions:
REMARK  status: ('A' for Active; 'I' for Inactive)
REMARK    1  A    between atoms: C_1  and  C_2
REMARK    2  A    between atoms: C_2  and  C_12
REMARK    3  A    between atoms: C_3  and  C_4
REMARK    4  A    between atoms: C_15  and  C_16
REMARK    5  A    between atoms: C_16  and  C_17
REMARK    6  A    between atoms: C_17  and  C_18
REMARK    7  A    between atoms: C_17  and  C_19
REMARK                            x       y       z     vdW  Elec       q    Type
REMARK                         _______ _______ _______ _____ _____    ______ ____
ROOT
ATOM      1  C   UNL     1       2.069   8.745  17.950  0.00  0.00    +0.000 C 
ATOM      2  C   UNL     1       1.964   8.007  19.264  0.00  0.00    +0.000 C 
ATOM      3  C   UNL     1       2.478   6.791  19.552  0.00  0.00    +0.000 C 
ENDROOT
BRANCH   3   4
ATOM      4  C   UNL     1       3.094   5.931  18.495  0.00  0.00    +0.000 C 
ATOM      5  O   UNL     1       2.397   5.202  17.803  0.00  0.00    +0.000 OA
ATOM      6  N   UNL     1       4.470   5.900  18.501  0.00  0.00    +0.000 N 
ATOM      7  C   UNL     1       5.186   5.279  17.522  0.00  0.00    +0.000 C 
ATOM      8  N   UNL     1       4.759   4.959  16.351  0.00  0.00    +0.000 NA
ATOM      9  C   UNL     1       5.777   4.181  15.635  0.00  0.00    +0.000 C 
ATOM     10  C   UNL     1       7.158   4.471  16.205  0.00  0.00    +0.000 C 
ATOM     11  S   UNL     1       6.835   4.928  17.925  0.00  0.00    +0.000 S 
ATOM     12  H   UNL     1       4.986   6.259  19.283  0.00  0.00    +0.000 HD
ENDBRANCH   3   4
BRANCH   2  13
ATOM     13  C   UNL     1       1.125   8.722  20.249  0.00  0.00    +0.000 A 
ATOM     14  C   UNL     1       1.132   8.404  21.607  0.00  0.00    +0.000 A 
ATOM     15  C   UNL     1       0.413   9.191  22.525  0.00  0.00    +0.000 A 
ATOM     16  C   UNL     1      -0.315  10.312  22.098  0.00  0.00    +0.000 A 
ATOM     17  C   UNL     1      -0.330  10.614  20.731  0.00  0.00    +0.000 A 
ATOM     18  C   UNL     1       0.380   9.827  19.816  0.00  0.00    +0.000 A 
BRANCH  16  19
ATOM     19  C   UNL     1      -1.107  11.167  23.067  0.00  0.00    +0.000 C 
BRANCH  19  20
ATOM     20  C   UNL     1      -1.794  12.412  22.466  0.00  0.00    +0.000 C 
ATOM     21  C   UNL     1      -3.256  12.544  22.900  0.00  0.00    +0.000 C 
ATOM     22  C   UNL     1      -1.036  13.680  22.879  0.00  0.00    +0.000 C 
ENDBRANCH  19  20
ENDBRANCH  16  19
ENDBRANCH   2  13
TORSDOF 4
ENDMDL
MODEL 4
REMARK VINA RESULT:      -7.1      4.037      9.421
REMARK  Name = 
REMARK  7 active torsions:
REMARK  status: ('A' for Active; 'I' for Inactive)
REMARK    1  A    between atoms: C_1  and  C_2
REMARK    2  A    between atoms: C_2  and  C_12
REMARK    3  A    between atoms: C_3  and  C_4
REMARK    4  A    between atoms: C_15  and  C_16
REMARK    5  A    between atoms: C_16  and  C_17
REMARK    6  A    between atoms: C_17  and  C_18
REMARK    7  A    between atoms: C_17  and  C_19
REMARK                            x       y       z     vdW  Elec       q    Type
REMARK                         _______ _______ _______ _____ _____    ______ ____
ROOT
ATOM      1  C   UNL     1       1.993   8.795  17.730  0.00  0.00    +0.000 C 
ATOM      2  C   UNL     1       2.012   8.184  19.110  0.00  0.00    +0.000 C 
ATOM      3  C   UNL     1       2.570   7.006  19.466  0.00  0.00    +0.000 C 
ENDROOT
BRANCH   3   4
ATOM      4  C   UNL     1       3.110   6.056  18.445  0.00  0.00    +0.000 C 
ATOM      5  O   UNL     1       2.362   5.297  17.844  0.00  0.00    +0.000 OA
ATOM      6  N   UNL     1       4.484   5.989  18.383  0.00  0.00    +0.000 N 
ATOM      7  C   UNL     1       5.133   5.280  17.418  0.00  0.00    +0.000 C 
ATOM      8  N   UNL     1       4.638   4.888  16.296  0.00  0.00    +0.000 NA
ATOM      9  C   UNL     1       5.600   4.034  15.588  0.00  0.00    +0.000 C 
ATOM     10  C   UNL     1       7.014   4.328  16.065  0.00  0.00    +0.000 C 
ATOM     11  S   UNL     1       6.792   4.916  17.761  0.00  0.00    +0.000 S 
ATOM     12  H   UNL     1       5.048   6.390  19.110  0.00  0.00    +0.000 HD
ENDBRANCH   3   4
BRANCH   2  13
ATOM     13  C   UNL     1       1.247   8.980  20.093  0.00  0.00    +0.000 A 
ATOM     14  C   UNL     1       0.645  10.195  19.764  0.00  0.00    +0.000 A 
ATOM     15  C   UNL     1      -0.176  10.856  20.695  0.00  0.00    +0.000 A 
ATOM     16  C   UNL     1      -0.414  10.307  21.963  0.00  0.00    +0.000 A 
ATOM     17  C   UNL     1       0.207   9.095  22.291  0.00  0.00    +0.000 A 
ATOM     18  C   UNL     1       1.031   8.441  21.368  0.00  0.00    +0.000 A 
BRANCH  16  19
ATOM     19  C   UNL     1      -1.285  11.007  22.987  0.00  0.00    +0.000 C 
BRANCH  19  20
ATOM     20  C   UNL     1      -1.895  12.356  22.549  0.00  0.00    +0.000 C 
ATOM     21  C   UNL     1      -3.394  12.448  22.849  0.00  0.00    +0.000 C 
ATOM     22  C   UNL     1      -1.175  13.512  23.256  0.00  0.00    +0.000 C 
ENDBRANCH  19  20
ENDBRANCH  16  19
ENDBRANCH   2  13
TORSDOF 4
ENDMDL
MODEL 5
REMARK VINA RESULT:      -7.0      0.454      1.354
REMARK  Name = 
REMARK  7 active torsions:
REMARK  status: ('A' for Active; 'I' for Inactive)
REMARK    1  A    between atoms: C_1  and  C_2
REMARK    2  A    between atoms: C_2  and  C_12
REMARK    3  A    between atoms: C_3  and  C_4
REMARK    4  A    between atoms: C_15  and  C_16
REMARK    5  A    between atoms: C_16  and  C_17
REMARK    6  A    between atoms: C_17  and  C_18
REMARK    7  A    between atoms: C_17  and  C_19
REMARK                            x       y       z     vdW  Elec       q    Type
REMARK                         _______ _______ _______ _____ _____    ______ ____
ROOT
ATOM      1  C   UNL     1       2.126   7.052  19.677  0.00  0.00    +0.000 C 
ATOM      2  C   UNL     1       2.619   7.650  18.380  0.00  0.00    +0.000 C 
ATOM      3  C   UNL     1       2.247   8.832  17.841  0.00  0.00    +0.000 C 
ENDROOT
BRANCH   3   4
ATOM      4  C   UNL     1       1.128   9.638  18.418  0.00  0.00    +0.000 C 
ATOM      5  O   UNL     1       1.232  10.141  19.528  0.00  0.00    +0.000 OA
ATOM      6  N   UNL     1      -0.044   9.607  17.695  0.00  0.00    +0.000 N 
ATOM      7  C   UNL     1      -1.110  10.394  18.008  0.00  0.00    +0.000 C 
ATOM      8  N   UNL     1      -1.087  11.458  18.733  0.00  0.00    +0.000 NA
ATOM      9  C   UNL     1      -2.453  11.948  18.957  0.00  0.00    +0.000 C 
ATOM     10  C   UNL     1      -3.378  11.448  17.858  0.00  0.00    +0.000 C 
ATOM     11  S   UNL     1      -2.621   9.895  17.320  0.00  0.00    +0.000 S 
ATOM     12  H   UNL     1      -0.177   8.929  16.967  0.00  0.00    +0.000 HD
ENDBRANCH   3   4
BRANCH   2  13
ATOM     13  C   UNL     1       3.532   6.744  17.651  0.00  0.00    +0.000 A 
ATOM     14  C   UNL     1       4.678   7.203  17.002  0.00  0.00    +0.000 A 
ATOM     15  C   UNL     1       5.581   6.291  16.427  0.00  0.00    +0.000 A 
ATOM     16  C   UNL     1       5.356   4.909  16.502  0.00  0.00    +0.000 A 
ATOM     17  C   UNL     1       4.194   4.458  17.142  0.00  0.00    +0.000 A 
ATOM     18  C   UNL     1       3.291   5.365  17.707  0.00  0.00    +0.000 A 
BRANCH  16  19
ATOM     19  C   UNL     1       6.309   3.908  15.879  0.00  0.00    +0.000 C 
BRANCH  19  20
ATOM     20  C   UNL     1       6.393   3.921  14.338  0.00  0.00    +0.000 C 
ATOM     21  C   UNL     1       5.029   4.132  13.676  0.00  0.00    +0.000 C 
ATOM     22  C   UNL     1       7.348   5.028  13.874  0.00  0.00    +0.000 C 
ENDBRANCH  19  20
ENDBRANCH  16  19
ENDBRANCH   2  13
TORSDOF 4
ENDMDL
MODEL 6
REMARK VINA RESULT:      -7.0      1.802      1.965
REMARK  Name = 
REMARK  7 active torsions:
REMARK  status: ('A' for Active; 'I' for Inactive)
REMARK    1  A    between atoms: C_1  and  C_2
REMARK    2  A    between atoms: C_2  and  C_12
REMARK    3  A    between atoms: C_3  and  C_4
REMARK    4  A    between atoms: C_15  and  C_16
REMARK    5  A    between atoms: C_16  and  C_17
REMARK    6  A    between atoms: C_17  and  C_18
REMARK    7  A    between atoms: C_17  and  C_19
REMARK                            x       y       z     vdW  Elec       q    Type
REMARK                         _______ _______ _______ _____ _____    ______ ____
ROOT
ATOM      1  C   UNL     1       2.210   7.003  19.671  0.00  0.00    +0.000 C 
ATOM      2  C   UNL     1       2.662   7.536  18.332  0.00  0.00    +0.000 C 
ATOM      3  C   UNL     1       2.270   8.688  17.745  0.00  0.00    +0.000 C 
ENDROOT
BRANCH   3   4
ATOM      4  C   UNL     1       1.164   9.519  18.314  0.00  0.00    +0.000 C 
ATOM      5  O   UNL     1       0.026   9.422  17.878  0.00  0.00    +0.000 OA
ATOM      6  N   UNL     1       1.566  10.491  19.203  0.00  0.00    +0.000 N 
ATOM      7  C   UNL     1       0.675  11.238  19.913  0.00  0.00    +0.000 C 
ATOM      8  N   UNL     1      -0.561  10.951  20.127  0.00  0.00    +0.000 NA
ATOM      9  C   UNL     1      -1.229  12.065  20.812  0.00  0.00    +0.000 C 
ATOM     10  C   UNL     1      -0.207  12.919  21.547  0.00  0.00    +0.000 C 
ATOM     11  S   UNL     1       1.317  12.695  20.598  0.00  0.00    +0.000 S 
ATOM     12  H   UNL     1       2.535  10.740  19.284  0.00  0.00    +0.000 HD
ENDBRANCH   3   4
BRANCH   2  13
ATOM     13  C   UNL     1       3.557   6.597  17.622  0.00  0.00    +0.000 A 
ATOM     14  C   UNL     1       3.375   5.214  17.664  0.00  0.00    +0.000 A 
ATOM     15  C   UNL     1       4.174   4.369  16.875  0.00  0.00    +0.000 A 
ATOM     16  C   UNL     1       5.159   4.894  16.026  0.00  0.00    +0.000 A 
ATOM     17  C   UNL     1       5.347   6.282  16.002  0.00  0.00    +0.000 A 
ATOM     18  C   UNL     1       4.556   7.124  16.794  0.00  0.00    +0.000 A 
BRANCH  16  19
ATOM     19  C   UNL     1       6.041   4.001  15.175  0.00  0.00    +0.000 C 
BRANCH  19  20
ATOM     20  C   UNL     1       6.234   4.439  13.707  0.00  0.00    +0.000 C 
ATOM     21  C   UNL     1       7.642   4.976  13.435  0.00  0.00    +0.000 C 
ATOM     22  C   UNL     1       5.961   3.259  12.767  0.00  0.00    +0.000 C 
ENDBRANCH  19  20
ENDBRANCH  16  19
ENDBRANCH   2  13
TORSDOF 4
ENDMDL
MODEL 7
REMARK VINA RESULT:      -6.8      2.384      3.067
REMARK  Name = 
REMARK  7 active torsions:
REMARK  status: ('A' for Active; 'I' for Inactive)
REMARK    1  A    between atoms: C_1  and  C_2
REMARK    2  A    between atoms: C_2  and  C_12
REMARK    3  A    between atoms: C_3  and  C_4
REMARK    4  A    between atoms: C_15  and  C_16
REMARK    5  A    between atoms: C_16  and  C_17
REMARK    6  A    between atoms: C_17  and  C_18
REMARK    7  A    between atoms: C_17  and  C_19
REMARK                            x       y       z     vdW  Elec       q    Type
REMARK                         _______ _______ _______ _____ _____    ______ ____
ROOT
ATOM      1  C   UNL     1       3.835   4.902  19.418  0.00  0.00    +0.000 C 
ATOM      2  C   UNL     1       3.708   5.969  18.357  0.00  0.00    +0.000 C 
ATOM      3  C   UNL     1       3.020   7.128  18.453  0.00  0.00    +0.000 C 
ENDROOT
BRANCH   3   4
ATOM      4  C   UNL     1       2.130   7.415  19.620  0.00  0.00    +0.000 C 
ATOM      5  O   UNL     1       1.816   6.524  20.397  0.00  0.00    +0.000 OA
ATOM      6  N   UNL     1       1.576   8.676  19.632  0.00  0.00    +0.000 N 
ATOM      7  C   UNL     1       0.857   9.143  20.691  0.00  0.00    +0.000 C 
ATOM      8  N   UNL     1       0.875   8.675  21.890  0.00  0.00    +0.000 NA
ATOM      9  C   UNL     1      -0.136   9.352  22.713  0.00  0.00    +0.000 C 
ATOM     10  C   UNL     1      -0.469  10.714  22.123  0.00  0.00    +0.000 C 
ATOM     11  S   UNL     1      -0.144  10.516  20.354  0.00  0.00    +0.000 S 
ATOM     12  H   UNL     1       1.609   9.256  18.814  0.00  0.00    +0.000 HD
ENDBRANCH   3   4
BRANCH   2  13
ATOM     13  C   UNL     1       4.361   5.586  17.086  0.00  0.00    +0.000 A 
ATOM     14  C   UNL     1       4.858   6.529  16.187  0.00  0.00    +0.000 A 
ATOM     15  C   UNL     1       5.580   6.117  15.053  0.00  0.00    +0.000 A 
ATOM     16  C   UNL     1       5.824   4.758  14.808  0.00  0.00    +0.000 A 
ATOM     17  C   UNL     1       5.307   3.817  15.708  0.00  0.00    +0.000 A 
ATOM     18  C   UNL     1       4.581   4.226  16.833  0.00  0.00    +0.000 A 
BRANCH  16  19
ATOM     19  C   UNL     1       6.589   4.290  13.586  0.00  0.00    +0.000 C 
BRANCH  19  20
ATOM     20  C   UNL     1       5.907   3.195  12.737  0.00  0.00    +0.000 C 
ATOM     21  C   UNL     1       4.632   3.693  12.052  0.00  0.00    +0.000 C 
ATOM     22  C   UNL     1       6.878   2.679  11.668  0.00  0.00    +0.000 C 
ENDBRANCH  19  20
ENDBRANCH  16  19
ENDBRANCH   2  13
TORSDOF 4
ENDMDL
MODEL 8
REMARK VINA RESULT:      -6.8      2.579      3.048
REMARK  Name = 
REMARK  7 active torsions:
REMARK  status: ('A' for Active; 'I' for Inactive)
REMARK    1  A    between atoms: C_1  and  C_2
REMARK    2  A    between atoms: C_2  and  C_12
REMARK    3  A    between atoms: C_3  and  C_4
REMARK    4  A    between atoms: C_15  and  C_16
REMARK    5  A    between atoms: C_16  and  C_17
REMARK    6  A    between atoms: C_17  and  C_18
REMARK    7  A    between atoms: C_17  and  C_19
REMARK                            x       y       z     vdW  Elec       q    Type
REMARK                         _______ _______ _______ _____ _____    ______ ____
ROOT
ATOM      1  C   UNL     1       1.558   4.962  17.947  0.00  0.00    +0.000 C 
ATOM      2  C   UNL     1       2.888   5.605  18.261  0.00  0.00    +0.000 C 
ATOM      3  C   UNL     1       3.172   6.406  19.311  0.00  0.00    +0.000 C 
ENDROOT
BRANCH   3   4
ATOM      4  C   UNL     1       2.101   6.899  20.231  0.00  0.00    +0.000 C 
ATOM      5  O   UNL     1       1.512   6.124  20.971  0.00  0.00    +0.000 OA
ATOM      6  N   UNL     1       1.731   8.212  20.042  0.00  0.00    +0.000 N 
ATOM      7  C   UNL     1       0.873   8.853  20.884  0.00  0.00    +0.000 C 
ATOM      8  N   UNL     1       0.572   8.496  22.083  0.00  0.00    +0.000 NA
ATOM      9  C   UNL     1      -0.490   9.357  22.617  0.00  0.00    +0.000 C 
ATOM     10  C   UNL     1      -0.504  10.691  21.885  0.00  0.00    +0.000 C 
ATOM     11  S   UNL     1       0.160  10.299  20.248  0.00  0.00    +0.000 S 
ATOM     12  H   UNL     1       2.016   8.709  19.217  0.00  0.00    +0.000 HD
ENDBRANCH   3   4
BRANCH   2  13
ATOM     13  C   UNL     1       3.901   5.350  17.214  0.00  0.00    +0.000 A 
ATOM     14  C   UNL     1       4.661   6.372  16.644  0.00  0.00    +0.000 A 
ATOM     15  C   UNL     1       5.697   6.068  15.744  0.00  0.00    +0.000 A 
ATOM     16  C   UNL     1       5.995   4.739  15.409  0.00  0.00    +0.000 A 
ATOM     17  C   UNL     1       5.216   3.720  15.973  0.00  0.00    +0.000 A 
ATOM     18  C   UNL     1       4.179   4.023  16.863  0.00  0.00    +0.000 A 
BRANCH  16  19
ATOM     19  C   UNL     1       7.099   4.389  14.431  0.00  0.00    +0.000 C 
BRANCH  19  20
ATOM     20  C   UNL     1       6.800   4.669  12.942  0.00  0.00    +0.000 C 
ATOM     21  C   UNL     1       7.940   5.417  12.245  0.00  0.00    +0.000 C 
ATOM     22  C   UNL     1       6.543   3.351  12.201  0.00  0.00    +0.000 C 
ENDBRANCH  19  20
ENDBRANCH  16  19
ENDBRANCH   2  13
TORSDOF 4
ENDMDL
MODEL 9
REMARK VINA RESULT:      -6.8      1.921      2.325
REMARK  Name = 
REMARK  7 active torsions:
REMARK  status: ('A' for Active; 'I' for Inactive)
REMARK    1  A    between atoms: C_1  and  C_2
REMARK    2  A    between atoms: C_2  and  C_12
REMARK    3  A    between atoms: C_3  and  C_4
REMARK    4  A    between atoms: C_15  and  C_16
REMARK    5  A    between atoms: C_16  and  C_17
REMARK    6  A    between atoms: C_17  and  C_18
REMARK    7  A    between atoms: C_17  and  C_19
REMARK                            x       y       z     vdW  Elec       q    Type
REMARK                         _______ _______ _______ _____ _____    ______ ____
ROOT
ATOM      1  C   UNL     1       1.557   8.424  20.383  0.00  0.00    +0.000 C 
ATOM      2  C   UNL     1       1.724   8.475  18.883  0.00  0.00    +0.000 C 
ATOM      3  C   UNL     1       1.158   9.363  18.036  0.00  0.00    +0.000 C 
ENDROOT
BRANCH   3   4
ATOM      4  C   UNL     1       0.123  10.338  18.500  0.00  0.00    +0.000 C 
ATOM      5  O   UNL     1      -1.053  10.009  18.571  0.00  0.00    +0.000 OA
ATOM      6  N   UNL     1       0.570  11.631  18.654  0.00  0.00    +0.000 N 
ATOM      7  C   UNL     1      -0.208  12.607  19.200  0.00  0.00    +0.000 C 
ATOM      8  N   UNL     1      -1.256  12.430  19.926  0.00  0.00    +0.000 NA
ATOM      9  C   UNL     1      -1.900  13.719  20.209  0.00  0.00    +0.000 C 
ATOM     10  C   UNL     1      -0.891  14.851  20.080  0.00  0.00    +0.000 C 
ATOM     11  S   UNL     1       0.316  14.229  18.884  0.00  0.00    +0.000 S 
ATOM     12  H   UNL     1       1.457  11.913  18.279  0.00  0.00    +0.000 HD
ENDBRANCH   3   4
BRANCH   2  13
ATOM     13  C   UNL     1       2.534   7.352  18.364  0.00  0.00    +0.000 A 
ATOM     14  C   UNL     1       2.139   6.021  18.501  0.00  0.00    +0.000 A 
ATOM     15  C   UNL     1       2.878   4.995  17.885  0.00  0.00    +0.000 A 
ATOM     16  C   UNL     1       4.014   5.287  17.115  0.00  0.00    +0.000 A 
ATOM     17  C   UNL     1       4.412   6.625  16.997  0.00  0.00    +0.000 A 
ATOM     18  C   UNL     1       3.682   7.645  17.617  0.00  0.00    +0.000 A 
BRANCH  16  19
ATOM     19  C   UNL     1       4.832   4.197  16.452  0.00  0.00    +0.000 C 
BRANCH  19  20
ATOM     20  C   UNL     1       6.082   4.665  15.675  0.00  0.00    +0.000 C 
ATOM     21  C   UNL     1       7.371   4.506  16.484  0.00  0.00    +0.000 C 
ATOM     22  C   UNL     1       6.214   3.873  14.368  0.00  0.00    +0.000 C 
ENDBRANCH  19  20
ENDBRANCH  16  19
ENDBRANCH   2  13
TORSDOF 4
ENDMDL
