MODEL 1
REMARK VINA RESULT:      -9.0      0.000      0.000
REMARK  Name = 
REMARK  11 active torsions:
REMARK  status: ('A' for Active; 'I' for Inactive)
REMARK    1  A    between atoms: C_1  and  C_2
REMARK    2  A    between atoms: C_7  and  C_8
REMARK    3  A    between atoms: C_8  and  N_9
REMARK    4  A    between atoms: N_9  and  C_10
REMARK    5  A    between atoms: N_9  and  C_22
REMARK    6  A    between atoms: C_10  and  C_11
REMARK    7  A    between atoms: N_15  and  C_16
REMARK    8  A    between atoms: C_16  and  C_17
REMARK    9  A    between atoms: C_22  and  C_23
REMARK   10  A    between atoms: C_28  and  O_29
REMARK   11  A    between atoms: C_32  and  C_33
REMARK                            x       y       z     vdW  Elec       q    Type
REMARK                         _______ _______ _______ _____ _____    ______ ____
ROOT
ATOM      1  N   UNL     1       2.935   5.674  17.915  0.00  0.00    +0.000 NA
ENDROOT
BRANCH   1   2
ATOM      2  C   UNL     1       3.306   6.585  19.013  0.00  0.00    +0.000 C 
BRANCH   2   9
ATOM      3  C   UNL     1      -1.095  12.335  22.258  0.00  0.00    +0.000 C 
ATOM      4  C   UNL     1      -0.431  11.078  21.765  0.00  0.00    +0.000 A 
ATOM      5  C   UNL     1      -0.279  10.003  22.649  0.00  0.00    +0.000 A 
ATOM      6  C   UNL     1       0.360   8.844  22.232  0.00  0.00    +0.000 A 
ATOM      7  C   UNL     1       0.858   8.742  20.927  0.00  0.00    +0.000 A 
ATOM      8  C   UNL     1       1.627   7.640  20.549  0.00  0.00    +0.000 A 
ATOM      9  C   UNL     1       2.251   7.621  19.303  0.00  0.00    +0.000 A 
ATOM     10  C   UNL     1       1.910   8.625  18.410  0.00  0.00    +0.000 A 
ATOM     11  N   UNL     1       1.148   9.680  18.739  0.00  0.00    +0.000 NA
ATOM     12  C   UNL     1       0.679   9.790  19.997  0.00  0.00    +0.000 A 
ATOM     13  C   UNL     1       0.059  10.968  20.440  0.00  0.00    +0.000 A 
ATOM     14  C   UNL     1      -0.058  12.143  19.497  0.00  0.00    +0.000 C 
BRANCH  10  15
ATOM     15  O   UNL     1       2.396   8.666  17.137  0.00  0.00    +0.000 OA
ATOM     16  H   UNL     1       2.121   7.850  16.680  0.00  0.00    +0.000 HD
ENDBRANCH  10  15
ENDBRANCH   2   9
ENDBRANCH   1   2
BRANCH   1  17
ATOM     17  C   UNL     1       4.077   5.192  17.077  0.00  0.00    +0.000 C 
BRANCH  17  18
ATOM     18  C   UNL     1       5.292   6.067  17.009  0.00  0.00    +0.000 A 
ATOM     19  N   UNL     1       5.360   7.335  17.377  0.00  0.00    +0.000 NA
ATOM     20  N   UNL     1       6.648   7.743  17.166  0.00  0.00    +0.000 NA
ATOM     21  N   UNL     1       7.386   6.750  16.698  0.00  0.00    +0.000 NA
ATOM     22  N   UNL     1       6.563   5.683  16.644  0.00  0.00    +0.000 N 
BRANCH  22  23
ATOM     23  C   UNL     1       7.048   4.455  16.052  0.00  0.00    +0.000 C 
BRANCH  23  24
ATOM     24  C   UNL     1       6.840   4.383  14.590  0.00  0.00    +0.000 A 
ATOM     25  C   UNL     1       6.024   3.631  13.770  0.00  0.00    +0.000 A 
ATOM     26  C   UNL     1       6.429   3.905  12.442  0.00  0.00    +0.000 A 
ATOM     27  C   UNL     1       7.450   4.822  12.533  0.00  0.00    +0.000 A 
ATOM     28  O   UNL     1       7.699   5.125  13.831  0.00  0.00    +0.000 OA
ENDBRANCH  23  24
ENDBRANCH  22  23
ENDBRANCH  17  18
ENDBRANCH   1  17
BRANCH   1  29
ATOM     29  C   UNL     1       2.114   4.535  18.404  0.00  0.00    +0.000 C 
BRANCH  29  30
ATOM     30  C   UNL     1       2.269   4.181  19.897  0.00  0.00    +0.000 C 
ATOM     31  C   UNL     1       3.056   2.898  20.118  0.00  0.00    +0.000 C 
ATOM     32  C   UNL     1       2.583   2.496  21.492  0.00  0.00    +0.000 C 
ATOM     33  C   UNL     1       1.117   2.876  21.444  0.00  0.00    +0.000 C 
ATOM     34  O   UNL     1       0.994   3.978  20.530  0.00  0.00    +0.000 OA
ENDBRANCH  29  30
ENDBRANCH   1  29
TORSDOF 9
ENDMDL
MODEL 2
REMARK VINA RESULT:      -9.0      2.001      2.880
REMARK  Name = 
REMARK  11 active torsions:
REMARK  status: ('A' for Active; 'I' for Inactive)
REMARK    1  A    between atoms: C_1  and  C_2
REMARK    2  A    between atoms: C_7  and  C_8
REMARK    3  A    between atoms: C_8  and  N_9
REMARK    4  A    between atoms: N_9  and  C_10
REMARK    5  A    between atoms: N_9  and  C_22
REMARK    6  A    between atoms: C_10  and  C_11
REMARK    7  A    between atoms: N_15  and  C_16
REMARK    8  A    between atoms: C_16  and  C_17
REMARK    9  A    between atoms: C_22  and  C_23
REMARK   10  A    between atoms: C_28  and  O_29
REMARK   11  A    between atoms: C_32  and  C_33
REMARK                            x       y       z     vdW  Elec       q    Type
REMARK                         _______ _______ _______ _____ _____    ______ ____
ROOT
ATOM      1  N   UNL     1       3.502   4.684  17.589  0.00  0.00    +0.000 NA
ENDROOT
BRANCH   1   2
ATOM      2  C   UNL     1       3.896   5.640  18.640  0.00  0.00    +0.000 C 
BRANCH   2   9
ATOM      3  C   UNL     1      -0.325  11.753  21.428  0.00  0.00    +0.000 C 
ATOM      4  C   UNL     1       0.282  10.442  21.007  0.00  0.00    +0.000 A 
ATOM      5  C   UNL     1       0.266   9.369  21.905  0.00  0.00    +0.000 A 
ATOM      6  C   UNL     1       0.848   8.159  21.556  0.00  0.00    +0.000 A 
ATOM      7  C   UNL     1       1.456   8.004  20.305  0.00  0.00    +0.000 A 
ATOM      8  C   UNL     1       2.169   6.840  20.006  0.00  0.00    +0.000 A 
ATOM      9  C   UNL     1       2.904   6.758  18.824  0.00  0.00    +0.000 A 
ATOM     10  C   UNL     1       2.727   7.775  17.899  0.00  0.00    +0.000 A 
ATOM     11  N   UNL     1       2.023   8.890  18.149  0.00  0.00    +0.000 NA
ATOM     12  C   UNL     1       1.448   9.050  19.357  0.00  0.00    +0.000 A 
ATOM     13  C   UNL     1       0.883  10.279  19.734  0.00  0.00    +0.000 A 
ATOM     14  C   UNL     1       0.947  11.448  18.779  0.00  0.00    +0.000 C 
BRANCH  10  15
ATOM     15  O   UNL     1       3.332   7.763  16.677  0.00  0.00    +0.000 OA
ATOM     16  H   UNL     1       3.900   8.553  16.611  0.00  0.00    +0.000 HD
ENDBRANCH  10  15
ENDBRANCH   2   9
ENDBRANCH   1   2
BRANCH   1  17
ATOM     17  C   UNL     1       4.534   3.657  17.245  0.00  0.00    +0.000 C 
BRANCH  17  18
ATOM     18  C   UNL     1       5.580   4.047  16.245  0.00  0.00    +0.000 A 
ATOM     19  N   UNL     1       5.522   3.843  14.939  0.00  0.00    +0.000 NA
ATOM     20  N   UNL     1       6.667   4.366  14.404  0.00  0.00    +0.000 NA
ATOM     21  N   UNL     1       7.422   4.909  15.344  0.00  0.00    +0.000 NA
ATOM     22  N   UNL     1       6.730   4.762  16.493  0.00  0.00    +0.000 N 
BRANCH  22  23
ATOM     23  C   UNL     1       7.352   5.153  17.739  0.00  0.00    +0.000 C 
BRANCH  23  24
ATOM     24  C   UNL     1       7.523   6.615  17.879  0.00  0.00    +0.000 A 
ATOM     25  C   UNL     1       7.046   7.710  17.188  0.00  0.00    +0.000 A 
ATOM     26  C   UNL     1       7.724   8.838  17.708  0.00  0.00    +0.000 A 
ATOM     27  C   UNL     1       8.554   8.365  18.697  0.00  0.00    +0.000 A 
ATOM     28  O   UNL     1       8.432   7.019  18.815  0.00  0.00    +0.000 OA
ENDBRANCH  23  24
ENDBRANCH  22  23
ENDBRANCH  17  18
ENDBRANCH   1  17
BRANCH   1  29
ATOM     29  C   UNL     1       2.194   4.045  17.894  0.00  0.00    +0.000 C 
BRANCH  29  30
ATOM     30  C   UNL     1       2.166   3.119  19.126  0.00  0.00    +0.000 C 
ATOM     31  C   UNL     1       0.841   3.174  19.873  0.00  0.00    +0.000 C 
ATOM     32  C   UNL     1       1.255   2.693  21.241  0.00  0.00    +0.000 C 
ATOM     33  C   UNL     1       2.618   3.332  21.401  0.00  0.00    +0.000 C 
ATOM     34  O   UNL     1       3.176   3.478  20.084  0.00  0.00    +0.000 OA
ENDBRANCH  29  30
ENDBRANCH   1  29
TORSDOF 9
ENDMDL
MODEL 3
REMARK VINA RESULT:      -8.8      1.181      1.467
REMARK  Name = 
REMARK  11 active torsions:
REMARK  status: ('A' for Active; 'I' for Inactive)
REMARK    1  A    between atoms: C_1  and  C_2
REMARK    2  A    between atoms: C_7  and  C_8
REMARK    3  A    between atoms: C_8  and  N_9
REMARK    4  A    between atoms: N_9  and  C_10
REMARK    5  A    between atoms: N_9  and  C_22
REMARK    6  A    between atoms: C_10  and  C_11
REMARK    7  A    between atoms: N_15  and  C_16
REMARK    8  A    between atoms: C_16  and  C_17
REMARK    9  A    between atoms: C_22  and  C_23
REMARK   10  A    between atoms: C_28  and  O_29
REMARK   11  A    between atoms: C_32  and  C_33
REMARK                            x       y       z     vdW  Elec       q    Type
REMARK                         _______ _______ _______ _____ _____    ______ ____
ROOT
ATOM      1  N   UNL     1       2.966   5.452  18.077  0.00  0.00    +0.000 NA
ENDROOT
BRANCH   1   2
ATOM      2  C   UNL     1       3.206   6.209  19.318  0.00  0.00    +0.000 C 
BRANCH   2   9
ATOM      3  C   UNL     1      -0.761  12.502  22.077  0.00  0.00    +0.000 C 
ATOM      4  C   UNL     1      -0.204  11.165  21.669  0.00  0.00    +0.000 A 
ATOM      5  C   UNL     1      -0.228  10.112  22.591  0.00  0.00    +0.000 A 
ATOM      6  C   UNL     1       0.309   8.878  22.254  0.00  0.00    +0.000 A 
ATOM      7  C   UNL     1       0.880   8.679  20.992  0.00  0.00    +0.000 A 
ATOM      8  C   UNL     1       1.550   7.489  20.700  0.00  0.00    +0.000 A 
ATOM      9  C   UNL     1       2.252   7.359  19.503  0.00  0.00    +0.000 A 
ATOM     10  C   UNL     1       2.082   8.361  18.560  0.00  0.00    +0.000 A 
ATOM     11  N   UNL     1       1.417   9.502  18.804  0.00  0.00    +0.000 NA
ATOM     12  C   UNL     1       0.879   9.705  20.022  0.00  0.00    +0.000 A 
ATOM     13  C   UNL     1       0.359  10.957  20.386  0.00  0.00    +0.000 A 
ATOM     14  C   UNL     1       0.433  12.103  19.404  0.00  0.00    +0.000 C 
BRANCH  10  15
ATOM     15  O   UNL     1       2.654   8.306  17.324  0.00  0.00    +0.000 OA
ATOM     16  H   UNL     1       1.990   7.965  16.696  0.00  0.00    +0.000 HD
ENDBRANCH  10  15
ENDBRANCH   2   9
ENDBRANCH   1   2
BRANCH   1  17
ATOM     17  C   UNL     1       4.056   4.501  17.691  0.00  0.00    +0.000 C 
BRANCH  17  18
ATOM     18  C   UNL     1       5.454   4.869  18.085  0.00  0.00    +0.000 A 
ATOM     19  N   UNL     1       6.042   4.577  19.234  0.00  0.00    +0.000 NA
ATOM     20  N   UNL     1       7.312   5.081  19.170  0.00  0.00    +0.000 NA
ATOM     21  N   UNL     1       7.533   5.657  18.000  0.00  0.00    +0.000 NA
ATOM     22  N   UNL     1       6.396   5.486  17.294  0.00  0.00    +0.000 N 
BRANCH  22  23
ATOM     23  C   UNL     1       6.277   6.118  15.998  0.00  0.00    +0.000 C 
BRANCH  23  24
ATOM     24  C   UNL     1       6.358   5.166  14.869  0.00  0.00    +0.000 A 
ATOM     25  C   UNL     1       7.312   4.887  13.912  0.00  0.00    +0.000 A 
ATOM     26  C   UNL     1       6.712   3.990  12.997  0.00  0.00    +0.000 A 
ATOM     27  C   UNL     1       5.439   3.760  13.464  0.00  0.00    +0.000 A 
ATOM     28  O   UNL     1       5.219   4.461  14.604  0.00  0.00    +0.000 OA
ENDBRANCH  23  24
ENDBRANCH  22  23
ENDBRANCH  17  18
ENDBRANCH   1  17
BRANCH   1  29
ATOM     29  C   UNL     1       1.645   4.768  18.100  0.00  0.00    +0.000 C 
BRANCH  29  30
ATOM     30  C   UNL     1       1.519   3.576  19.070  0.00  0.00    +0.000 C 
ATOM     31  C   UNL     1       0.842   3.953  20.380  0.00  0.00    +0.000 C 
ATOM     32  C   UNL     1       1.346   2.866  21.295  0.00  0.00    +0.000 C 
ATOM     33  C   UNL     1       2.774   2.693  20.821  0.00  0.00    +0.000 C 
ATOM     34  O   UNL     1       2.805   3.044  19.428  0.00  0.00    +0.000 OA
ENDBRANCH  29  30
ENDBRANCH   1  29
TORSDOF 9
ENDMDL
MODEL 4
REMARK VINA RESULT:      -8.7      1.008      1.155
REMARK  Name = 
REMARK  11 active torsions:
REMARK  status: ('A' for Active; 'I' for Inactive)
REMARK    1  A    between atoms: C_1  and  C_2
REMARK    2  A    between atoms: C_7  and  C_8
REMARK    3  A    between atoms: C_8  and  N_9
REMARK    4  A    between atoms: N_9  and  C_10
REMARK    5  A    between atoms: N_9  and  C_22
REMARK    6  A    between atoms: C_10  and  C_11
REMARK    7  A    between atoms: N_15  and  C_16
REMARK    8  A    between atoms: C_16  and  C_17
REMARK    9  A    between atoms: C_22  and  C_23
REMARK   10  A    between atoms: C_28  and  O_29
REMARK   11  A    between atoms: C_32  and  C_33
REMARK                            x       y       z     vdW  Elec       q    Type
REMARK                         _______ _______ _______ _____ _____    ______ ____
ROOT
ATOM      1  N   UNL     1       2.672   5.702  18.183  0.00  0.00    +0.000 NA
ENDROOT
BRANCH   1   2
ATOM      2  C   UNL     1       3.128   6.686  19.182  0.00  0.00    +0.000 C 
BRANCH   2   9
ATOM      3  C   UNL     1      -1.148  12.458  22.551  0.00  0.00    +0.000 C 
ATOM      4  C   UNL     1      -0.507  11.197  22.037  0.00  0.00    +0.000 A 
ATOM      5  C   UNL     1      -0.350  10.114  22.909  0.00  0.00    +0.000 A 
ATOM      6  C   UNL     1       0.268   8.952  22.471  0.00  0.00    +0.000 A 
ATOM      7  C   UNL     1       0.740   8.855  21.157  0.00  0.00    +0.000 A 
ATOM      8  C   UNL     1       1.490   7.747  20.756  0.00  0.00    +0.000 A 
ATOM      9  C   UNL     1       2.091   7.731  19.499  0.00  0.00    +0.000 A 
ATOM     10  C   UNL     1       1.745   8.745  18.620  0.00  0.00    +0.000 A 
ATOM     11  N   UNL     1       1.000   9.807  18.971  0.00  0.00    +0.000 NA
ATOM     12  C   UNL     1       0.556   9.911  20.238  0.00  0.00    +0.000 A 
ATOM     13  C   UNL     1      -0.043  11.093  20.702  0.00  0.00    +0.000 A 
ATOM     14  C   UNL     1      -0.165  12.276  19.770  0.00  0.00    +0.000 C 
BRANCH  10  15
ATOM     15  O   UNL     1       2.207   8.792  17.339  0.00  0.00    +0.000 OA
ATOM     16  H   UNL     1       3.002   8.229  17.281  0.00  0.00    +0.000 HD
ENDBRANCH  10  15
ENDBRANCH   2   9
ENDBRANCH   1   2
BRANCH   1  17
ATOM     17  C   UNL     1       3.764   4.993  17.445  0.00  0.00    +0.000 C 
BRANCH  17  18
ATOM     18  C   UNL     1       5.140   5.058  18.034  0.00  0.00    +0.000 A 
ATOM     19  N   UNL     1       5.507   4.581  19.212  0.00  0.00    +0.000 NA
ATOM     20  N   UNL     1       6.844   4.835  19.345  0.00  0.00    +0.000 NA
ATOM     21  N   UNL     1       7.320   5.437  18.268  0.00  0.00    +0.000 NA
ATOM     22  N   UNL     1       6.276   5.536  17.420  0.00  0.00    +0.000 N 
BRANCH  22  23
ATOM     23  C   UNL     1       6.448   6.267  16.183  0.00  0.00    +0.000 C 
BRANCH  23  24
ATOM     24  C   UNL     1       6.448   5.402  14.983  0.00  0.00    +0.000 A 
ATOM     25  C   UNL     1       5.626   4.394  14.524  0.00  0.00    +0.000 A 
ATOM     26  C   UNL     1       6.270   3.836  13.393  0.00  0.00    +0.000 A 
ATOM     27  C   UNL     1       7.431   4.552  13.220  0.00  0.00    +0.000 A 
ATOM     28  O   UNL     1       7.542   5.511  14.173  0.00  0.00    +0.000 OA
ENDBRANCH  23  24
ENDBRANCH  22  23
ENDBRANCH  17  18
ENDBRANCH   1  17
BRANCH   1  29
ATOM     29  C   UNL     1       1.709   4.734  18.770  0.00  0.00    +0.000 C 
BRANCH  29  30
ATOM     30  C   UNL     1       2.226   3.907  19.965  0.00  0.00    +0.000 C 
ATOM     31  C   UNL     1       2.184   2.408  19.704  0.00  0.00    +0.000 C 
ATOM     32  C   UNL     1       2.166   1.865  21.110  0.00  0.00    +0.000 C 
ATOM     33  C   UNL     1       1.283   2.867  21.824  0.00  0.00    +0.000 C 
ATOM     34  O   UNL     1       1.434   4.125  21.145  0.00  0.00    +0.000 OA
ENDBRANCH  29  30
ENDBRANCH   1  29
TORSDOF 9
ENDMDL
MODEL 5
REMARK VINA RESULT:      -8.6      2.222      2.915
REMARK  Name = 
REMARK  11 active torsions:
REMARK  status: ('A' for Active; 'I' for Inactive)
REMARK    1  A    between atoms: C_1  and  C_2
REMARK    2  A    between atoms: C_7  and  C_8
REMARK    3  A    between atoms: C_8  and  N_9
REMARK    4  A    between atoms: N_9  and  C_10
REMARK    5  A    between atoms: N_9  and  C_22
REMARK    6  A    between atoms: C_10  and  C_11
REMARK    7  A    between atoms: N_15  and  C_16
REMARK    8  A    between atoms: C_16  and  C_17
REMARK    9  A    between atoms: C_22  and  C_23
REMARK   10  A    between atoms: C_28  and  O_29
REMARK   11  A    between atoms: C_32  and  C_33
REMARK                            x       y       z     vdW  Elec       q    Type
REMARK                         _______ _______ _______ _____ _____    ______ ____
ROOT
ATOM      1  N   UNL     1       2.285   6.248  19.066  0.00  0.00    +0.000 NA
ENDROOT
BRANCH   1   2
ATOM      2  C   UNL     1       2.700   7.660  18.978  0.00  0.00    +0.000 C 
BRANCH   2   9
ATOM      3  C   UNL     1      -1.719  12.752  23.160  0.00  0.00    +0.000 C 
ATOM      4  C   UNL     1      -1.047  11.599  22.465  0.00  0.00    +0.000 A 
ATOM      5  C   UNL     1      -0.863  10.401  23.165  0.00  0.00    +0.000 A 
ATOM      6  C   UNL     1      -0.216   9.333  22.560  0.00  0.00    +0.000 A 
ATOM      7  C   UNL     1       0.258   9.447  21.248  0.00  0.00    +0.000 A 
ATOM      8  C   UNL     1       1.036   8.431  20.688  0.00  0.00    +0.000 A 
ATOM      9  C   UNL     1       1.637   8.619  19.445  0.00  0.00    +0.000 A 
ATOM     10  C   UNL     1       1.265   9.745  18.727  0.00  0.00    +0.000 A 
ATOM     11  N   UNL     1       0.494  10.723  19.231  0.00  0.00    +0.000 NA
ATOM     12  C   UNL     1       0.048  10.625  20.498  0.00  0.00    +0.000 A 
ATOM     13  C   UNL     1      -0.581  11.708  21.131  0.00  0.00    +0.000 A 
ATOM     14  C   UNL     1      -0.732  13.015  20.388  0.00  0.00    +0.000 C 
BRANCH  10  15
ATOM     15  O   UNL     1       1.726   9.995  17.469  0.00  0.00    +0.000 OA
ATOM     16  H   UNL     1       0.990   9.865  16.843  0.00  0.00    +0.000 HD
ENDBRANCH  10  15
ENDBRANCH   2   9
ENDBRANCH   1   2
BRANCH   1  17
ATOM     17  C   UNL     1       2.154   5.541  17.755  0.00  0.00    +0.000 C 
BRANCH  17  18
ATOM     18  C   UNL     1       3.208   4.532  17.413  0.00  0.00    +0.000 A 
ATOM     19  N   UNL     1       3.104   3.221  17.551  0.00  0.00    +0.000 NA
ATOM     20  N   UNL     1       4.279   2.680  17.107  0.00  0.00    +0.000 NA
ATOM     21  N   UNL     1       5.100   3.623  16.675  0.00  0.00    +0.000 NA
ATOM     22  N   UNL     1       4.421   4.781  16.813  0.00  0.00    +0.000 N 
BRANCH  22  23
ATOM     23  C   UNL     1       5.102   6.027  16.535  0.00  0.00    +0.000 C 
BRANCH  23  24
ATOM     24  C   UNL     1       6.207   6.318  17.474  0.00  0.00    +0.000 A 
ATOM     25  C   UNL     1       7.278   7.187  17.459  0.00  0.00    +0.000 A 
ATOM     26  C   UNL     1       8.079   6.856  18.578  0.00  0.00    +0.000 A 
ATOM     27  C   UNL     1       7.436   5.822  19.217  0.00  0.00    +0.000 A 
ATOM     28  O   UNL     1       6.295   5.496  18.561  0.00  0.00    +0.000 OA
ENDBRANCH  23  24
ENDBRANCH  22  23
ENDBRANCH  17  18
ENDBRANCH   1  17
BRANCH   1  29
ATOM     29  C   UNL     1       3.152   5.482  20.001  0.00  0.00    +0.000 C 
BRANCH  29  30
ATOM     30  C   UNL     1       2.422   4.550  20.989  0.00  0.00    +0.000 C 
ATOM     31  C   UNL     1       3.085   3.186  21.111  0.00  0.00    +0.000 C 
ATOM     32  C   UNL     1       1.940   2.347  21.618  0.00  0.00    +0.000 C 
ATOM     33  C   UNL     1       0.766   2.918  20.851  0.00  0.00    +0.000 C 
ATOM     34  O   UNL     1       1.068   4.297  20.579  0.00  0.00    +0.000 OA
ENDBRANCH  29  30
ENDBRANCH   1  29
TORSDOF 9
ENDMDL
MODEL 6
REMARK VINA RESULT:      -8.5      1.647      2.001
REMARK  Name = 
REMARK  11 active torsions:
REMARK  status: ('A' for Active; 'I' for Inactive)
REMARK    1  A    between atoms: C_1  and  C_2
REMARK    2  A    between atoms: C_7  and  C_8
REMARK    3  A    between atoms: C_8  and  N_9
REMARK    4  A    between atoms: N_9  and  C_10
REMARK    5  A    between atoms: N_9  and  C_22
REMARK    6  A    between atoms: C_10  and  C_11
REMARK    7  A    between atoms: N_15  and  C_16
REMARK    8  A    between atoms: C_16  and  C_17
REMARK    9  A    between atoms: C_22  and  C_23
REMARK   10  A    between atoms: C_28  and  O_29
REMARK   11  A    between atoms: C_32  and  C_33
REMARK                            x       y       z     vdW  Elec       q    Type
REMARK                         _______ _______ _______ _____ _____    ______ ____
ROOT
ATOM      1  N   UNL     1       3.716   4.175  18.171  0.00  0.00    +0.000 NA
ENDROOT
BRANCH   1   2
ATOM      2  C   UNL     1       4.136   5.304  19.021  0.00  0.00    +0.000 C 
BRANCH   2   9
ATOM      3  C   UNL     1      -0.364  11.497  21.105  0.00  0.00    +0.000 C 
ATOM      4  C   UNL     1       0.284  10.174  20.799  0.00  0.00    +0.000 A 
ATOM      5  C   UNL     1       0.162   9.131  21.724  0.00  0.00    +0.000 A 
ATOM      6  C   UNL     1       0.779   7.911  21.483  0.00  0.00    +0.000 A 
ATOM      7  C   UNL     1       1.526   7.716  20.316  0.00  0.00    +0.000 A 
ATOM      8  C   UNL     1       2.266   6.545  20.139  0.00  0.00    +0.000 A 
ATOM      9  C   UNL     1       3.132   6.425  19.053  0.00  0.00    +0.000 A 
ATOM     10  C   UNL     1       3.066   7.411  18.081  0.00  0.00    +0.000 A 
ATOM     11  N   UNL     1       2.339   8.533  18.213  0.00  0.00    +0.000 NA
ATOM     12  C   UNL     1       1.630   8.732  19.340  0.00  0.00    +0.000 A 
ATOM     13  C   UNL     1       1.028   9.971  19.610  0.00  0.00    +0.000 A 
ATOM     14  C   UNL     1       1.204  11.108  18.631  0.00  0.00    +0.000 C 
BRANCH  10  15
ATOM     15  O   UNL     1       3.807   7.361  16.938  0.00  0.00    +0.000 OA
ATOM     16  H   UNL     1       3.528   8.097  16.362  0.00  0.00    +0.000 HD
ENDBRANCH  10  15
ENDBRANCH   2   9
ENDBRANCH   1   2
BRANCH   1  17
ATOM     17  C   UNL     1       4.277   4.179  16.784  0.00  0.00    +0.000 C 
BRANCH  17  18
ATOM     18  C   UNL     1       5.756   4.379  16.646  0.00  0.00    +0.000 A 
ATOM     19  N   UNL     1       6.657   4.210  17.600  0.00  0.00    +0.000 NA
ATOM     20  N   UNL     1       7.878   4.480  17.046  0.00  0.00    +0.000 NA
ATOM     21  N   UNL     1       7.757   4.790  15.766  0.00  0.00    +0.000 NA
ATOM     22  N   UNL     1       6.441   4.681  15.491  0.00  0.00    +0.000 N 
BRANCH  22  23
ATOM     23  C   UNL     1       5.965   5.077  14.184  0.00  0.00    +0.000 C 
BRANCH  23  24
ATOM     24  C   UNL     1       6.138   4.032  13.152  0.00  0.00    +0.000 A 
ATOM     25  C   UNL     1       7.197   3.617  12.372  0.00  0.00    +0.000 A 
ATOM     26  C   UNL     1       6.671   2.685  11.445  0.00  0.00    +0.000 A 
ATOM     27  C   UNL     1       5.331   2.574  11.731  0.00  0.00    +0.000 A 
ATOM     28  O   UNL     1       5.000   3.379  12.772  0.00  0.00    +0.000 OA
ENDBRANCH  23  24
ENDBRANCH  22  23
ENDBRANCH  17  18
ENDBRANCH   1  17
BRANCH   1  29
ATOM     29  C   UNL     1       3.957   2.868  18.840  0.00  0.00    +0.000 C 
BRANCH  29  30
ATOM     30  C   UNL     1       2.848   2.384  19.796  0.00  0.00    +0.000 C 
ATOM     31  C   UNL     1       1.507   3.051  19.526  0.00  0.00    +0.000 C 
ATOM     32  C   UNL     1       0.818   2.876  20.856  0.00  0.00    +0.000 C 
ATOM     33  C   UNL     1       1.958   3.086  21.831  0.00  0.00    +0.000 C 
ATOM     34  O   UNL     1       3.165   2.675  21.168  0.00  0.00    +0.000 OA
ENDBRANCH  29  30
ENDBRANCH   1  29
TORSDOF 9
ENDMDL
MODEL 7
REMARK VINA RESULT:      -8.5      1.024      1.210
REMARK  Name = 
REMARK  11 active torsions:
REMARK  status: ('A' for Active; 'I' for Inactive)
REMARK    1  A    between atoms: C_1  and  C_2
REMARK    2  A    between atoms: C_7  and  C_8
REMARK    3  A    between atoms: C_8  and  N_9
REMARK    4  A    between atoms: N_9  and  C_10
REMARK    5  A    between atoms: N_9  and  C_22
REMARK    6  A    between atoms: C_10  and  C_11
REMARK    7  A    between atoms: N_15  and  C_16
REMARK    8  A    between atoms: C_16  and  C_17
REMARK    9  A    between atoms: C_22  and  C_23
REMARK   10  A    between atoms: C_28  and  O_29
REMARK   11  A    between atoms: C_32  and  C_33
REMARK                            x       y       z     vdW  Elec       q    Type
REMARK                         _______ _______ _______ _____ _____    ______ ____
ROOT
ATOM      1  N   UNL     1       3.189   6.106  18.275  0.00  0.00    +0.000 NA
ENDROOT
BRANCH   1   2
ATOM      2  C   UNL     1       3.411   7.559  18.388  0.00  0.00    +0.000 C 
BRANCH   2   9
ATOM      3  C   UNL     1      -1.505  11.664  23.072  0.00  0.00    +0.000 C 
ATOM      4  C   UNL     1      -0.692  10.669  22.289  0.00  0.00    +0.000 A 
ATOM      5  C   UNL     1      -0.230   9.516  22.934  0.00  0.00    +0.000 A 
ATOM      6  C   UNL     1       0.551   8.598  22.245  0.00  0.00    +0.000 A 
ATOM      7  C   UNL     1       0.882   8.820  20.903  0.00  0.00    +0.000 A 
ATOM      8  C   UNL     1       1.784   7.977  20.251  0.00  0.00    +0.000 A 
ATOM      9  C   UNL     1       2.232   8.294  18.970  0.00  0.00    +0.000 A 
ATOM     10  C   UNL     1       1.598   9.342  18.320  0.00  0.00    +0.000 A 
ATOM     11  N   UNL     1       0.704  10.149  18.915  0.00  0.00    +0.000 NA
ATOM     12  C   UNL     1       0.393   9.949  20.210  0.00  0.00    +0.000 A 
ATOM     13  C   UNL     1      -0.370  10.885  20.926  0.00  0.00    +0.000 A 
ATOM     14  C   UNL     1      -0.824  12.151  20.238  0.00  0.00    +0.000 C 
BRANCH  10  15
ATOM     15  O   UNL     1       1.895   9.694  17.037  0.00  0.00    +0.000 OA
ATOM     16  H   UNL     1       1.062   9.731  16.531  0.00  0.00    +0.000 HD
ENDBRANCH  10  15
ENDBRANCH   2   9
ENDBRANCH   1   2
BRANCH   1  17
ATOM     17  C   UNL     1       3.933   5.434  17.165  0.00  0.00    +0.000 C 
BRANCH  17  18
ATOM     18  C   UNL     1       5.427   5.382  17.277  0.00  0.00    +0.000 A 
ATOM     19  N   UNL     1       6.171   6.094  18.107  0.00  0.00    +0.000 NA
ATOM     20  N   UNL     1       7.470   5.726  17.892  0.00  0.00    +0.000 NA
ATOM     21  N   UNL     1       7.548   4.787  16.965  0.00  0.00    +0.000 NA
ATOM     22  N   UNL     1       6.273   4.527  16.609  0.00  0.00    +0.000 N 
BRANCH  22  23
ATOM     23  C   UNL     1       6.025   3.616  15.512  0.00  0.00    +0.000 C 
BRANCH  23  24
ATOM     24  C   UNL     1       6.509   4.119  14.208  0.00  0.00    +0.000 A 
ATOM     25  C   UNL     1       6.310   3.737  12.897  0.00  0.00    +0.000 A 
ATOM     26  C   UNL     1       7.199   4.514  12.115  0.00  0.00    +0.000 A 
ATOM     27  C   UNL     1       7.866   5.334  12.993  0.00  0.00    +0.000 A 
ATOM     28  O   UNL     1       7.446   5.110  14.263  0.00  0.00    +0.000 OA
ENDBRANCH  23  24
ENDBRANCH  22  23
ENDBRANCH  17  18
ENDBRANCH   1  17
BRANCH   1  29
ATOM     29  C   UNL     1       3.425   5.415  19.571  0.00  0.00    +0.000 C 
BRANCH  29  30
ATOM     30  C   UNL     1       2.639   4.107  19.792  0.00  0.00    +0.000 C 
ATOM     31  C   UNL     1       1.347   4.321  20.566  0.00  0.00    +0.000 C 
ATOM     32  C   UNL     1       1.105   2.940  21.120  0.00  0.00    +0.000 C 
ATOM     33  C   UNL     1       2.509   2.484  21.457  0.00  0.00    +0.000 C 
ATOM     34  O   UNL     1       3.401   3.151  20.549  0.00  0.00    +0.000 OA
ENDBRANCH  29  30
ENDBRANCH   1  29
TORSDOF 9
ENDMDL
MODEL 8
REMARK VINA RESULT:      -8.3      1.673      2.443
REMARK  Name = 
REMARK  11 active torsions:
REMARK  status: ('A' for Active; 'I' for Inactive)
REMARK    1  A    between atoms: C_1  and  C_2
REMARK    2  A    between atoms: C_7  and  C_8
REMARK    3  A    between atoms: C_8  and  N_9
REMARK    4  A    between atoms: N_9  and  C_10
REMARK    5  A    between atoms: N_9  and  C_22
REMARK    6  A    between atoms: C_10  and  C_11
REMARK    7  A    between atoms: N_15  and  C_16
REMARK    8  A    between atoms: C_16  and  C_17
REMARK    9  A    between atoms: C_22  and  C_23
REMARK   10  A    between atoms: C_28  and  O_29
REMARK   11  A    between atoms: C_32  and  C_33
REMARK                            x       y       z     vdW  Elec       q    Type
REMARK                         _______ _______ _______ _____ _____    ______ ____
ROOT
ATOM      1  N   UNL     1       3.794   4.627  18.478  0.00  0.00    +0.000 NA
ENDROOT
BRANCH   1   2
ATOM      2  C   UNL     1       2.490   5.249  18.187  0.00  0.00    +0.000 C 
BRANCH   2   9
ATOM      3  C   UNL     1      -0.023  12.409  20.504  0.00  0.00    +0.000 C 
ATOM      4  C   UNL     1       0.647  11.187  19.936  0.00  0.00    +0.000 A 
ATOM      5  C   UNL     1       1.104  11.219  18.614  0.00  0.00    +0.000 A 
ATOM      6  C   UNL     1       1.695  10.095  18.054  0.00  0.00    +0.000 A 
ATOM      7  C   UNL     1       1.835   8.923  18.806  0.00  0.00    +0.000 A 
ATOM      8  C   UNL     1       2.293   7.749  18.204  0.00  0.00    +0.000 A 
ATOM      9  C   UNL     1       2.279   6.550  18.915  0.00  0.00    +0.000 A 
ATOM     10  C   UNL     1       1.992   6.622  20.269  0.00  0.00    +0.000 A 
ATOM     11  N   UNL     1       1.578   7.745  20.879  0.00  0.00    +0.000 NA
ATOM     12  C   UNL     1       1.427   8.871  20.157  0.00  0.00    +0.000 A 
ATOM     13  C   UNL     1       0.804  10.005  20.702  0.00  0.00    +0.000 A 
ATOM     14  C   UNL     1       0.268   9.948  22.114  0.00  0.00    +0.000 C 
BRANCH  10  15
ATOM     15  O   UNL     1       2.024   5.528  21.082  0.00  0.00    +0.000 OA
ATOM     16  H   UNL     1       1.352   5.647  21.778  0.00  0.00    +0.000 HD
ENDBRANCH  10  15
ENDBRANCH   2   9
ENDBRANCH   1   2
BRANCH   1  17
ATOM     17  C   UNL     1       4.952   5.573  18.527  0.00  0.00    +0.000 C 
BRANCH  17  18
ATOM     18  C   UNL     1       6.247   5.098  17.942  0.00  0.00    +0.000 A 
ATOM     19  N   UNL     1       7.246   4.544  18.609  0.00  0.00    +0.000 NA
ATOM     20  N   UNL     1       8.219   4.246  17.695  0.00  0.00    +0.000 NA
ATOM     21  N   UNL     1       7.838   4.582  16.474  0.00  0.00    +0.000 NA
ATOM     22  N   UNL     1       6.587   5.068  16.608  0.00  0.00    +0.000 N 
BRANCH  22  23
ATOM     23  C   UNL     1       5.931   5.639  15.452  0.00  0.00    +0.000 C 
BRANCH  23  24
ATOM     24  C   UNL     1       6.221   4.917  14.194  0.00  0.00    +0.000 A 
ATOM     25  C   UNL     1       5.712   3.782  13.597  0.00  0.00    +0.000 A 
ATOM     26  C   UNL     1       6.540   3.511  12.482  0.00  0.00    +0.000 A 
ATOM     27  C   UNL     1       7.486   4.509  12.454  0.00  0.00    +0.000 A 
ATOM     28  O   UNL     1       7.294   5.372  13.482  0.00  0.00    +0.000 OA
ENDBRANCH  23  24
ENDBRANCH  22  23
ENDBRANCH  17  18
ENDBRANCH   1  17
BRANCH   1  29
ATOM     29  C   UNL     1       3.737   3.789  19.706  0.00  0.00    +0.000 C 
BRANCH  29  30
ATOM     30  C   UNL     1       2.728   2.623  19.682  0.00  0.00    +0.000 C 
ATOM     31  C   UNL     1       2.381   2.175  18.270  0.00  0.00    +0.000 C 
ATOM     32  C   UNL     1       1.049   1.506  18.493  0.00  0.00    +0.000 C 
ATOM     33  C   UNL     1       0.415   2.405  19.534  0.00  0.00    +0.000 C 
ATOM     34  O   UNL     1       1.482   2.986  20.300  0.00  0.00    +0.000 OA
ENDBRANCH  29  30
ENDBRANCH   1  29
TORSDOF 9
ENDMDL
MODEL 9
REMARK VINA RESULT:      -8.2      1.529      2.251
REMARK  Name = 
REMARK  11 active torsions:
REMARK  status: ('A' for Active; 'I' for Inactive)
REMARK    1  A    between atoms: C_1  and  C_2
REMARK    2  A    between atoms: C_7  and  C_8
REMARK    3  A    between atoms: C_8  and  N_9
REMARK    4  A    between atoms: N_9  and  C_10
REMARK    5  A    between atoms: N_9  and  C_22
REMARK    6  A    between atoms: C_10  and  C_11
REMARK    7  A    between atoms: N_15  and  C_16
REMARK    8  A    between atoms: C_16  and  C_17
REMARK    9  A    between atoms: C_22  and  C_23
REMARK   10  A    between atoms: C_28  and  O_29
REMARK   11  A    between atoms: C_32  and  C_33
REMARK                            x       y       z     vdW  Elec       q    Type
REMARK                         _______ _______ _______ _____ _____    ______ ____
ROOT
ATOM      1  N   UNL     1       3.609   5.530  17.629  0.00  0.00    +0.000 NA
ENDROOT
BRANCH   1   2
ATOM      2  C   UNL     1       2.204   5.714  18.035  0.00  0.00    +0.000 C 
BRANCH   2   9
ATOM      3  C   UNL     1      -0.400  12.448  21.324  0.00  0.00    +0.000 C 
ATOM      4  C   UNL     1       0.273  11.329  20.577  0.00  0.00    +0.000 A 
ATOM      5  C   UNL     1       0.639  11.531  19.241  0.00  0.00    +0.000 A 
ATOM      6  C   UNL     1       1.230  10.505  18.518  0.00  0.00    +0.000 A 
ATOM      7  C   UNL     1       1.462   9.262  19.118  0.00  0.00    +0.000 A 
ATOM      8  C   UNL     1       1.921   8.185  18.356  0.00  0.00    +0.000 A 
ATOM      9  C   UNL     1       1.997   6.913  18.921  0.00  0.00    +0.000 A 
ATOM     10  C   UNL     1       1.798   6.818  20.290  0.00  0.00    +0.000 A 
ATOM     11  N   UNL     1       1.387   7.845  21.052  0.00  0.00    +0.000 NA
ATOM     12  C   UNL     1       1.148   9.039  20.476  0.00  0.00    +0.000 A 
ATOM     13  C   UNL     1       0.523  10.075  21.188  0.00  0.00    +0.000 A 
ATOM     14  C   UNL     1       0.085   9.835  22.614  0.00  0.00    +0.000 C 
BRANCH  10  15
ATOM     15  O   UNL     1       1.925   5.641  20.967  0.00  0.00    +0.000 OA
ATOM     16  H   UNL     1       1.041   5.376  21.282  0.00  0.00    +0.000 HD
ENDBRANCH  10  15
ENDBRANCH   2   9
ENDBRANCH   1   2
BRANCH   1  17
ATOM     17  C   UNL     1       4.221   6.692  16.911  0.00  0.00    +0.000 C 
BRANCH  17  18
ATOM     18  C   UNL     1       5.708   6.680  16.733  0.00  0.00    +0.000 A 
ATOM     19  N   UNL     1       6.544   7.638  17.097  0.00  0.00    +0.000 NA
ATOM     20  N   UNL     1       7.802   7.214  16.769  0.00  0.00    +0.000 NA
ATOM     21  N   UNL     1       7.769   6.007  16.231  0.00  0.00    +0.000 NA
ATOM     22  N   UNL     1       6.471   5.640  16.250  0.00  0.00    +0.000 N 
BRANCH  22  23
ATOM     23  C   UNL     1       6.085   4.400  15.612  0.00  0.00    +0.000 C 
BRANCH  23  24
ATOM     24  C   UNL     1       6.516   4.305  14.201  0.00  0.00    +0.000 A 
ATOM     25  C   UNL     1       7.433   4.987  13.427  0.00  0.00    +0.000 A 
ATOM     26  C   UNL     1       7.247   4.538  12.097  0.00  0.00    +0.000 A 
ATOM     27  C   UNL     1       6.247   3.596  12.147  0.00  0.00    +0.000 A 
ATOM     28  O   UNL     1       5.805   3.440  13.419  0.00  0.00    +0.000 OA
ENDBRANCH  23  24
ENDBRANCH  22  23
ENDBRANCH  17  18
ENDBRANCH   1  17
BRANCH   1  29
ATOM     29  C   UNL     1       4.457   5.104  18.774  0.00  0.00    +0.000 C 
BRANCH  29  30
ATOM     30  C   UNL     1       4.371   3.614  19.162  0.00  0.00    +0.000 C 
ATOM     31  C   UNL     1       3.981   2.724  17.990  0.00  0.00    +0.000 C 
ATOM     32  C   UNL     1       3.425   1.521  18.708  0.00  0.00    +0.000 C 
ATOM     33  C   UNL     1       2.700   2.157  19.875  0.00  0.00    +0.000 C 
ATOM     34  O   UNL     1       3.380   3.386  20.178  0.00  0.00    +0.000 OA
ENDBRANCH  29  30
ENDBRANCH   1  29
TORSDOF 9
ENDMDL
