MODEL 1
REMARK VINA RESULT:      -8.9      0.000      0.000
REMARK  Name = 
REMARK  4 active torsions:
REMARK  status: ('A' for Active; 'I' for Inactive)
REMARK    1  A    between atoms: C_2  and  C_3
REMARK    2  A    between atoms: C_4  and  O_5
REMARK    3  A    between atoms: C_10  and  C_11
REMARK    4  A    between atoms: C_15  and  O_16
REMARK                            x       y       z     vdW  Elec       q    Type
REMARK                         _______ _______ _______ _____ _____    ______ ____
ROOT
ATOM      1  C   UNL     1       4.421   4.310  19.374  0.00  0.00    +0.000 A 
ATOM      2  C   UNL     1       4.155   3.036  19.901  0.00  0.00    +0.000 A 
ATOM      3  C   UNL     1       3.016   2.799  20.660  0.00  0.00    +0.000 A 
ATOM      4  C   UNL     1       2.140   3.847  20.934  0.00  0.00    +0.000 A 
ATOM      5  C   UNL     1       2.362   5.125  20.405  0.00  0.00    +0.000 A 
ATOM      6  C   UNL     1       1.508   6.203  20.727  0.00  0.00    +0.000 A 
ATOM      7  C   UNL     1       1.724   7.504  20.237  0.00  0.00    +0.000 A 
ATOM      8  C   UNL     1       2.770   7.666  19.325  0.00  0.00    +0.000 A 
ATOM      9  C   UNL     1       3.546   6.589  18.910  0.00  0.00    +0.000 A 
ATOM     10  C   UNL     1       3.458   5.341  19.540  0.00  0.00    +0.000 A 
ENDROOT
BRANCH   1  12
ATOM     11  O   UNL     1       6.642   4.983  19.352  0.00  0.00    +0.000 OA
ATOM     12  C   UNL     1       5.722   4.522  18.669  0.00  0.00    +0.000 C 
ATOM     13  N   UNL     1       5.867   4.285  17.299  0.00  0.00    +0.000 N 
ATOM     14  C   UNL     1       7.208   4.272  16.709  0.00  0.00    +0.000 C 
ATOM     15  C   UNL     1       7.251   5.096  15.414  0.00  0.00    +0.000 C 
ATOM     16  O   UNL     1       6.242   4.670  14.486  0.00  0.00    +0.000 OA
ATOM     17  C   UNL     1       4.935   4.820  15.059  0.00  0.00    +0.000 C 
ATOM     18  C   UNL     1       4.801   3.988  16.324  0.00  0.00    +0.000 C 
ENDBRANCH   1  12
BRANCH   7  19
ATOM     19  C   UNL     1       0.866   8.654  20.602  0.00  0.00    +0.000 A 
ATOM     20  C   UNL     1       0.435   9.607  19.662  0.00  0.00    +0.000 A 
ATOM     21  C   UNL     1      -0.338  10.711  20.050  0.00  0.00    +0.000 A 
ATOM     22  C   UNL     1      -0.719  10.872  21.379  0.00  0.00    +0.000 A 
ATOM     23  C   UNL     1      -0.325   9.928  22.312  0.00  0.00    +0.000 A 
ATOM     24  C   UNL     1       0.457   8.843  21.937  0.00  0.00    +0.000 A 
BRANCH  23  25
ATOM     25  O   UNL     1      -0.673  10.019  23.628  0.00  0.00    +0.000 OA
ATOM     26  H   UNL     1       0.096  10.335  24.127  0.00  0.00    +0.000 HD
ENDBRANCH  23  25
ENDBRANCH   7  19
BRANCH   2  27
ATOM     27  O   UNL     1       4.983   1.958  19.708  0.00  0.00    +0.000 OA
ATOM     28  H   UNL     1       5.418   1.760  20.564  0.00  0.00    +0.000 HD
ENDBRANCH   2  27
TORSDOF 4
ENDMDL
MODEL 2
REMARK VINA RESULT:      -8.7      1.315      1.718
REMARK  Name = 
REMARK  4 active torsions:
REMARK  status: ('A' for Active; 'I' for Inactive)
REMARK    1  A    between atoms: C_2  and  C_3
REMARK    2  A    between atoms: C_4  and  O_5
REMARK    3  A    between atoms: C_10  and  C_11
REMARK    4  A    between atoms: C_15  and  O_16
REMARK                            x       y       z     vdW  Elec       q    Type
REMARK                         _______ _______ _______ _____ _____    ______ ____
ROOT
ATOM      1  C   UNL     1       3.156   4.092  18.650  0.00  0.00    +0.000 A 
ATOM      2  C   UNL     1       3.222   3.021  19.556  0.00  0.00    +0.000 A 
ATOM      3  C   UNL     1       2.726   3.145  20.847  0.00  0.00    +0.000 A 
ATOM      4  C   UNL     1       2.186   4.360  21.264  0.00  0.00    +0.000 A 
ATOM      5  C   UNL     1       2.083   5.441  20.380  0.00  0.00    +0.000 A 
ATOM      6  C   UNL     1       1.588   6.691  20.814  0.00  0.00    +0.000 A 
ATOM      7  C   UNL     1       1.503   7.803  19.959  0.00  0.00    +0.000 A 
ATOM      8  C   UNL     1       1.834   7.591  18.617  0.00  0.00    +0.000 A 
ATOM      9  C   UNL     1       2.211   6.335  18.152  0.00  0.00    +0.000 A 
ATOM     10  C   UNL     1       2.482   5.282  19.034  0.00  0.00    +0.000 A 
ENDROOT
BRANCH   1  12
ATOM     11  O   UNL     1       3.243   3.185  16.516  0.00  0.00    +0.000 OA
ATOM     12  C   UNL     1       3.815   3.928  17.318  0.00  0.00    +0.000 C 
ATOM     13  N   UNL     1       5.048   4.519  17.026  0.00  0.00    +0.000 N 
ATOM     14  C   UNL     1       5.531   4.533  15.643  0.00  0.00    +0.000 C 
ATOM     15  C   UNL     1       7.003   4.105  15.567  0.00  0.00    +0.000 C 
ATOM     16  O   UNL     1       7.826   4.894  16.440  0.00  0.00    +0.000 OA
ATOM     17  C   UNL     1       7.398   4.752  17.802  0.00  0.00    +0.000 C 
ATOM     18  C   UNL     1       5.957   5.206  17.964  0.00  0.00    +0.000 C 
ENDBRANCH   1  12
BRANCH   7  19
ATOM     19  C   UNL     1       1.031   9.132  20.410  0.00  0.00    +0.000 A 
ATOM     20  C   UNL     1       1.096  10.277  19.596  0.00  0.00    +0.000 A 
ATOM     21  C   UNL     1       0.685  11.530  20.071  0.00  0.00    +0.000 A 
ATOM     22  C   UNL     1       0.176  11.662  21.360  0.00  0.00    +0.000 A 
ATOM     23  C   UNL     1       0.081  10.539  22.166  0.00  0.00    +0.000 A 
ATOM     24  C   UNL     1       0.505   9.299  21.706  0.00  0.00    +0.000 A 
BRANCH  23  25
ATOM     25  O   UNL     1      -0.418  10.596  23.433  0.00  0.00    +0.000 OA
ATOM     26  H   UNL     1       0.118  10.021  24.001  0.00  0.00    +0.000 HD
ENDBRANCH  23  25
ENDBRANCH   7  19
BRANCH   2  27
ATOM     27  O   UNL     1       3.769   1.803  19.237  0.00  0.00    +0.000 OA
ATOM     28  H   UNL     1       3.862   1.292  20.068  0.00  0.00    +0.000 HD
ENDBRANCH   2  27
TORSDOF 4
ENDMDL
MODEL 3
REMARK VINA RESULT:      -8.5      1.540      2.120
REMARK  Name = 
REMARK  4 active torsions:
REMARK  status: ('A' for Active; 'I' for Inactive)
REMARK    1  A    between atoms: C_2  and  C_3
REMARK    2  A    between atoms: C_4  and  O_5
REMARK    3  A    between atoms: C_10  and  C_11
REMARK    4  A    between atoms: C_15  and  O_16
REMARK                            x       y       z     vdW  Elec       q    Type
REMARK                         _______ _______ _______ _____ _____    ______ ____
ROOT
ATOM      1  C   UNL     1       3.185   3.992  18.636  0.00  0.00    +0.000 A 
ATOM      2  C   UNL     1       3.303   2.851  19.447  0.00  0.00    +0.000 A 
ATOM      3  C   UNL     1       2.830   2.850  20.752  0.00  0.00    +0.000 A 
ATOM      4  C   UNL     1       2.262   4.007  21.281  0.00  0.00    +0.000 A 
ATOM      5  C   UNL     1       2.108   5.155  20.494  0.00  0.00    +0.000 A 
ATOM      6  C   UNL     1       1.585   6.347  21.041  0.00  0.00    +0.000 A 
ATOM      7  C   UNL     1       1.448   7.524  20.284  0.00  0.00    +0.000 A 
ATOM      8  C   UNL     1       1.757   7.436  18.924  0.00  0.00    +0.000 A 
ATOM      9  C   UNL     1       2.162   6.237  18.347  0.00  0.00    +0.000 A 
ATOM     10  C   UNL     1       2.484   5.123  19.132  0.00  0.00    +0.000 A 
ENDROOT
BRANCH   1  12
ATOM     11  O   UNL     1       3.230   3.308  16.419  0.00  0.00    +0.000 OA
ATOM     12  C   UNL     1       3.822   3.961  17.284  0.00  0.00    +0.000 C 
ATOM     13  N   UNL     1       5.054   4.572  17.033  0.00  0.00    +0.000 N 
ATOM     14  C   UNL     1       5.515   4.725  15.651  0.00  0.00    +0.000 C 
ATOM     15  C   UNL     1       6.982   4.299  15.506  0.00  0.00    +0.000 C 
ATOM     16  O   UNL     1       7.825   4.989  16.441  0.00  0.00    +0.000 OA
ATOM     17  C   UNL     1       7.418   4.709  17.789  0.00  0.00    +0.000 C 
ATOM     18  C   UNL     1       5.983   5.153  18.021  0.00  0.00    +0.000 C 
ENDBRANCH   1  12
BRANCH   7  19
ATOM     19  C   UNL     1       0.945   8.795  20.855  0.00  0.00    +0.000 A 
ATOM     20  C   UNL     1       0.476   8.899  22.177  0.00  0.00    +0.000 A 
ATOM     21  C   UNL     1      -0.038  10.106  22.672  0.00  0.00    +0.000 A 
ATOM     22  C   UNL     1      -0.069  11.241  21.867  0.00  0.00    +0.000 A 
ATOM     23  C   UNL     1       0.414  11.162  20.571  0.00  0.00    +0.000 A 
ATOM     24  C   UNL     1       0.906   9.963  20.070  0.00  0.00    +0.000 A 
BRANCH  23  25
ATOM     25  O   UNL     1       0.423  12.237  19.733  0.00  0.00    +0.000 OA
ATOM     26  H   UNL     1       0.429  13.045  20.270  0.00  0.00    +0.000 HD
ENDBRANCH  23  25
ENDBRANCH   7  19
BRANCH   2  27
ATOM     27  O   UNL     1       3.880   1.682  19.016  0.00  0.00    +0.000 OA
ATOM     28  H   UNL     1       3.316   0.941  19.322  0.00  0.00    +0.000 HD
ENDBRANCH   2  27
TORSDOF 4
ENDMDL
MODEL 4
REMARK VINA RESULT:      -8.5      0.942      1.331
REMARK  Name = 
REMARK  4 active torsions:
REMARK  status: ('A' for Active; 'I' for Inactive)
REMARK    1  A    between atoms: C_2  and  C_3
REMARK    2  A    between atoms: C_4  and  O_5
REMARK    3  A    between atoms: C_10  and  C_11
REMARK    4  A    between atoms: C_15  and  O_16
REMARK                            x       y       z     vdW  Elec       q    Type
REMARK                         _______ _______ _______ _____ _____    ______ ____
ROOT
ATOM      1  C   UNL     1       4.375   4.319  19.422  0.00  0.00    +0.000 A 
ATOM      2  C   UNL     1       4.098   3.035  19.921  0.00  0.00    +0.000 A 
ATOM      3  C   UNL     1       2.955   2.790  20.669  0.00  0.00    +0.000 A 
ATOM      4  C   UNL     1       2.084   3.839  20.962  0.00  0.00    +0.000 A 
ATOM      5  C   UNL     1       2.318   5.125  20.462  0.00  0.00    +0.000 A 
ATOM      6  C   UNL     1       1.469   6.203  20.803  0.00  0.00    +0.000 A 
ATOM      7  C   UNL     1       1.696   7.512  20.343  0.00  0.00    +0.000 A 
ATOM      8  C   UNL     1       2.747   7.687  19.438  0.00  0.00    +0.000 A 
ATOM      9  C   UNL     1       3.518   6.613  19.004  0.00  0.00    +0.000 A 
ATOM     10  C   UNL     1       3.418   5.353  19.607  0.00  0.00    +0.000 A 
ENDROOT
BRANCH   1  12
ATOM     11  O   UNL     1       6.591   5.008  19.416  0.00  0.00    +0.000 OA
ATOM     12  C   UNL     1       5.680   4.537  18.728  0.00  0.00    +0.000 C 
ATOM     13  N   UNL     1       5.839   4.297  17.360  0.00  0.00    +0.000 N 
ATOM     14  C   UNL     1       7.185   4.290  16.781  0.00  0.00    +0.000 C 
ATOM     15  C   UNL     1       7.233   5.109  15.484  0.00  0.00    +0.000 C 
ATOM     16  O   UNL     1       6.235   4.673  14.548  0.00  0.00    +0.000 OA
ATOM     17  C   UNL     1       4.922   4.816  15.110  0.00  0.00    +0.000 C 
ATOM     18  C   UNL     1       4.783   3.988  16.376  0.00  0.00    +0.000 C 
ENDBRANCH   1  12
BRANCH   7  19
ATOM     19  C   UNL     1       0.844   8.659  20.729  0.00  0.00    +0.000 A 
ATOM     20  C   UNL     1       0.391   8.859  22.046  0.00  0.00    +0.000 A 
ATOM     21  C   UNL     1      -0.454   9.930  22.369  0.00  0.00    +0.000 A 
ATOM     22  C   UNL     1      -0.843  10.840  21.390  0.00  0.00    +0.000 A 
ATOM     23  C   UNL     1      -0.385  10.672  20.093  0.00  0.00    +0.000 A 
ATOM     24  C   UNL     1       0.437   9.602  19.765  0.00  0.00    +0.000 A 
BRANCH  23  25
ATOM     25  O   UNL     1      -0.718  11.532  19.089  0.00  0.00    +0.000 OA
ATOM     26  H   UNL     1      -1.653  11.398  18.867  0.00  0.00    +0.000 HD
ENDBRANCH  23  25
ENDBRANCH   7  19
BRANCH   2  27
ATOM     27  O   UNL     1       4.920   1.957  19.707  0.00  0.00    +0.000 OA
ATOM     28  H   UNL     1       5.785   2.155  20.123  0.00  0.00    +0.000 HD
ENDBRANCH   2  27
TORSDOF 4
ENDMDL
MODEL 5
REMARK VINA RESULT:      -8.4      2.133      2.755
REMARK  Name = 
REMARK  4 active torsions:
REMARK  status: ('A' for Active; 'I' for Inactive)
REMARK    1  A    between atoms: C_2  and  C_3
REMARK    2  A    between atoms: C_4  and  O_5
REMARK    3  A    between atoms: C_10  and  C_11
REMARK    4  A    between atoms: C_15  and  O_16
REMARK                            x       y       z     vdW  Elec       q    Type
REMARK                         _______ _______ _______ _____ _____    ______ ____
ROOT
ATOM      1  C   UNL     1       3.113   5.142  18.531  0.00  0.00    +0.000 A 
ATOM      2  C   UNL     1       3.135   4.210  19.582  0.00  0.00    +0.000 A 
ATOM      3  C   UNL     1       2.580   4.514  20.818  0.00  0.00    +0.000 A 
ATOM      4  C   UNL     1       2.024   5.773  21.034  0.00  0.00    +0.000 A 
ATOM      5  C   UNL     1       1.964   6.717  20.002  0.00  0.00    +0.000 A 
ATOM      6  C   UNL     1       1.452   8.014  20.231  0.00  0.00    +0.000 A 
ATOM      7  C   UNL     1       1.408   8.993  19.224  0.00  0.00    +0.000 A 
ATOM      8  C   UNL     1       1.799   8.594  17.942  0.00  0.00    +0.000 A 
ATOM      9  C   UNL     1       2.195   7.287  17.678  0.00  0.00    +0.000 A 
ATOM     10  C   UNL     1       2.424   6.371  18.712  0.00  0.00    +0.000 A 
ENDROOT
BRANCH   1  12
ATOM     11  O   UNL     1       3.412   3.807  16.656  0.00  0.00    +0.000 OA
ATOM     12  C   UNL     1       3.832   4.794  17.268  0.00  0.00    +0.000 C 
ATOM     13  N   UNL     1       4.964   5.497  16.845  0.00  0.00    +0.000 N 
ATOM     14  C   UNL     1       5.482   5.280  15.491  0.00  0.00    +0.000 C 
ATOM     15  C   UNL     1       7.006   5.092  15.507  0.00  0.00    +0.000 C 
ATOM     16  O   UNL     1       7.664   6.179  16.175  0.00  0.00    +0.000 OA
ATOM     17  C   UNL     1       7.220   6.276  17.536  0.00  0.00    +0.000 C 
ATOM     18  C   UNL     1       5.720   6.515  17.599  0.00  0.00    +0.000 C 
ENDBRANCH   1  12
BRANCH   7  19
ATOM     19  C   UNL     1       0.918  10.370  19.460  0.00  0.00    +0.000 A 
ATOM     20  C   UNL     1       1.119  11.048  20.676  0.00  0.00    +0.000 A 
ATOM     21  C   UNL     1       0.600  12.334  20.885  0.00  0.00    +0.000 A 
ATOM     22  C   UNL     1      -0.106  12.981  19.875  0.00  0.00    +0.000 A 
ATOM     23  C   UNL     1      -0.290  12.337  18.662  0.00  0.00    +0.000 A 
ATOM     24  C   UNL     1       0.205  11.055  18.458  0.00  0.00    +0.000 A 
BRANCH  23  25
ATOM     25  O   UNL     1      -0.963  12.917  17.628  0.00  0.00    +0.000 OA
ATOM     26  H   UNL     1      -0.839  12.371  16.836  0.00  0.00    +0.000 HD
ENDBRANCH  23  25
ENDBRANCH   7  19
BRANCH   2  27
ATOM     27  O   UNL     1       3.694   2.962  19.464  0.00  0.00    +0.000 OA
ATOM     28  H   UNL     1       3.381   2.574  18.620  0.00  0.00    +0.000 HD
ENDBRANCH   2  27
TORSDOF 4
ENDMDL
MODEL 6
REMARK VINA RESULT:      -8.4      1.940      2.471
REMARK  Name = 
REMARK  4 active torsions:
REMARK  status: ('A' for Active; 'I' for Inactive)
REMARK    1  A    between atoms: C_2  and  C_3
REMARK    2  A    between atoms: C_4  and  O_5
REMARK    3  A    between atoms: C_10  and  C_11
REMARK    4  A    between atoms: C_15  and  O_16
REMARK                            x       y       z     vdW  Elec       q    Type
REMARK                         _______ _______ _______ _____ _____    ______ ____
ROOT
ATOM      1  C   UNL     1       3.068   4.373  18.625  0.00  0.00    +0.000 A 
ATOM      2  C   UNL     1       3.070   3.397  19.635  0.00  0.00    +0.000 A 
ATOM      3  C   UNL     1       2.567   3.674  20.898  0.00  0.00    +0.000 A 
ATOM      4  C   UNL     1       2.083   4.950  21.183  0.00  0.00    +0.000 A 
ATOM      5  C   UNL     1       2.044   5.940  20.193  0.00  0.00    +0.000 A 
ATOM      6  C   UNL     1       1.608   7.250  20.492  0.00  0.00    +0.000 A 
ATOM      7  C   UNL     1       1.588   8.273  19.528  0.00  0.00    +0.000 A 
ATOM      8  C   UNL     1       1.923   7.910  18.220  0.00  0.00    +0.000 A 
ATOM      9  C   UNL     1       2.242   6.597  17.889  0.00  0.00    +0.000 A 
ATOM     10  C   UNL     1       2.450   5.627  18.877  0.00  0.00    +0.000 A 
ENDROOT
BRANCH   1  12
ATOM     11  O   UNL     1       3.155   3.218  16.614  0.00  0.00    +0.000 OA
ATOM     12  C   UNL     1       3.733   4.043  17.327  0.00  0.00    +0.000 C 
ATOM     13  N   UNL     1       4.976   4.578  16.977  0.00  0.00    +0.000 N 
ATOM     14  C   UNL     1       5.468   4.422  15.606  0.00  0.00    +0.000 C 
ATOM     15  C   UNL     1       6.934   3.968  15.593  0.00  0.00    +0.000 C 
ATOM     16  O   UNL     1       7.763   4.843  16.372  0.00  0.00    +0.000 OA
ATOM     17  C   UNL     1       7.324   4.869  17.738  0.00  0.00    +0.000 C 
ATOM     18  C   UNL     1       5.889   5.359  17.834  0.00  0.00    +0.000 C 
ENDBRANCH   1  12
BRANCH   7  19
ATOM     19  C   UNL     1       1.178   9.662  19.836  0.00  0.00    +0.000 A 
ATOM     20  C   UNL     1       0.742  10.058  21.113  0.00  0.00    +0.000 A 
ATOM     21  C   UNL     1       0.315  11.371  21.360  0.00  0.00    +0.000 A 
ATOM     22  C   UNL     1       0.341  12.322  20.344  0.00  0.00    +0.000 A 
ATOM     23  C   UNL     1       0.793  11.954  19.087  0.00  0.00    +0.000 A 
ATOM     24  C   UNL     1       1.198  10.650  18.833  0.00  0.00    +0.000 A 
BRANCH  23  25
ATOM     25  O   UNL     1       0.854  12.838  18.051  0.00  0.00    +0.000 OA
ATOM     26  H   UNL     1       1.757  13.185  17.995  0.00  0.00    +0.000 HD
ENDBRANCH  23  25
ENDBRANCH   7  19
BRANCH   2  27
ATOM     27  O   UNL     1       3.560   2.128  19.448  0.00  0.00    +0.000 OA
ATOM     28  H   UNL     1       3.793   2.035  18.500  0.00  0.00    +0.000 HD
ENDBRANCH   2  27
TORSDOF 4
ENDMDL
MODEL 7
REMARK VINA RESULT:      -8.2      1.524      1.859
REMARK  Name = 
REMARK  4 active torsions:
REMARK  status: ('A' for Active; 'I' for Inactive)
REMARK    1  A    between atoms: C_2  and  C_3
REMARK    2  A    between atoms: C_4  and  O_5
REMARK    3  A    between atoms: C_10  and  C_11
REMARK    4  A    between atoms: C_15  and  O_16
REMARK                            x       y       z     vdW  Elec       q    Type
REMARK                         _______ _______ _______ _____ _____    ______ ____
ROOT
ATOM      1  C   UNL     1       4.475   4.907  18.979  0.00  0.00    +0.000 A 
ATOM      2  C   UNL     1       4.229   3.735  19.712  0.00  0.00    +0.000 A 
ATOM      3  C   UNL     1       3.095   3.611  20.503  0.00  0.00    +0.000 A 
ATOM      4  C   UNL     1       2.203   4.677  20.601  0.00  0.00    +0.000 A 
ATOM      5  C   UNL     1       2.405   5.851  19.866  0.00  0.00    +0.000 A 
ATOM      6  C   UNL     1       1.534   6.955  20.005  0.00  0.00    +0.000 A 
ATOM      7  C   UNL     1       1.729   8.159  19.304  0.00  0.00    +0.000 A 
ATOM      8  C   UNL     1       2.773   8.182  18.374  0.00  0.00    +0.000 A 
ATOM      9  C   UNL     1       3.565   7.063  18.143  0.00  0.00    +0.000 A 
ATOM     10  C   UNL     1       3.496   5.937  18.973  0.00  0.00    +0.000 A 
ENDROOT
BRANCH   1  12
ATOM     11  O   UNL     1       6.665   5.656  18.811  0.00  0.00    +0.000 OA
ATOM     12  C   UNL     1       5.772   5.018  18.245  0.00  0.00    +0.000 C 
ATOM     13  N   UNL     1       5.940   4.497  16.958  0.00  0.00    +0.000 N 
ATOM     14  C   UNL     1       7.286   4.414  16.385  0.00  0.00    +0.000 C 
ATOM     15  C   UNL     1       7.305   4.940  14.942  0.00  0.00    +0.000 C 
ATOM     16  O   UNL     1       6.324   4.279  14.128  0.00  0.00    +0.000 OA
ATOM     17  C   UNL     1       5.007   4.493  14.656  0.00  0.00    +0.000 C 
ATOM     18  C   UNL     1       4.897   3.949  16.070  0.00  0.00    +0.000 C 
ENDBRANCH   1  12
BRANCH   7  19
ATOM     19  C   UNL     1       0.854   9.340  19.474  0.00  0.00    +0.000 A 
ATOM     20  C   UNL     1       0.604   9.925  20.729  0.00  0.00    +0.000 A 
ATOM     21  C   UNL     1      -0.269  11.014  20.862  0.00  0.00    +0.000 A 
ATOM     22  C   UNL     1      -0.889  11.560  19.742  0.00  0.00    +0.000 A 
ATOM     23  C   UNL     1      -0.634  11.012  18.495  0.00  0.00    +0.000 A 
ATOM     24  C   UNL     1       0.215   9.920  18.361  0.00  0.00    +0.000 A 
BRANCH  23  25
ATOM     25  O   UNL     1      -1.200  11.504  17.357  0.00  0.00    +0.000 OA
ATOM     26  H   UNL     1      -2.159  11.367  17.407  0.00  0.00    +0.000 HD
ENDBRANCH  23  25
ENDBRANCH   7  19
BRANCH   2  27
ATOM     27  O   UNL     1       5.074   2.653  19.699  0.00  0.00    +0.000 OA
ATOM     28  H   UNL     1       5.870   2.891  20.219  0.00  0.00    +0.000 HD
ENDBRANCH   2  27
TORSDOF 4
ENDMDL
MODEL 8
REMARK VINA RESULT:      -8.1      1.871      2.465
REMARK  Name = 
REMARK  4 active torsions:
REMARK  status: ('A' for Active; 'I' for Inactive)
REMARK    1  A    between atoms: C_2  and  C_3
REMARK    2  A    between atoms: C_4  and  O_5
REMARK    3  A    between atoms: C_10  and  C_11
REMARK    4  A    between atoms: C_15  and  O_16
REMARK                            x       y       z     vdW  Elec       q    Type
REMARK                         _______ _______ _______ _____ _____    ______ ____
ROOT
ATOM      1  C   UNL     1       3.111   5.174  18.506  0.00  0.00    +0.000 A 
ATOM      2  C   UNL     1       3.097   4.277  19.587  0.00  0.00    +0.000 A 
ATOM      3  C   UNL     1       2.537   4.636  20.806  0.00  0.00    +0.000 A 
ATOM      4  C   UNL     1       2.013   5.916  20.973  0.00  0.00    +0.000 A 
ATOM      5  C   UNL     1       1.990   6.827  19.910  0.00  0.00    +0.000 A 
ATOM      6  C   UNL     1       1.511   8.144  20.091  0.00  0.00    +0.000 A 
ATOM      7  C   UNL     1       1.506   9.091  19.051  0.00  0.00    +0.000 A 
ATOM      8  C   UNL     1       1.900   8.639  17.788  0.00  0.00    +0.000 A 
ATOM      9  C   UNL     1       2.263   7.314  17.572  0.00  0.00    +0.000 A 
ATOM     10  C   UNL     1       2.455   6.427  18.638  0.00  0.00    +0.000 A 
ENDROOT
BRANCH   1  12
ATOM     11  O   UNL     1       3.421   3.746  16.702  0.00  0.00    +0.000 OA
ATOM     12  C   UNL     1       3.835   4.765  17.263  0.00  0.00    +0.000 C 
ATOM     13  N   UNL     1       4.965   5.451  16.806  0.00  0.00    +0.000 N 
ATOM     14  C   UNL     1       5.487   5.167  15.467  0.00  0.00    +0.000 C 
ATOM     15  C   UNL     1       7.011   4.987  15.495  0.00  0.00    +0.000 C 
ATOM     16  O   UNL     1       7.663   6.110  16.108  0.00  0.00    +0.000 OA
ATOM     17  C   UNL     1       7.215   6.275  17.462  0.00  0.00    +0.000 C 
ATOM     18  C   UNL     1       5.715   6.510  17.509  0.00  0.00    +0.000 C 
ENDBRANCH   1  12
BRANCH   7  19
ATOM     19  C   UNL     1       1.051  10.487  19.237  0.00  0.00    +0.000 A 
ATOM     20  C   UNL     1       1.692  11.581  18.626  0.00  0.00    +0.000 A 
ATOM     21  C   UNL     1       1.266  12.896  18.861  0.00  0.00    +0.000 A 
ATOM     22  C   UNL     1       0.175  13.145  19.689  0.00  0.00    +0.000 A 
ATOM     23  C   UNL     1      -0.484  12.077  20.277  0.00  0.00    +0.000 A 
ATOM     24  C   UNL     1      -0.053  10.774  20.062  0.00  0.00    +0.000 A 
BRANCH  23  25
ATOM     25  O   UNL     1      -1.565  12.250  21.089  0.00  0.00    +0.000 OA
ATOM     26  H   UNL     1      -1.381  11.824  21.940  0.00  0.00    +0.000 HD
ENDBRANCH  23  25
ENDBRANCH   7  19
BRANCH   2  27
ATOM     27  O   UNL     1       3.623   3.011  19.517  0.00  0.00    +0.000 OA
ATOM     28  H   UNL     1       4.458   3.007  20.031  0.00  0.00    +0.000 HD
ENDBRANCH   2  27
TORSDOF 4
ENDMDL
MODEL 9
REMARK VINA RESULT:      -8.1      3.244      8.338
REMARK  Name = 
REMARK  4 active torsions:
REMARK  status: ('A' for Active; 'I' for Inactive)
REMARK    1  A    between atoms: C_2  and  C_3
REMARK    2  A    between atoms: C_4  and  O_5
REMARK    3  A    between atoms: C_10  and  C_11
REMARK    4  A    between atoms: C_15  and  O_16
REMARK                            x       y       z     vdW  Elec       q    Type
REMARK                         _______ _______ _______ _____ _____    ______ ____
ROOT
ATOM      1  C   UNL     1       0.012  10.284  20.115  0.00  0.00    +0.000 A 
ATOM      2  C   UNL     1      -0.269  10.212  21.489  0.00  0.00    +0.000 A 
ATOM      3  C   UNL     1       0.316   9.239  22.288  0.00  0.00    +0.000 A 
ATOM      4  C   UNL     1       1.167   8.296  21.716  0.00  0.00    +0.000 A 
ATOM      5  C   UNL     1       1.487   8.352  20.354  0.00  0.00    +0.000 A 
ATOM      6  C   UNL     1       2.304   7.366  19.758  0.00  0.00    +0.000 A 
ATOM      7  C   UNL     1       2.617   7.378  18.387  0.00  0.00    +0.000 A 
ATOM      8  C   UNL     1       2.167   8.477  17.649  0.00  0.00    +0.000 A 
ATOM      9  C   UNL     1       1.460   9.514  18.248  0.00  0.00    +0.000 A 
ATOM     10  C   UNL     1       0.984   9.408  19.561  0.00  0.00    +0.000 A 
ENDROOT
BRANCH   1  12
ATOM     11  O   UNL     1      -0.582  12.466  19.594  0.00  0.00    +0.000 OA
ATOM     12  C   UNL     1      -0.743  11.279  19.294  0.00  0.00    +0.000 C 
ATOM     13  N   UNL     1      -1.640  10.886  18.296  0.00  0.00    +0.000 N 
ATOM     14  C   UNL     1      -2.165  11.887  17.363  0.00  0.00    +0.000 C 
ATOM     15  C   UNL     1      -3.684  11.745  17.197  0.00  0.00    +0.000 C 
ATOM     16  O   UNL     1      -4.050  10.408  16.824  0.00  0.00    +0.000 OA
ATOM     17  C   UNL     1      -3.629   9.472  17.827  0.00  0.00    +0.000 C 
ATOM     18  C   UNL     1      -2.121   9.521  18.011  0.00  0.00    +0.000 C 
ENDBRANCH   1  12
BRANCH   7  19
ATOM     19  C   UNL     1       3.432   6.326  17.738  0.00  0.00    +0.000 A 
ATOM     20  C   UNL     1       3.085   4.964  17.780  0.00  0.00    +0.000 A 
ATOM     21  C   UNL     1       3.905   3.987  17.196  0.00  0.00    +0.000 A 
ATOM     22  C   UNL     1       5.074   4.353  16.535  0.00  0.00    +0.000 A 
ATOM     23  C   UNL     1       5.417   5.693  16.462  0.00  0.00    +0.000 A 
ATOM     24  C   UNL     1       4.617   6.662  17.056  0.00  0.00    +0.000 A 
BRANCH  23  25
ATOM     25  O   UNL     1       6.542   6.121  15.821  0.00  0.00    +0.000 OA
ATOM     26  H   UNL     1       6.732   5.509  15.094  0.00  0.00    +0.000 HD
ENDBRANCH  23  25
ENDBRANCH   7  19
BRANCH   2  27
ATOM     27  O   UNL     1      -1.122  11.080  22.125  0.00  0.00    +0.000 OA
ATOM     28  H   UNL     1      -2.024  10.921  21.773  0.00  0.00    +0.000 HD
ENDBRANCH   2  27
TORSDOF 4
ENDMDL
