MODEL 1
REMARK VINA RESULT:      -7.7      0.000      0.000
REMARK  Name = 
REMARK  9 active torsions:
REMARK  status: ('A' for Active; 'I' for Inactive)
REMARK    1  A    between atoms: C_1  and  C_2
REMARK    2  A    between atoms: C_2  and  N_3
REMARK    3  A    between atoms: N_3  and  C_4
REMARK    4  A    between atoms: C_4  and  C_5
REMARK    5  A    between atoms: C_6  and  C_8
REMARK    6  A    between atoms: C_10  and  S_11
REMARK    7  A    between atoms: S_11  and  C_14
REMARK    8  A    between atoms: C_19  and  C_20
REMARK    9  A    between atoms: C_30  and  C_31
REMARK                            x       y       z     vdW  Elec       q    Type
REMARK                         _______ _______ _______ _____ _____    ______ ____
ROOT
ATOM      1  C   UNL     1       1.489   9.673  18.826  0.00  0.00    +0.000 C 
ATOM      2  C   UNL     1       1.638   8.415  17.942  0.00  0.00    +0.000 C 
ATOM      3  C   UNL     1       2.514   7.509  18.795  0.00  0.00    +0.000 C 
ATOM      4  C   UNL     1       2.069   7.788  20.226  0.00  0.00    +0.000 C 
ATOM      5  N   UNL     1       1.366   9.073  20.176  0.00  0.00    +0.000 N 
ATOM      6  C   UNL     1       0.649   9.545  21.245  0.00  0.00    +0.000 A 
ATOM      7  C   UNL     1       0.629   8.880  22.465  0.00  0.00    +0.000 A 
ATOM      8  C   UNL     1      -0.121   9.407  23.495  0.00  0.00    +0.000 A 
ATOM      9  N   UNL     1      -0.833  10.533  23.377  0.00  0.00    +0.000 NA
ATOM     10  C   UNL     1      -0.765  11.115  22.166  0.00  0.00    +0.000 A 
ATOM     11  N   UNL     1      -0.046  10.680  21.113  0.00  0.00    +0.000 NA
ENDROOT
BRANCH   1  13
ATOM     12  N   UNL     1       0.473  11.972  18.450  0.00  0.00    +0.000 N 
ATOM     13  C   UNL     1       0.336  10.575  18.313  0.00  0.00    +0.000 C 
ATOM     14  O   UNL     1      -0.652  10.077  17.764  0.00  0.00    +0.000 OA
BRANCH  12  16
ATOM     15  C   UNL     1      -0.612  14.218  18.621  0.00  0.00    +0.000 C 
ATOM     16  C   UNL     1      -0.691  12.794  18.089  0.00  0.00    +0.000 C 
ENDBRANCH  12  16
BRANCH  12  17
ATOM     17  C   UNL     1       1.678  12.583  19.027  0.00  0.00    +0.000 C 
ATOM     18  C   UNL     1       2.785  13.051  18.095  0.00  0.00    +0.000 C 
ENDBRANCH  12  17
ENDBRANCH   1  13
BRANCH   3  19
ATOM     19  S   UNL     1       2.366   5.768  18.485  0.00  0.00    +0.000 S 
ATOM     20  O   UNL     1       2.447   5.051  19.743  0.00  0.00    +0.000 OA
ATOM     21  O   UNL     1       1.201   5.573  17.642  0.00  0.00    +0.000 OA
BRANCH  19  22
ATOM     22  C   UNL     1       3.793   5.266  17.537  0.00  0.00    +0.000 A 
ATOM     23  C   UNL     1       4.535   6.297  16.930  0.00  0.00    +0.000 A 
ATOM     24  C   UNL     1       5.599   6.008  16.077  0.00  0.00    +0.000 A 
ATOM     25  C   UNL     1       5.940   4.686  15.827  0.00  0.00    +0.000 A 
ATOM     26  C   UNL     1       5.210   3.661  16.421  0.00  0.00    +0.000 A 
ATOM     27  C   UNL     1       4.113   3.918  17.277  0.00  0.00    +0.000 A 
BRANCH  27  28
ATOM     28  C   UNL     1       3.396   2.698  17.805  0.00  0.00    +0.000 C 
ATOM     29  F   UNL     1       3.395   2.527  19.148  0.00  0.00    +0.000 F 
ATOM     30  F   UNL     1       2.095   2.645  17.414  0.00  0.00    +0.000 F 
ATOM     31  F   UNL     1       3.972   1.557  17.321  0.00  0.00    +0.000 F 
ENDBRANCH  27  28
ENDBRANCH  19  22
ENDBRANCH   3  19
BRANCH  10  32
ATOM     32  C   UNL     1      -1.496  12.337  21.991  0.00  0.00    +0.000 C 
ATOM     33  N   UNL     1      -2.106  13.322  21.853  0.00  0.00    +0.000 NA
ENDBRANCH  10  32
TORSDOF 7
ENDMDL
MODEL 2
REMARK VINA RESULT:      -6.3      4.645      8.347
REMARK  Name = 
REMARK  9 active torsions:
REMARK  status: ('A' for Active; 'I' for Inactive)
REMARK    1  A    between atoms: C_1  and  C_2
REMARK    2  A    between atoms: C_2  and  N_3
REMARK    3  A    between atoms: N_3  and  C_4
REMARK    4  A    between atoms: C_4  and  C_5
REMARK    5  A    between atoms: C_6  and  C_8
REMARK    6  A    between atoms: C_10  and  S_11
REMARK    7  A    between atoms: S_11  and  C_14
REMARK    8  A    between atoms: C_19  and  C_20
REMARK    9  A    between atoms: C_30  and  C_31
REMARK                            x       y       z     vdW  Elec       q    Type
REMARK                         _______ _______ _______ _____ _____    ______ ____
ROOT
ATOM      1  C   UNL     1       3.432   6.428  17.871  0.00  0.00    +0.000 C 
ATOM      2  C   UNL     1       3.356   7.968  17.964  0.00  0.00    +0.000 C 
ATOM      3  C   UNL     1       1.858   8.224  18.042  0.00  0.00    +0.000 C 
ATOM      4  C   UNL     1       1.315   7.055  18.857  0.00  0.00    +0.000 C 
ATOM      5  N   UNL     1       2.352   6.021  18.801  0.00  0.00    +0.000 N 
ATOM      6  C   UNL     1       2.299   4.903  19.592  0.00  0.00    +0.000 A 
ATOM      7  C   UNL     1       1.211   4.640  20.417  0.00  0.00    +0.000 A 
ATOM      8  C   UNL     1       1.228   3.500  21.192  0.00  0.00    +0.000 A 
ATOM      9  N   UNL     1       2.244   2.630  21.188  0.00  0.00    +0.000 NA
ATOM     10  C   UNL     1       3.258   2.956  20.367  0.00  0.00    +0.000 A 
ATOM     11  N   UNL     1       3.317   4.036  19.564  0.00  0.00    +0.000 NA
ENDROOT
BRANCH   1  13
ATOM     12  N   UNL     1       5.675   5.557  17.054  0.00  0.00    +0.000 N 
ATOM     13  C   UNL     1       4.874   5.928  18.153  0.00  0.00    +0.000 C 
ATOM     14  O   UNL     1       5.312   5.900  19.307  0.00  0.00    +0.000 OA
BRANCH  12  16
ATOM     15  C   UNL     1       7.870   5.835  18.220  0.00  0.00    +0.000 C 
ATOM     16  C   UNL     1       6.981   4.952  17.356  0.00  0.00    +0.000 C 
ENDBRANCH  12  16
BRANCH  12  17
ATOM     17  C   UNL     1       5.196   5.662  15.669  0.00  0.00    +0.000 C 
ATOM     18  C   UNL     1       5.571   4.575  14.675  0.00  0.00    +0.000 C 
ENDBRANCH  12  17
ENDBRANCH   1  13
BRANCH   3  19
ATOM     19  S   UNL     1       1.368   9.738  18.828  0.00  0.00    +0.000 S 
ATOM     20  O   UNL     1       1.341   9.544  20.265  0.00  0.00    +0.000 OA
ATOM     21  O   UNL     1       2.193  10.799  18.280  0.00  0.00    +0.000 OA
BRANCH  19  22
ATOM     22  C   UNL     1      -0.317  10.075  18.343  0.00  0.00    +0.000 A 
ATOM     23  C   UNL     1      -0.775   9.428  17.180  0.00  0.00    +0.000 A 
ATOM     24  C   UNL     1      -2.034   9.708  16.652  0.00  0.00    +0.000 A 
ATOM     25  C   UNL     1      -2.854  10.634  17.285  0.00  0.00    +0.000 A 
ATOM     26  C   UNL     1      -2.407  11.280  18.433  0.00  0.00    +0.000 A 
ATOM     27  C   UNL     1      -1.128  11.033  18.985  0.00  0.00    +0.000 A 
BRANCH  27  28
ATOM     28  C   UNL     1      -0.775  11.848  20.207  0.00  0.00    +0.000 C 
ATOM     29  F   UNL     1      -0.629  11.170  21.369  0.00  0.00    +0.000 F 
ATOM     30  F   UNL     1       0.366  12.570  20.043  0.00  0.00    +0.000 F 
ATOM     31  F   UNL     1      -1.754  12.764  20.471  0.00  0.00    +0.000 F 
ENDBRANCH  27  28
ENDBRANCH  19  22
ENDBRANCH   3  19
BRANCH  10  32
ATOM     32  C   UNL     1       4.366   2.045  20.310  0.00  0.00    +0.000 C 
ATOM     33  N   UNL     1       5.257   1.293  20.273  0.00  0.00    +0.000 NA
ENDBRANCH  10  32
TORSDOF 7
ENDMDL
MODEL 3
REMARK VINA RESULT:      -5.9      4.495      8.135
REMARK  Name = 
REMARK  9 active torsions:
REMARK  status: ('A' for Active; 'I' for Inactive)
REMARK    1  A    between atoms: C_1  and  C_2
REMARK    2  A    between atoms: C_2  and  N_3
REMARK    3  A    between atoms: N_3  and  C_4
REMARK    4  A    between atoms: C_4  and  C_5
REMARK    5  A    between atoms: C_6  and  C_8
REMARK    6  A    between atoms: C_10  and  S_11
REMARK    7  A    between atoms: S_11  and  C_14
REMARK    8  A    between atoms: C_19  and  C_20
REMARK    9  A    between atoms: C_30  and  C_31
REMARK                            x       y       z     vdW  Elec       q    Type
REMARK                         _______ _______ _______ _____ _____    ______ ____
ROOT
ATOM      1  C   UNL     1       3.753   6.137  17.773  0.00  0.00    +0.000 C 
ATOM      2  C   UNL     1       3.573   7.669  17.689  0.00  0.00    +0.000 C 
ATOM      3  C   UNL     1       2.082   7.815  17.421  0.00  0.00    +0.000 C 
ATOM      4  C   UNL     1       1.440   6.685  18.219  0.00  0.00    +0.000 C 
ATOM      5  N   UNL     1       2.520   5.733  18.490  0.00  0.00    +0.000 N 
ATOM      6  C   UNL     1       2.358   4.688  19.363  0.00  0.00    +0.000 A 
ATOM      7  C   UNL     1       1.134   4.416  19.962  0.00  0.00    +0.000 A 
ATOM      8  C   UNL     1       1.045   3.354  20.836  0.00  0.00    +0.000 A 
ATOM      9  N   UNL     1       2.083   2.567  21.137  0.00  0.00    +0.000 NA
ATOM     10  C   UNL     1       3.233   2.896  20.519  0.00  0.00    +0.000 A 
ATOM     11  N   UNL     1       3.405   3.903  19.641  0.00  0.00    +0.000 NA
ENDROOT
BRANCH   1  13
ATOM     12  N   UNL     1       6.183   5.432  17.538  0.00  0.00    +0.000 N 
ATOM     13  C   UNL     1       5.124   5.776  18.403  0.00  0.00    +0.000 C 
ATOM     14  O   UNL     1       5.285   5.831  19.627  0.00  0.00    +0.000 OA
BRANCH  12  16
ATOM     15  C   UNL     1       8.158   6.034  18.950  0.00  0.00    +0.000 C 
ATOM     16  C   UNL     1       7.426   4.956  18.164  0.00  0.00    +0.000 C 
ENDBRANCH  12  16
BRANCH  12  17
ATOM     17  C   UNL     1       6.030   5.441  16.077  0.00  0.00    +0.000 C 
ATOM     18  C   UNL     1       6.316   4.166  15.299  0.00  0.00    +0.000 C 
ENDBRANCH  12  17
ENDBRANCH   1  13
BRANCH   3  19
ATOM     19  S   UNL     1       1.349   9.351  17.926  0.00  0.00    +0.000 S 
ATOM     20  O   UNL     1       2.281  10.432  17.668  0.00  0.00    +0.000 OA
ATOM     21  O   UNL     1       0.024   9.414  17.339  0.00  0.00    +0.000 OA
BRANCH  19  22
ATOM     22  C   UNL     1       1.140   9.291  19.698  0.00  0.00    +0.000 A 
ATOM     23  C   UNL     1       1.741   8.205  20.363  0.00  0.00    +0.000 A 
ATOM     24  C   UNL     1       1.544   8.002  21.728  0.00  0.00    +0.000 A 
ATOM     25  C   UNL     1       0.750   8.886  22.447  0.00  0.00    +0.000 A 
ATOM     26  C   UNL     1       0.149   9.960  21.796  0.00  0.00    +0.000 A 
ATOM     27  C   UNL     1       0.314  10.185  20.409  0.00  0.00    +0.000 A 
BRANCH  27  28
ATOM     28  C   UNL     1      -0.440  11.367  19.845  0.00  0.00    +0.000 C 
ATOM     29  F   UNL     1       0.251  12.194  19.026  0.00  0.00    +0.000 F 
ATOM     30  F   UNL     1      -1.555  10.998  19.160  0.00  0.00    +0.000 F 
ATOM     31  F   UNL     1      -0.880  12.179  20.852  0.00  0.00    +0.000 F 
ENDBRANCH  27  28
ENDBRANCH  19  22
ENDBRANCH   3  19
BRANCH  10  32
ATOM     32  C   UNL     1       4.375   2.072  20.792  0.00  0.00    +0.000 C 
ATOM     33  N   UNL     1       5.309   1.403  20.998  0.00  0.00    +0.000 NA
ENDBRANCH  10  32
TORSDOF 7
ENDMDL
MODEL 4
REMARK VINA RESULT:      -5.9      2.125      3.985
REMARK  Name = 
REMARK  9 active torsions:
REMARK  status: ('A' for Active; 'I' for Inactive)
REMARK    1  A    between atoms: C_1  and  C_2
REMARK    2  A    between atoms: C_2  and  N_3
REMARK    3  A    between atoms: N_3  and  C_4
REMARK    4  A    between atoms: C_4  and  C_5
REMARK    5  A    between atoms: C_6  and  C_8
REMARK    6  A    between atoms: C_10  and  S_11
REMARK    7  A    between atoms: S_11  and  C_14
REMARK    8  A    between atoms: C_19  and  C_20
REMARK    9  A    between atoms: C_30  and  C_31
REMARK                            x       y       z     vdW  Elec       q    Type
REMARK                         _______ _______ _______ _____ _____    ______ ____
ROOT
ATOM      1  C   UNL     1       0.768   9.525  19.732  0.00  0.00    +0.000 C 
ATOM      2  C   UNL     1       1.512   8.176  19.851  0.00  0.00    +0.000 C 
ATOM      3  C   UNL     1       1.969   7.921  18.422  0.00  0.00    +0.000 C 
ATOM      4  C   UNL     1       2.304   9.306  17.877  0.00  0.00    +0.000 C 
ATOM      5  N   UNL     1       1.625  10.252  18.766  0.00  0.00    +0.000 N 
ATOM      6  C   UNL     1       1.867  11.600  18.704  0.00  0.00    +0.000 A 
ATOM      7  C   UNL     1       2.692  12.153  17.731  0.00  0.00    +0.000 A 
ATOM      8  C   UNL     1       2.898  13.516  17.733  0.00  0.00    +0.000 A 
ATOM      9  N   UNL     1       2.339  14.337  18.628  0.00  0.00    +0.000 NA
ATOM     10  C   UNL     1       1.556  13.727  19.537  0.00  0.00    +0.000 A 
ATOM     11  N   UNL     1       1.287  12.408  19.598  0.00  0.00    +0.000 NA
ENDROOT
BRANCH   1  13
ATOM     12  N   UNL     1      -0.619  10.936  21.327  0.00  0.00    +0.000 N 
ATOM     13  C   UNL     1       0.538  10.153  21.132  0.00  0.00    +0.000 C 
ATOM     14  O   UNL     1       1.330   9.935  22.054  0.00  0.00    +0.000 OA
BRANCH  12  16
ATOM     15  C   UNL     1      -2.071  11.396  23.310  0.00  0.00    +0.000 C 
ATOM     16  C   UNL     1      -0.739  11.637  22.614  0.00  0.00    +0.000 C 
ENDBRANCH  12  16
BRANCH  12  17
ATOM     17  C   UNL     1      -1.611  11.138  20.263  0.00  0.00    +0.000 C 
ATOM     18  C   UNL     1      -2.194  12.527  20.054  0.00  0.00    +0.000 C 
ENDBRANCH  12  17
ENDBRANCH   1  13
BRANCH   3  19
ATOM     19  S   UNL     1       3.396   6.881  18.237  0.00  0.00    +0.000 S 
ATOM     20  O   UNL     1       4.097   7.243  17.020  0.00  0.00    +0.000 OA
ATOM     21  O   UNL     1       4.118   6.904  19.495  0.00  0.00    +0.000 OA
BRANCH  19  22
ATOM     22  C   UNL     1       2.815   5.210  17.993  0.00  0.00    +0.000 A 
ATOM     23  C   UNL     1       1.585   4.881  18.593  0.00  0.00    +0.000 A 
ATOM     24  C   UNL     1       1.097   3.576  18.559  0.00  0.00    +0.000 A 
ATOM     25  C   UNL     1       1.829   2.584  17.919  0.00  0.00    +0.000 A 
ATOM     26  C   UNL     1       3.048   2.901  17.326  0.00  0.00    +0.000 A 
ATOM     27  C   UNL     1       3.580   4.211  17.357  0.00  0.00    +0.000 A 
BRANCH  27  28
ATOM     28  C   UNL     1       4.934   4.381  16.708  0.00  0.00    +0.000 C 
ATOM     29  F   UNL     1       4.991   5.189  15.624  0.00  0.00    +0.000 F 
ATOM     30  F   UNL     1       5.876   4.842  17.575  0.00  0.00    +0.000 F 
ATOM     31  F   UNL     1       5.404   3.180  16.260  0.00  0.00    +0.000 F 
ENDBRANCH  27  28
ENDBRANCH  19  22
ENDBRANCH   3  19
BRANCH  10  32
ATOM     32  C   UNL     1       0.916  14.565  20.510  0.00  0.00    +0.000 C 
ATOM     33  N   UNL     1       0.409  15.244  21.311  0.00  0.00    +0.000 NA
ENDBRANCH  10  32
TORSDOF 7
ENDMDL
MODEL 5
REMARK VINA RESULT:      -5.8      4.258      6.724
REMARK  Name = 
REMARK  9 active torsions:
REMARK  status: ('A' for Active; 'I' for Inactive)
REMARK    1  A    between atoms: C_1  and  C_2
REMARK    2  A    between atoms: C_2  and  N_3
REMARK    3  A    between atoms: N_3  and  C_4
REMARK    4  A    between atoms: C_4  and  C_5
REMARK    5  A    between atoms: C_6  and  C_8
REMARK    6  A    between atoms: C_10  and  S_11
REMARK    7  A    between atoms: S_11  and  C_14
REMARK    8  A    between atoms: C_19  and  C_20
REMARK    9  A    between atoms: C_30  and  C_31
REMARK                            x       y       z     vdW  Elec       q    Type
REMARK                         _______ _______ _______ _____ _____    ______ ____
ROOT
ATOM      1  C   UNL     1      -2.619  12.631  21.234  0.00  0.00    +0.000 C 
ATOM      2  C   UNL     1      -1.089  12.837  21.285  0.00  0.00    +0.000 C 
ATOM      3  C   UNL     1      -0.561  11.589  20.594  0.00  0.00    +0.000 C 
ATOM      4  C   UNL     1      -1.585  11.298  19.502  0.00  0.00    +0.000 C 
ATOM      5  N   UNL     1      -2.792  12.032  19.890  0.00  0.00    +0.000 N 
ATOM      6  C   UNL     1      -3.857  12.170  19.037  0.00  0.00    +0.000 A 
ATOM      7  C   UNL     1      -3.891  11.539  17.799  0.00  0.00    +0.000 A 
ATOM      8  C   UNL     1      -4.991  11.729  16.989  0.00  0.00    +0.000 A 
ATOM      9  N   UNL     1      -6.032  12.492  17.338  0.00  0.00    +0.000 NA
ATOM     10  C   UNL     1      -5.922  13.070  18.549  0.00  0.00    +0.000 A 
ATOM     11  N   UNL     1      -4.895  12.926  19.409  0.00  0.00    +0.000 NA
ENDROOT
BRANCH   1  13
ATOM     12  N   UNL     1      -4.393  13.922  22.516  0.00  0.00    +0.000 N 
ATOM     13  C   UNL     1      -3.364  13.954  21.553  0.00  0.00    +0.000 C 
ATOM     14  O   UNL     1      -3.031  15.009  21.003  0.00  0.00    +0.000 OA
BRANCH  12  16
ATOM     15  C   UNL     1      -4.701  16.010  23.857  0.00  0.00    +0.000 C 
ATOM     16  C   UNL     1      -5.179  15.152  22.695  0.00  0.00    +0.000 C 
ENDBRANCH  12  16
BRANCH  12  17
ATOM     17  C   UNL     1      -4.747  12.691  23.237  0.00  0.00    +0.000 C 
ATOM     18  C   UNL     1      -4.205  12.479  24.642  0.00  0.00    +0.000 C 
ENDBRANCH  12  17
ENDBRANCH   1  13
BRANCH   3  19
ATOM     19  S   UNL     1       1.041  11.735  19.843  0.00  0.00    +0.000 S 
ATOM     20  O   UNL     1       0.927  12.504  18.619  0.00  0.00    +0.000 OA
ATOM     21  O   UNL     1       1.963  12.184  20.869  0.00  0.00    +0.000 OA
BRANCH  19  22
ATOM     22  C   UNL     1       1.556  10.098  19.350  0.00  0.00    +0.000 A 
ATOM     23  C   UNL     1       2.011   9.957  18.025  0.00  0.00    +0.000 A 
ATOM     24  C   UNL     1       2.329   8.704  17.506  0.00  0.00    +0.000 A 
ATOM     25  C   UNL     1       2.203   7.576  18.306  0.00  0.00    +0.000 A 
ATOM     26  C   UNL     1       1.751   7.706  19.616  0.00  0.00    +0.000 A 
ATOM     27  C   UNL     1       1.402   8.960  20.169  0.00  0.00    +0.000 A 
BRANCH  27  28
ATOM     28  C   UNL     1       0.886   8.928  21.588  0.00  0.00    +0.000 C 
ATOM     29  F   UNL     1       1.361   9.874  22.431  0.00  0.00    +0.000 F 
ATOM     30  F   UNL     1      -0.470   9.008  21.654  0.00  0.00    +0.000 F 
ATOM     31  F   UNL     1       1.213   7.746  22.190  0.00  0.00    +0.000 F 
ENDBRANCH  27  28
ENDBRANCH  19  22
ENDBRANCH   3  19
BRANCH  10  32
ATOM     32  C   UNL     1      -7.021  13.885  18.980  0.00  0.00    +0.000 C 
ATOM     33  N   UNL     1      -7.905  14.563  19.326  0.00  0.00    +0.000 NA
ENDBRANCH  10  32
TORSDOF 7
ENDMDL
MODEL 6
REMARK VINA RESULT:      -5.5      5.128      7.707
REMARK  Name = 
REMARK  9 active torsions:
REMARK  status: ('A' for Active; 'I' for Inactive)
REMARK    1  A    between atoms: C_1  and  C_2
REMARK    2  A    between atoms: C_2  and  N_3
REMARK    3  A    between atoms: N_3  and  C_4
REMARK    4  A    between atoms: C_4  and  C_5
REMARK    5  A    between atoms: C_6  and  C_8
REMARK    6  A    between atoms: C_10  and  S_11
REMARK    7  A    between atoms: S_11  and  C_14
REMARK    8  A    between atoms: C_19  and  C_20
REMARK    9  A    between atoms: C_30  and  C_31
REMARK                            x       y       z     vdW  Elec       q    Type
REMARK                         _______ _______ _______ _____ _____    ______ ____
ROOT
ATOM      1  C   UNL     1      -3.543  13.428  20.355  0.00  0.00    +0.000 C 
ATOM      2  C   UNL     1      -2.366  12.428  20.336  0.00  0.00    +0.000 C 
ATOM      3  C   UNL     1      -1.176  13.321  20.017  0.00  0.00    +0.000 C 
ATOM      4  C   UNL     1      -1.480  14.631  20.736  0.00  0.00    +0.000 C 
ATOM      5  N   UNL     1      -2.921  14.606  21.004  0.00  0.00    +0.000 N 
ATOM      6  C   UNL     1      -3.518  15.532  21.820  0.00  0.00    +0.000 A 
ATOM      7  C   UNL     1      -2.810  16.601  22.356  0.00  0.00    +0.000 A 
ATOM      8  C   UNL     1      -3.473  17.490  23.176  0.00  0.00    +0.000 A 
ATOM      9  N   UNL     1      -4.770  17.374  23.480  0.00  0.00    +0.000 NA
ATOM     10  C   UNL     1      -5.384  16.313  22.924  0.00  0.00    +0.000 A 
ATOM     11  N   UNL     1      -4.820  15.409  22.101  0.00  0.00    +0.000 NA
ENDROOT
BRANCH   1  13
ATOM     12  N   UNL     1      -6.007  12.805  20.303  0.00  0.00    +0.000 N 
ATOM     13  C   UNL     1      -4.794  12.795  21.022  0.00  0.00    +0.000 C 
ATOM     14  O   UNL     1      -4.710  12.263  22.133  0.00  0.00    +0.000 OA
BRANCH  12  16
ATOM     15  C   UNL     1      -7.568  10.890  20.687  0.00  0.00    +0.000 C 
ATOM     16  C   UNL     1      -7.205  12.332  21.011  0.00  0.00    +0.000 C 
ENDBRANCH  12  16
BRANCH  12  17
ATOM     17  C   UNL     1      -6.104  13.362  18.946  0.00  0.00    +0.000 C 
ATOM     18  C   UNL     1      -6.050  12.417  17.757  0.00  0.00    +0.000 C 
ENDBRANCH  12  17
ENDBRANCH   1  13
BRANCH   3  19
ATOM     19  S   UNL     1       0.407  12.730  20.564  0.00  0.00    +0.000 S 
ATOM     20  O   UNL     1       1.340  12.769  19.454  0.00  0.00    +0.000 OA
ATOM     21  O   UNL     1       0.740  13.443  21.783  0.00  0.00    +0.000 OA
BRANCH  19  22
ATOM     22  C   UNL     1       0.220  11.007  20.993  0.00  0.00    +0.000 A 
ATOM     23  C   UNL     1       0.022  10.720  22.357  0.00  0.00    +0.000 A 
ATOM     24  C   UNL     1      -0.022   9.404  22.814  0.00  0.00    +0.000 A 
ATOM     25  C   UNL     1       0.123   8.358  21.911  0.00  0.00    +0.000 A 
ATOM     26  C   UNL     1       0.322   8.634  20.562  0.00  0.00    +0.000 A 
ATOM     27  C   UNL     1       0.390   9.958  20.068  0.00  0.00    +0.000 A 
BRANCH  27  28
ATOM     28  C   UNL     1       0.656  10.089  18.587  0.00  0.00    +0.000 C 
ATOM     29  F   UNL     1       0.721   8.939  17.875  0.00  0.00    +0.000 F 
ATOM     30  F   UNL     1      -0.259  10.874  17.957  0.00  0.00    +0.000 F 
ATOM     31  F   UNL     1       1.865  10.689  18.368  0.00  0.00    +0.000 F 
ENDBRANCH  27  28
ENDBRANCH  19  22
ENDBRANCH   3  19
BRANCH  10  32
ATOM     32  C   UNL     1      -6.782  16.153  23.203  0.00  0.00    +0.000 C 
ATOM     33  N   UNL     1      -7.917  16.031  23.446  0.00  0.00    +0.000 NA
ENDBRANCH  10  32
TORSDOF 7
ENDMDL
MODEL 7
REMARK VINA RESULT:      -5.5      6.805      8.884
REMARK  Name = 
REMARK  9 active torsions:
REMARK  status: ('A' for Active; 'I' for Inactive)
REMARK    1  A    between atoms: C_1  and  C_2
REMARK    2  A    between atoms: C_2  and  N_3
REMARK    3  A    between atoms: N_3  and  C_4
REMARK    4  A    between atoms: C_4  and  C_5
REMARK    5  A    between atoms: C_6  and  C_8
REMARK    6  A    between atoms: C_10  and  S_11
REMARK    7  A    between atoms: S_11  and  C_14
REMARK    8  A    between atoms: C_19  and  C_20
REMARK    9  A    between atoms: C_30  and  C_31
REMARK                            x       y       z     vdW  Elec       q    Type
REMARK                         _______ _______ _______ _____ _____    ______ ____
ROOT
ATOM      1  C   UNL     1       3.307  14.738  19.615  0.00  0.00    +0.000 C 
ATOM      2  C   UNL     1       4.773  14.768  20.102  0.00  0.00    +0.000 C 
ATOM      3  C   UNL     1       5.556  14.808  18.798  0.00  0.00    +0.000 C 
ATOM      4  C   UNL     1       4.700  15.660  17.867  0.00  0.00    +0.000 C 
ATOM      5  N   UNL     1       3.360  15.663  18.459  0.00  0.00    +0.000 N 
ATOM      6  C   UNL     1       2.372  16.498  18.003  0.00  0.00    +0.000 A 
ATOM      7  C   UNL     1       2.557  17.312  16.892  0.00  0.00    +0.000 A 
ATOM      8  C   UNL     1       1.523  18.133  16.493  0.00  0.00    +0.000 A 
ATOM      9  N   UNL     1       0.345  18.183  17.125  0.00  0.00    +0.000 NA
ATOM     10  C   UNL     1       0.246  17.367  18.191  0.00  0.00    +0.000 A 
ATOM     11  N   UNL     1       1.196  16.524  18.638  0.00  0.00    +0.000 NA
ENDROOT
BRANCH   1  13
ATOM     12  N   UNL     1       1.178  14.271  20.921  0.00  0.00    +0.000 N 
ATOM     13  C   UNL     1       2.333  15.066  20.778  0.00  0.00    +0.000 C 
ATOM     14  O   UNL     1       2.592  15.973  21.575  0.00  0.00    +0.000 OA
BRANCH  12  16
ATOM     15  C   UNL     1      -1.237  14.366  21.564  0.00  0.00    +0.000 C 
ATOM     16  C   UNL     1       0.201  14.691  21.938  0.00  0.00    +0.000 C 
ENDBRANCH  12  16
BRANCH  12  17
ATOM     17  C   UNL     1       0.897  13.137  20.030  0.00  0.00    +0.000 C 
ATOM     18  C   UNL     1       1.126  11.724  20.542  0.00  0.00    +0.000 C 
ENDBRANCH  12  17
ENDBRANCH   1  13
BRANCH   3  19
ATOM     19  S   UNL     1       7.178  15.523  18.888  0.00  0.00    +0.000 S 
ATOM     20  O   UNL     1       7.753  15.571  17.557  0.00  0.00    +0.000 OA
ATOM     21  O   UNL     1       7.070  16.754  19.648  0.00  0.00    +0.000 OA
BRANCH  19  22
ATOM     22  C   UNL     1       8.207  14.409  19.830  0.00  0.00    +0.000 A 
ATOM     23  C   UNL     1       8.497  14.794  21.153  0.00  0.00    +0.000 A 
ATOM     24  C   UNL     1       9.381  14.055  21.938  0.00  0.00    +0.000 A 
ATOM     25  C   UNL     1       9.980  12.918  21.412  0.00  0.00    +0.000 A 
ATOM     26  C   UNL     1       9.701  12.533  20.104  0.00  0.00    +0.000 A 
ATOM     27  C   UNL     1       8.823  13.270  19.275  0.00  0.00    +0.000 A 
BRANCH  27  28
ATOM     28  C   UNL     1       8.661  12.747  17.867  0.00  0.00    +0.000 C 
ATOM     29  F   UNL     1       7.421  12.824  17.329  0.00  0.00    +0.000 F 
ATOM     30  F   UNL     1       9.497  13.354  16.983  0.00  0.00    +0.000 F 
ATOM     31  F   UNL     1       8.970  11.417  17.812  0.00  0.00    +0.000 F 
ENDBRANCH  27  28
ENDBRANCH  19  22
ENDBRANCH   3  19
BRANCH  10  32
ATOM     32  C   UNL     1      -1.005  17.368  18.894  0.00  0.00    +0.000 C 
ATOM     33  N   UNL     1      -2.013  17.375  19.479  0.00  0.00    +0.000 NA
ENDBRANCH  10  32
TORSDOF 7
ENDMDL
MODEL 8
REMARK VINA RESULT:      -5.5      6.343     10.555
REMARK  Name = 
REMARK  9 active torsions:
REMARK  status: ('A' for Active; 'I' for Inactive)
REMARK    1  A    between atoms: C_1  and  C_2
REMARK    2  A    between atoms: C_2  and  N_3
REMARK    3  A    between atoms: N_3  and  C_4
REMARK    4  A    between atoms: C_4  and  C_5
REMARK    5  A    between atoms: C_6  and  C_8
REMARK    6  A    between atoms: C_10  and  S_11
REMARK    7  A    between atoms: S_11  and  C_14
REMARK    8  A    between atoms: C_19  and  C_20
REMARK    9  A    between atoms: C_30  and  C_31
REMARK                            x       y       z     vdW  Elec       q    Type
REMARK                         _______ _______ _______ _____ _____    ______ ____
ROOT
ATOM      1  C   UNL     1      -2.873  12.001  20.400  0.00  0.00    +0.000 C 
ATOM      2  C   UNL     1      -3.373  13.361  20.935  0.00  0.00    +0.000 C 
ATOM      3  C   UNL     1      -3.614  13.072  22.409  0.00  0.00    +0.000 C 
ATOM      4  C   UNL     1      -2.509  12.091  22.789  0.00  0.00    +0.000 C 
ATOM      5  N   UNL     1      -2.026  11.535  21.523  0.00  0.00    +0.000 N 
ATOM      6  C   UNL     1      -0.891  10.767  21.460  0.00  0.00    +0.000 A 
ATOM      7  C   UNL     1      -0.195  10.393  22.603  0.00  0.00    +0.000 A 
ATOM      8  C   UNL     1       0.943   9.627  22.464  0.00  0.00    +0.000 A 
ATOM      9  N   UNL     1       1.412   9.224  21.278  0.00  0.00    +0.000 NA
ATOM     10  C   UNL     1       0.684   9.628  20.221  0.00  0.00    +0.000 A 
ATOM     11  N   UNL     1      -0.446  10.361  20.266  0.00  0.00    +0.000 NA
ENDROOT
BRANCH   1  13
ATOM     12  N   UNL     1      -2.793  11.474  17.915  0.00  0.00    +0.000 N 
ATOM     13  C   UNL     1      -2.219  12.165  19.002  0.00  0.00    +0.000 C 
ATOM     14  O   UNL     1      -1.249  12.913  18.848  0.00  0.00    +0.000 OA
BRANCH  12  16
ATOM     15  C   UNL     1      -2.743  10.728  15.529  0.00  0.00    +0.000 C 
ATOM     16  C   UNL     1      -2.073  11.530  16.635  0.00  0.00    +0.000 C 
ENDBRANCH  12  16
BRANCH  12  17
ATOM     17  C   UNL     1      -3.996  10.644  18.067  0.00  0.00    +0.000 C 
ATOM     18  C   UNL     1      -5.362  11.287  17.890  0.00  0.00    +0.000 C 
ENDBRANCH  12  17
ENDBRANCH   1  13
BRANCH   3  19
ATOM     19  S   UNL     1      -3.529  14.469  23.500  0.00  0.00    +0.000 S 
ATOM     20  O   UNL     1      -3.444  14.002  24.870  0.00  0.00    +0.000 OA
ATOM     21  O   UNL     1      -2.495  15.353  22.996  0.00  0.00    +0.000 OA
BRANCH  19  22
ATOM     22  C   UNL     1      -5.080  15.345  23.374  0.00  0.00    +0.000 A 
ATOM     23  C   UNL     1      -4.998  16.739  23.189  0.00  0.00    +0.000 A 
ATOM     24  C   UNL     1      -6.145  17.531  23.191  0.00  0.00    +0.000 A 
ATOM     25  C   UNL     1      -7.389  16.940  23.370  0.00  0.00    +0.000 A 
ATOM     26  C   UNL     1      -7.478  15.563  23.556  0.00  0.00    +0.000 A 
ATOM     27  C   UNL     1      -6.333  14.732  23.578  0.00  0.00    +0.000 A 
BRANCH  27  28
ATOM     28  C   UNL     1      -6.594  13.267  23.835  0.00  0.00    +0.000 C 
ATOM     29  F   UNL     1      -5.759  12.643  24.699  0.00  0.00    +0.000 F 
ATOM     30  F   UNL     1      -7.854  13.031  24.288  0.00  0.00    +0.000 F 
ATOM     31  F   UNL     1      -6.480  12.550  22.678  0.00  0.00    +0.000 F 
ENDBRANCH  27  28
ENDBRANCH  19  22
ENDBRANCH   3  19
BRANCH  10  32
ATOM     32  C   UNL     1       1.133   9.207  18.925  0.00  0.00    +0.000 C 
ATOM     33  N   UNL     1       1.484   8.853  17.871  0.00  0.00    +0.000 NA
ENDBRANCH  10  32
TORSDOF 7
ENDMDL
MODEL 9
REMARK VINA RESULT:      -5.5      6.619      8.792
REMARK  Name = 
REMARK  9 active torsions:
REMARK  status: ('A' for Active; 'I' for Inactive)
REMARK    1  A    between atoms: C_1  and  C_2
REMARK    2  A    between atoms: C_2  and  N_3
REMARK    3  A    between atoms: N_3  and  C_4
REMARK    4  A    between atoms: C_4  and  C_5
REMARK    5  A    between atoms: C_6  and  C_8
REMARK    6  A    between atoms: C_10  and  S_11
REMARK    7  A    between atoms: S_11  and  C_14
REMARK    8  A    between atoms: C_19  and  C_20
REMARK    9  A    between atoms: C_30  and  C_31
REMARK                            x       y       z     vdW  Elec       q    Type
REMARK                         _______ _______ _______ _____ _____    ______ ____
ROOT
ATOM      1  C   UNL     1      -2.016  12.746  21.178  0.00  0.00    +0.000 C 
ATOM      2  C   UNL     1      -0.654  13.465  21.299  0.00  0.00    +0.000 C 
ATOM      3  C   UNL     1       0.303  12.480  20.645  0.00  0.00    +0.000 C 
ATOM      4  C   UNL     1      -0.505  11.862  19.509  0.00  0.00    +0.000 C 
ATOM      5  N   UNL     1      -1.908  12.133  19.833  0.00  0.00    +0.000 N 
ATOM      6  C   UNL     1      -2.914  11.902  18.930  0.00  0.00    +0.000 A 
ATOM      7  C   UNL     1      -2.671  11.306  17.698  0.00  0.00    +0.000 A 
ATOM      8  C   UNL     1      -3.728  11.111  16.836  0.00  0.00    +0.000 A 
ATOM      9  N   UNL     1      -4.984  11.467  17.128  0.00  0.00    +0.000 NA
ATOM     10  C   UNL     1      -5.137  12.038  18.337  0.00  0.00    +0.000 A 
ATOM     11  N   UNL     1      -4.166  12.251  19.246  0.00  0.00    +0.000 NA
ENDROOT
BRANCH   1  13
ATOM     12  N   UNL     1      -3.982  13.515  22.593  0.00  0.00    +0.000 N 
ATOM     13  C   UNL     1      -3.186  13.729  21.449  0.00  0.00    +0.000 C 
ATOM     14  O   UNL     1      -3.380  14.692  20.700  0.00  0.00    +0.000 OA
BRANCH  12  16
ATOM     15  C   UNL     1      -6.438  13.750  22.184  0.00  0.00    +0.000 C 
ATOM     16  C   UNL     1      -5.168  14.370  22.748  0.00  0.00    +0.000 C 
ENDBRANCH  12  16
BRANCH  12  17
ATOM     17  C   UNL     1      -3.713  12.421  23.536  0.00  0.00    +0.000 C 
ATOM     18  C   UNL     1      -4.475  12.378  24.851  0.00  0.00    +0.000 C 
ENDBRANCH  12  17
ENDBRANCH   1  13
BRANCH   3  19
ATOM     19  S   UNL     1       1.790  13.174  19.969  0.00  0.00    +0.000 S 
ATOM     20  O   UNL     1       2.741  13.401  21.040  0.00  0.00    +0.000 OA
ATOM     21  O   UNL     1       2.186  12.345  18.846  0.00  0.00    +0.000 OA
BRANCH  19  22
ATOM     22  C   UNL     1       1.385  14.786  19.318  0.00  0.00    +0.000 A 
ATOM     23  C   UNL     1       0.017  15.115  19.269  0.00  0.00    +0.000 A 
ATOM     24  C   UNL     1      -0.415  16.301  18.676  0.00  0.00    +0.000 A 
ATOM     25  C   UNL     1       0.516  17.176  18.132  0.00  0.00    +0.000 A 
ATOM     26  C   UNL     1       1.870  16.856  18.173  0.00  0.00    +0.000 A 
ATOM     27  C   UNL     1       2.341  15.653  18.751  0.00  0.00    +0.000 A 
BRANCH  27  28
ATOM     28  C   UNL     1       3.833  15.433  18.677  0.00  0.00    +0.000 C 
ATOM     29  F   UNL     1       4.488  15.296  19.854  0.00  0.00    +0.000 F 
ATOM     30  F   UNL     1       4.166  14.347  17.929  0.00  0.00    +0.000 F 
ATOM     31  F   UNL     1       4.445  16.496  18.073  0.00  0.00    +0.000 F 
ENDBRANCH  27  28
ENDBRANCH  19  22
ENDBRANCH   3  19
BRANCH  10  32
ATOM     32  C   UNL     1      -6.469  12.423  18.709  0.00  0.00    +0.000 C 
ATOM     33  N   UNL     1      -7.549  12.727  19.026  0.00  0.00    +0.000 NA
ENDBRANCH  10  32
TORSDOF 7
ENDMDL
