MODEL 1
REMARK VINA RESULT:      -7.4      0.000      0.000
REMARK  Name = 
REMARK  8 active torsions:
REMARK  status: ('A' for Active; 'I' for Inactive)
REMARK    1  A    between atoms: C_1  and  C_2
REMARK    2  A    between atoms: C_2  and  O_3
REMARK    3  A    between atoms: O_3  and  C_4
REMARK    4  A    between atoms: C_4  and  C_6
REMARK    5  A    between atoms: C_7  and  N_8
REMARK    6  A    between atoms: C_9  and  C_11
REMARK    7  A    between atoms: C_14  and  O_15
REMARK    8  A    between atoms: O_15  and  C_16
REMARK                            x       y       z     vdW  Elec       q    Type
REMARK                         _______ _______ _______ _____ _____    ______ ____
ROOT
ATOM      1  C   UNL     1       3.001   5.345  17.963  0.00  0.00    +0.000 A 
ATOM      2  C   UNL     1       3.189   6.653  18.407  0.00  0.00    +0.000 A 
ATOM      3  S   UNL     1       4.543   7.385  17.689  0.00  0.00    +0.000 S 
ATOM      4  C   UNL     1       4.932   5.999  16.807  0.00  0.00    +0.000 A 
ATOM      5  C   UNL     1       4.048   4.960  17.027  0.00  0.00    +0.000 A 
ATOM      6  C   UNL     1       4.232   3.638  16.327  0.00  0.00    +0.000 C 
ATOM      7  C   UNL     1       5.649   3.475  15.751  0.00  0.00    +0.000 C 
ATOM      8  C   UNL     1       6.107   4.732  15.008  0.00  0.00    +0.000 C 
ATOM      9  C   UNL     1       6.149   5.951  15.937  0.00  0.00    +0.000 C 
ENDROOT
BRANCH   2  10
ATOM     10  N   UNL     1       2.416   7.342  19.345  0.00  0.00    +0.000 N 
ATOM     11  C   UNL     1       1.649   8.475  19.105  0.00  0.00    +0.000 C 
ATOM     12  O   UNL     1       1.477   9.033  18.027  0.00  0.00    +0.000 OA
ATOM     13  H   UNL     1       2.515   7.009  20.301  0.00  0.00    +0.000 HD
BRANCH  11  14
ATOM     14  C   UNL     1       0.996   9.103  20.291  0.00  0.00    +0.000 A 
ATOM     15  C   UNL     1       0.183  10.222  20.057  0.00  0.00    +0.000 A 
ATOM     16  C   UNL     1      -0.473  10.859  21.110  0.00  0.00    +0.000 A 
ATOM     17  C   UNL     1      -0.352  10.373  22.411  0.00  0.00    +0.000 A 
ATOM     18  C   UNL     1       0.446   9.252  22.654  0.00  0.00    +0.000 A 
ATOM     19  C   UNL     1       1.120   8.615  21.598  0.00  0.00    +0.000 A 
BRANCH  17  20
ATOM     20  O   UNL     1      -1.022  11.098  23.356  0.00  0.00    +0.000 OA
ATOM     21  C   UNL     1      -2.093  11.908  22.887  0.00  0.00    +0.000 C 
ENDBRANCH  17  20
ENDBRANCH  11  14
ENDBRANCH   2  10
BRANCH   1  22
ATOM     22  C   UNL     1       1.906   4.511  18.463  0.00  0.00    +0.000 C 
ATOM     23  O   UNL     1       1.115   3.930  17.726  0.00  0.00    +0.000 OA
BRANCH  22  24
ATOM     24  O   UNL     1       1.815   4.518  19.823  0.00  0.00    +0.000 OA
BRANCH  24  26
ATOM     25  C   UNL     1       1.887   3.001  21.673  0.00  0.00    +0.000 C 
ATOM     26  C   UNL     1       1.129   3.412  20.421  0.00  0.00    +0.000 C 
ENDBRANCH  24  26
ENDBRANCH  22  24
ENDBRANCH   1  22
TORSDOF 6
ENDMDL
MODEL 2
REMARK VINA RESULT:      -7.4      0.363      1.029
REMARK  Name = 
REMARK  8 active torsions:
REMARK  status: ('A' for Active; 'I' for Inactive)
REMARK    1  A    between atoms: C_1  and  C_2
REMARK    2  A    between atoms: C_2  and  O_3
REMARK    3  A    between atoms: O_3  and  C_4
REMARK    4  A    between atoms: C_4  and  C_6
REMARK    5  A    between atoms: C_7  and  N_8
REMARK    6  A    between atoms: C_9  and  C_11
REMARK    7  A    between atoms: C_14  and  O_15
REMARK    8  A    between atoms: O_15  and  C_16
REMARK                            x       y       z     vdW  Elec       q    Type
REMARK                         _______ _______ _______ _____ _____    ______ ____
ROOT
ATOM      1  C   UNL     1       3.086   5.344  17.790  0.00  0.00    +0.000 A 
ATOM      2  C   UNL     1       3.267   6.643  18.265  0.00  0.00    +0.000 A 
ATOM      3  S   UNL     1       4.706   7.339  17.691  0.00  0.00    +0.000 S 
ATOM      4  C   UNL     1       5.140   5.949  16.838  0.00  0.00    +0.000 A 
ATOM      5  C   UNL     1       4.209   4.936  16.958  0.00  0.00    +0.000 A 
ATOM      6  C   UNL     1       4.423   3.614  16.266  0.00  0.00    +0.000 C 
ATOM      7  C   UNL     1       5.884   3.413  15.831  0.00  0.00    +0.000 C 
ATOM      8  C   UNL     1       6.450   4.662  15.151  0.00  0.00    +0.000 C 
ATOM      9  C   UNL     1       6.435   5.872  16.092  0.00  0.00    +0.000 C 
ENDROOT
BRANCH   2  10
ATOM     10  N   UNL     1       2.425   7.347  19.129  0.00  0.00    +0.000 N 
ATOM     11  C   UNL     1       1.748   8.525  18.838  0.00  0.00    +0.000 C 
ATOM     12  O   UNL     1       1.730   9.119  17.765  0.00  0.00    +0.000 OA
ATOM     13  H   UNL     1       2.396   6.986  20.079  0.00  0.00    +0.000 HD
BRANCH  11  14
ATOM     14  C   UNL     1       0.993   9.156  19.960  0.00  0.00    +0.000 A 
ATOM     15  C   UNL     1       1.255   8.682  21.255  0.00  0.00    +0.000 A 
ATOM     16  C   UNL     1       0.601   9.228  22.359  0.00  0.00    +0.000 A 
ATOM     17  C   UNL     1      -0.305  10.275  22.194  0.00  0.00    +0.000 A 
ATOM     18  C   UNL     1      -0.565  10.762  20.910  0.00  0.00    +0.000 A 
ATOM     19  C   UNL     1       0.082  10.206  19.793  0.00  0.00    +0.000 A 
BRANCH  17  20
ATOM     20  O   UNL     1      -0.897  10.705  23.348  0.00  0.00    +0.000 OA
ATOM     21  C   UNL     1      -1.870  11.733  23.211  0.00  0.00    +0.000 C 
ENDBRANCH  17  20
ENDBRANCH  11  14
ENDBRANCH   2  10
BRANCH   1  22
ATOM     22  C   UNL     1       1.923   4.540  18.172  0.00  0.00    +0.000 C 
ATOM     23  O   UNL     1       1.111   4.108  17.358  0.00  0.00    +0.000 OA
BRANCH  22  24
ATOM     24  O   UNL     1       1.801   4.394  19.521  0.00  0.00    +0.000 OA
BRANCH  24  26
ATOM     25  C   UNL     1       2.094   3.184  21.564  0.00  0.00    +0.000 C 
ATOM     26  C   UNL     1       2.072   3.090  20.047  0.00  0.00    +0.000 C 
ENDBRANCH  24  26
ENDBRANCH  22  24
ENDBRANCH   1  22
TORSDOF 6
ENDMDL
MODEL 3
REMARK VINA RESULT:      -7.1      0.853      1.134
REMARK  Name = 
REMARK  8 active torsions:
REMARK  status: ('A' for Active; 'I' for Inactive)
REMARK    1  A    between atoms: C_1  and  C_2
REMARK    2  A    between atoms: C_2  and  O_3
REMARK    3  A    between atoms: O_3  and  C_4
REMARK    4  A    between atoms: C_4  and  C_6
REMARK    5  A    between atoms: C_7  and  N_8
REMARK    6  A    between atoms: C_9  and  C_11
REMARK    7  A    between atoms: C_14  and  O_15
REMARK    8  A    between atoms: O_15  and  C_16
REMARK                            x       y       z     vdW  Elec       q    Type
REMARK                         _______ _______ _______ _____ _____    ______ ____
ROOT
ATOM      1  C   UNL     1       3.226   5.464  18.637  0.00  0.00    +0.000 A 
ATOM      2  C   UNL     1       2.974   6.835  18.624  0.00  0.00    +0.000 A 
ATOM      3  S   UNL     1       3.743   7.616  17.325  0.00  0.00    +0.000 S 
ATOM      4  C   UNL     1       4.447   6.185  16.771  0.00  0.00    +0.000 A 
ATOM      5  C   UNL     1       4.113   5.090  17.544  0.00  0.00    +0.000 A 
ATOM      6  C   UNL     1       4.649   3.723  17.204  0.00  0.00    +0.000 C 
ATOM      7  C   UNL     1       5.856   3.787  16.254  0.00  0.00    +0.000 C 
ATOM      8  C   UNL     1       5.611   4.754  15.092  0.00  0.00    +0.000 C 
ATOM      9  C   UNL     1       5.368   6.183  15.591  0.00  0.00    +0.000 C 
ENDROOT
BRANCH   2  10
ATOM     10  N   UNL     1       2.213   7.559  19.545  0.00  0.00    +0.000 N 
ATOM     11  C   UNL     1       1.408   8.656  19.265  0.00  0.00    +0.000 C 
ATOM     12  O   UNL     1       1.187   9.144  18.162  0.00  0.00    +0.000 OA
ATOM     13  H   UNL     1       2.352   7.287  20.515  0.00  0.00    +0.000 HD
BRANCH  11  14
ATOM     14  C   UNL     1       0.776   9.337  20.433  0.00  0.00    +0.000 A 
ATOM     15  C   UNL     1       0.337  10.656  20.245  0.00  0.00    +0.000 A 
ATOM     16  C   UNL     1      -0.275  11.358  21.283  0.00  0.00    +0.000 A 
ATOM     17  C   UNL     1      -0.485  10.746  22.518  0.00  0.00    +0.000 A 
ATOM     18  C   UNL     1      -0.062   9.429  22.713  0.00  0.00    +0.000 A 
ATOM     19  C   UNL     1       0.568   8.722  21.674  0.00  0.00    +0.000 A 
BRANCH  17  20
ATOM     20  O   UNL     1      -1.070  11.546  23.459  0.00  0.00    +0.000 OA
ATOM     21  C   UNL     1      -2.420  11.922  23.215  0.00  0.00    +0.000 C 
ENDBRANCH  17  20
ENDBRANCH  11  14
ENDBRANCH   2  10
BRANCH   1  22
ATOM     22  C   UNL     1       2.683   4.590  19.679  0.00  0.00    +0.000 C 
ATOM     23  O   UNL     1       3.390   3.923  20.430  0.00  0.00    +0.000 OA
BRANCH  22  24
ATOM     24  O   UNL     1       1.321   4.540  19.669  0.00  0.00    +0.000 OA
BRANCH  24  26
ATOM     25  C   UNL     1       0.957   2.390  18.684  0.00  0.00    +0.000 C 
ATOM     26  C   UNL     1       0.730   3.258  19.911  0.00  0.00    +0.000 C 
ENDBRANCH  24  26
ENDBRANCH  22  24
ENDBRANCH   1  22
TORSDOF 6
ENDMDL
MODEL 4
REMARK VINA RESULT:      -7.0      0.863      1.441
REMARK  Name = 
REMARK  8 active torsions:
REMARK  status: ('A' for Active; 'I' for Inactive)
REMARK    1  A    between atoms: C_1  and  C_2
REMARK    2  A    between atoms: C_2  and  O_3
REMARK    3  A    between atoms: O_3  and  C_4
REMARK    4  A    between atoms: C_4  and  C_6
REMARK    5  A    between atoms: C_7  and  N_8
REMARK    6  A    between atoms: C_9  and  C_11
REMARK    7  A    between atoms: C_14  and  O_15
REMARK    8  A    between atoms: O_15  and  C_16
REMARK                            x       y       z     vdW  Elec       q    Type
REMARK                         _______ _______ _______ _____ _____    ______ ____
ROOT
ATOM      1  C   UNL     1       2.856   5.567  18.282  0.00  0.00    +0.000 A 
ATOM      2  C   UNL     1       2.901   6.954  18.413  0.00  0.00    +0.000 A 
ATOM      3  S   UNL     1       4.077   7.654  17.406  0.00  0.00    +0.000 S 
ATOM      4  C   UNL     1       4.574   6.158  16.802  0.00  0.00    +0.000 A 
ATOM      5  C   UNL     1       3.862   5.103  17.337  0.00  0.00    +0.000 A 
ATOM      6  C   UNL     1       4.164   3.686  16.919  0.00  0.00    +0.000 C 
ATOM      7  C   UNL     1       5.535   3.560  16.234  0.00  0.00    +0.000 C 
ATOM      8  C   UNL     1       5.753   4.661  15.193  0.00  0.00    +0.000 C 
ATOM      9  C   UNL     1       5.708   6.055  15.830  0.00  0.00    +0.000 C 
ENDROOT
BRANCH   2  10
ATOM     10  N   UNL     1       2.124   7.744  19.264  0.00  0.00    +0.000 N 
ATOM     11  C   UNL     1       1.389   8.866  18.901  0.00  0.00    +0.000 C 
ATOM     12  O   UNL     1       1.254   9.324  17.771  0.00  0.00    +0.000 OA
ATOM     13  H   UNL     1       2.195   7.501  20.249  0.00  0.00    +0.000 HD
BRANCH  11  14
ATOM     14  C   UNL     1       0.725   9.616  20.007  0.00  0.00    +0.000 A 
ATOM     15  C   UNL     1       0.752   9.033  21.283  0.00  0.00    +0.000 A 
ATOM     16  C   UNL     1       0.166   9.676  22.373  0.00  0.00    +0.000 A 
ATOM     17  C   UNL     1      -0.433  10.924  22.214  0.00  0.00    +0.000 A 
ATOM     18  C   UNL     1      -0.456  11.520  20.950  0.00  0.00    +0.000 A 
ATOM     19  C   UNL     1       0.122  10.869  19.846  0.00  0.00    +0.000 A 
BRANCH  17  20
ATOM     20  O   UNL     1      -0.993  11.438  23.350  0.00  0.00    +0.000 OA
ATOM     21  C   UNL     1      -1.593  12.722  23.231  0.00  0.00    +0.000 C 
ENDBRANCH  17  20
ENDBRANCH  11  14
ENDBRANCH   2  10
BRANCH   1  22
ATOM     22  C   UNL     1       1.931   4.748  19.070  0.00  0.00    +0.000 C 
ATOM     23  O   UNL     1       1.862   4.806  20.294  0.00  0.00    +0.000 OA
BRANCH  22  24
ATOM     24  O   UNL     1       1.223   3.869  18.307  0.00  0.00    +0.000 OA
BRANCH  24  26
ATOM     25  C   UNL     1       2.031   1.751  19.071  0.00  0.00    +0.000 C 
ATOM     26  C   UNL     1       0.815   2.655  18.948  0.00  0.00    +0.000 C 
ENDBRANCH  24  26
ENDBRANCH  22  24
ENDBRANCH   1  22
TORSDOF 6
ENDMDL
MODEL 5
REMARK VINA RESULT:      -6.9      2.109      8.313
REMARK  Name = 
REMARK  8 active torsions:
REMARK  status: ('A' for Active; 'I' for Inactive)
REMARK    1  A    between atoms: C_1  and  C_2
REMARK    2  A    between atoms: C_2  and  O_3
REMARK    3  A    between atoms: O_3  and  C_4
REMARK    4  A    between atoms: C_4  and  C_6
REMARK    5  A    between atoms: C_7  and  N_8
REMARK    6  A    between atoms: C_9  and  C_11
REMARK    7  A    between atoms: C_14  and  O_15
REMARK    8  A    between atoms: O_15  and  C_16
REMARK                            x       y       z     vdW  Elec       q    Type
REMARK                         _______ _______ _______ _____ _____    ______ ____
ROOT
ATOM      1  C   UNL     1       0.894   9.494  19.527  0.00  0.00    +0.000 A 
ATOM      2  C   UNL     1       1.628   8.345  19.821  0.00  0.00    +0.000 A 
ATOM      3  S   UNL     1       1.494   7.900  21.455  0.00  0.00    +0.000 S 
ATOM      4  C   UNL     1       0.500   9.215  21.821  0.00  0.00    +0.000 A 
ATOM      5  C   UNL     1       0.242  10.011  20.722  0.00  0.00    +0.000 A 
ATOM      6  C   UNL     1      -0.628  11.236  20.853  0.00  0.00    +0.000 C 
ATOM      7  C   UNL     1      -0.792  11.682  22.315  0.00  0.00    +0.000 C 
ATOM      8  C   UNL     1      -1.101  10.500  23.237  0.00  0.00    +0.000 C 
ATOM      9  C   UNL     1       0.027   9.462  23.219  0.00  0.00    +0.000 C 
ENDROOT
BRANCH   2  10
ATOM     10  N   UNL     1       2.423   7.607  18.941  0.00  0.00    +0.000 N 
ATOM     11  C   UNL     1       2.524   6.222  18.889  0.00  0.00    +0.000 C 
ATOM     12  O   UNL     1       1.900   5.412  19.567  0.00  0.00    +0.000 OA
ATOM     13  H   UNL     1       3.038   8.167  18.356  0.00  0.00    +0.000 HD
BRANCH  11  14
ATOM     14  C   UNL     1       3.526   5.661  17.936  0.00  0.00    +0.000 A 
ATOM     15  C   UNL     1       3.548   4.267  17.777  0.00  0.00    +0.000 A 
ATOM     16  C   UNL     1       4.445   3.665  16.895  0.00  0.00    +0.000 A 
ATOM     17  C   UNL     1       5.317   4.444  16.137  0.00  0.00    +0.000 A 
ATOM     18  C   UNL     1       5.296   5.834  16.279  0.00  0.00    +0.000 A 
ATOM     19  C   UNL     1       4.403   6.445  17.177  0.00  0.00    +0.000 A 
BRANCH  17  20
ATOM     20  O   UNL     1       6.163   3.736  15.331  0.00  0.00    +0.000 OA
ATOM     21  C   UNL     1       6.079   4.007  13.937  0.00  0.00    +0.000 C 
ENDBRANCH  17  20
ENDBRANCH  11  14
ENDBRANCH   2  10
BRANCH   1  22
ATOM     22  C   UNL     1       0.879  10.076  18.184  0.00  0.00    +0.000 C 
ATOM     23  O   UNL     1       1.867  10.107  17.456  0.00  0.00    +0.000 OA
BRANCH  22  24
ATOM     24  O   UNL     1      -0.319  10.643  17.867  0.00  0.00    +0.000 OA
BRANCH  24  26
ATOM     25  C   UNL     1      -2.682  10.464  17.532  0.00  0.00    +0.000 C 
ATOM     26  C   UNL     1      -1.344   9.753  17.409  0.00  0.00    +0.000 C 
ENDBRANCH  24  26
ENDBRANCH  22  24
ENDBRANCH   1  22
TORSDOF 6
ENDMDL
MODEL 6
REMARK VINA RESULT:      -6.9      2.139      8.285
REMARK  Name = 
REMARK  8 active torsions:
REMARK  status: ('A' for Active; 'I' for Inactive)
REMARK    1  A    between atoms: C_1  and  C_2
REMARK    2  A    between atoms: C_2  and  O_3
REMARK    3  A    between atoms: O_3  and  C_4
REMARK    4  A    between atoms: C_4  and  C_6
REMARK    5  A    between atoms: C_7  and  N_8
REMARK    6  A    between atoms: C_9  and  C_11
REMARK    7  A    between atoms: C_14  and  O_15
REMARK    8  A    between atoms: O_15  and  C_16
REMARK                            x       y       z     vdW  Elec       q    Type
REMARK                         _______ _______ _______ _____ _____    ______ ____
ROOT
ATOM      1  C   UNL     1       0.875   9.560  19.501  0.00  0.00    +0.000 A 
ATOM      2  C   UNL     1       1.621   8.411  19.761  0.00  0.00    +0.000 A 
ATOM      3  S   UNL     1       1.511   7.931  21.387  0.00  0.00    +0.000 S 
ATOM      4  C   UNL     1       0.512   9.230  21.793  0.00  0.00    +0.000 A 
ATOM      5  C   UNL     1       0.234  10.047  20.714  0.00  0.00    +0.000 A 
ATOM      6  C   UNL     1      -0.642  11.262  20.881  0.00  0.00    +0.000 C 
ATOM      7  C   UNL     1      -0.791  11.677  22.354  0.00  0.00    +0.000 C 
ATOM      8  C   UNL     1      -1.080  10.473  23.255  0.00  0.00    +0.000 C 
ATOM      9  C   UNL     1       0.055   9.444  23.202  0.00  0.00    +0.000 C 
ENDROOT
BRANCH   2  10
ATOM     10  N   UNL     1       2.410   7.697  18.856  0.00  0.00    +0.000 N 
ATOM     11  C   UNL     1       2.550   6.316  18.799  0.00  0.00    +0.000 C 
ATOM     12  O   UNL     1       1.971   5.488  19.493  0.00  0.00    +0.000 OA
ATOM     13  H   UNL     1       2.991   8.275  18.253  0.00  0.00    +0.000 HD
BRANCH  11  14
ATOM     14  C   UNL     1       3.538   5.785  17.814  0.00  0.00    +0.000 A 
ATOM     15  C   UNL     1       4.393   6.714  17.201  0.00  0.00    +0.000 A 
ATOM     16  C   UNL     1       5.354   6.297  16.279  0.00  0.00    +0.000 A 
ATOM     17  C   UNL     1       5.496   4.945  15.974  0.00  0.00    +0.000 A 
ATOM     18  C   UNL     1       4.657   4.010  16.587  0.00  0.00    +0.000 A 
ATOM     19  C   UNL     1       3.678   4.426  17.507  0.00  0.00    +0.000 A 
BRANCH  17  20
ATOM     20  O   UNL     1       6.453   4.667  15.039  0.00  0.00    +0.000 OA
ATOM     21  C   UNL     1       6.014   3.984  13.871  0.00  0.00    +0.000 C 
ENDBRANCH  17  20
ENDBRANCH  11  14
ENDBRANCH   2  10
BRANCH   1  22
ATOM     22  C   UNL     1       0.839  10.169  18.170  0.00  0.00    +0.000 C 
ATOM     23  O   UNL     1       1.824  10.245  17.440  0.00  0.00    +0.000 OA
BRANCH  22  24
ATOM     24  O   UNL     1      -0.376  10.708  17.868  0.00  0.00    +0.000 OA
BRANCH  24  26
ATOM     25  C   UNL     1      -2.426  10.555  16.645  0.00  0.00    +0.000 C 
ATOM     26  C   UNL     1      -1.396   9.790  17.459  0.00  0.00    +0.000 C 
ENDBRANCH  24  26
ENDBRANCH  22  24
ENDBRANCH   1  22
TORSDOF 6
ENDMDL
MODEL 7
REMARK VINA RESULT:      -6.8      2.222      8.349
REMARK  Name = 
REMARK  8 active torsions:
REMARK  status: ('A' for Active; 'I' for Inactive)
REMARK    1  A    between atoms: C_1  and  C_2
REMARK    2  A    between atoms: C_2  and  O_3
REMARK    3  A    between atoms: O_3  and  C_4
REMARK    4  A    between atoms: C_4  and  C_6
REMARK    5  A    between atoms: C_7  and  N_8
REMARK    6  A    between atoms: C_9  and  C_11
REMARK    7  A    between atoms: C_14  and  O_15
REMARK    8  A    between atoms: O_15  and  C_16
REMARK                            x       y       z     vdW  Elec       q    Type
REMARK                         _______ _______ _______ _____ _____    ______ ____
ROOT
ATOM      1  C   UNL     1       0.723   9.582  19.543  0.00  0.00    +0.000 A 
ATOM      2  C   UNL     1       1.551   8.491  19.807  0.00  0.00    +0.000 A 
ATOM      3  S   UNL     1       1.526   8.051  21.448  0.00  0.00    +0.000 S 
ATOM      4  C   UNL     1       0.459   9.295  21.853  0.00  0.00    +0.000 A 
ATOM      5  C   UNL     1       0.093  10.061  20.764  0.00  0.00    +0.000 A 
ATOM      6  C   UNL     1      -0.855  11.222  20.930  0.00  0.00    +0.000 C 
ATOM      7  C   UNL     1      -0.981  11.668  22.396  0.00  0.00    +0.000 C 
ATOM      8  C   UNL     1      -1.161  10.474  23.338  0.00  0.00    +0.000 C 
ATOM      9  C   UNL     1       0.036   9.519  23.272  0.00  0.00    +0.000 C 
ENDROOT
BRANCH   2  10
ATOM     10  N   UNL     1       2.354   7.804  18.893  0.00  0.00    +0.000 N 
ATOM     11  C   UNL     1       2.522   6.426  18.821  0.00  0.00    +0.000 C 
ATOM     12  O   UNL     1       1.961   5.579  19.506  0.00  0.00    +0.000 OA
ATOM     13  H   UNL     1       2.922   8.400  18.297  0.00  0.00    +0.000 HD
BRANCH  11  14
ATOM     14  C   UNL     1       3.521   5.927  17.830  0.00  0.00    +0.000 A 
ATOM     15  C   UNL     1       4.336   6.883  17.205  0.00  0.00    +0.000 A 
ATOM     16  C   UNL     1       5.303   6.497  16.277  0.00  0.00    +0.000 A 
ATOM     17  C   UNL     1       5.492   5.149  15.977  0.00  0.00    +0.000 A 
ATOM     18  C   UNL     1       4.693   4.188  16.602  0.00  0.00    +0.000 A 
ATOM     19  C   UNL     1       3.708   4.573  17.528  0.00  0.00    +0.000 A 
BRANCH  17  20
ATOM     20  O   UNL     1       6.451   4.903  15.035  0.00  0.00    +0.000 OA
ATOM     21  C   UNL     1       6.101   3.986  14.005  0.00  0.00    +0.000 C 
ENDBRANCH  17  20
ENDBRANCH  11  14
ENDBRANCH   2  10
BRANCH   1  22
ATOM     22  C   UNL     1       0.603  10.150  18.198  0.00  0.00    +0.000 C 
ATOM     23  O   UNL     1      -0.404  10.027  17.506  0.00  0.00    +0.000 OA
BRANCH  22  24
ATOM     24  O   UNL     1       1.750  10.753  17.775  0.00  0.00    +0.000 OA
BRANCH  24  26
ATOM     25  C   UNL     1       1.164  13.011  18.305  0.00  0.00    +0.000 C 
ATOM     26  C   UNL     1       2.178  11.899  18.520  0.00  0.00    +0.000 C 
ENDBRANCH  24  26
ENDBRANCH  22  24
ENDBRANCH   1  22
TORSDOF 6
ENDMDL
MODEL 8
REMARK VINA RESULT:      -6.7      2.389      7.896
REMARK  Name = 
REMARK  8 active torsions:
REMARK  status: ('A' for Active; 'I' for Inactive)
REMARK    1  A    between atoms: C_1  and  C_2
REMARK    2  A    between atoms: C_2  and  O_3
REMARK    3  A    between atoms: O_3  and  C_4
REMARK    4  A    between atoms: C_4  and  C_6
REMARK    5  A    between atoms: C_7  and  N_8
REMARK    6  A    between atoms: C_9  and  C_11
REMARK    7  A    between atoms: C_14  and  O_15
REMARK    8  A    between atoms: O_15  and  C_16
REMARK                            x       y       z     vdW  Elec       q    Type
REMARK                         _______ _______ _______ _____ _____    ______ ____
ROOT
ATOM      1  C   UNL     1       2.524   6.683  19.437  0.00  0.00    +0.000 A 
ATOM      2  C   UNL     1       2.932   7.098  18.170  0.00  0.00    +0.000 A 
ATOM      3  S   UNL     1       2.406   8.672  17.810  0.00  0.00    +0.000 S 
ATOM      4  C   UNL     1       1.606   8.834  19.288  0.00  0.00    +0.000 A 
ATOM      5  C   UNL     1       1.725   7.713  20.086  0.00  0.00    +0.000 A 
ATOM      6  C   UNL     1       1.075   7.670  21.445  0.00  0.00    +0.000 C 
ATOM      7  C   UNL     1      -0.005   8.752  21.611  0.00  0.00    +0.000 C 
ATOM      8  C   UNL     1       0.475  10.114  21.106  0.00  0.00    +0.000 C 
ATOM      9  C   UNL     1       0.826  10.070  19.614  0.00  0.00    +0.000 C 
ENDROOT
BRANCH   2  10
ATOM     10  N   UNL     1       3.666   6.358  17.239  0.00  0.00    +0.000 N 
ATOM     11  C   UNL     1       5.045   6.385  17.072  0.00  0.00    +0.000 C 
ATOM     12  O   UNL     1       5.856   7.018  17.740  0.00  0.00    +0.000 OA
ATOM     13  H   UNL     1       3.102   5.827  16.581  0.00  0.00    +0.000 HD
BRANCH  11  14
ATOM     14  C   UNL     1       5.596   5.590  15.935  0.00  0.00    +0.000 A 
ATOM     15  C   UNL     1       4.698   4.772  15.232  0.00  0.00    +0.000 A 
ATOM     16  C   UNL     1       5.131   4.008  14.148  0.00  0.00    +0.000 A 
ATOM     17  C   UNL     1       6.459   4.067  13.730  0.00  0.00    +0.000 A 
ATOM     18  C   UNL     1       7.359   4.887  14.417  0.00  0.00    +0.000 A 
ATOM     19  C   UNL     1       6.931   5.649  15.518  0.00  0.00    +0.000 A 
BRANCH  17  20
ATOM     20  O   UNL     1       6.763   3.253  12.675  0.00  0.00    +0.000 OA
ATOM     21  C   UNL     1       5.667   2.812  11.884  0.00  0.00    +0.000 C 
ENDBRANCH  17  20
ENDBRANCH  11  14
ENDBRANCH   2  10
BRANCH   1  22
ATOM     22  C   UNL     1       2.845   5.351  19.952  0.00  0.00    +0.000 C 
ATOM     23  O   UNL     1       3.945   4.824  19.809  0.00  0.00    +0.000 OA
BRANCH  22  24
ATOM     24  O   UNL     1       1.775   4.736  20.531  0.00  0.00    +0.000 OA
BRANCH  24  26
ATOM     25  C   UNL     1       1.608   2.615  21.626  0.00  0.00    +0.000 C 
ATOM     26  C   UNL     1       1.638   3.331  20.285  0.00  0.00    +0.000 C 
ENDBRANCH  24  26
ENDBRANCH  22  24
ENDBRANCH   1  22
TORSDOF 6
ENDMDL
MODEL 9
REMARK VINA RESULT:      -6.6      2.159      8.480
REMARK  Name = 
REMARK  8 active torsions:
REMARK  status: ('A' for Active; 'I' for Inactive)
REMARK    1  A    between atoms: C_1  and  C_2
REMARK    2  A    between atoms: C_2  and  O_3
REMARK    3  A    between atoms: O_3  and  C_4
REMARK    4  A    between atoms: C_4  and  C_6
REMARK    5  A    between atoms: C_7  and  N_8
REMARK    6  A    between atoms: C_9  and  C_11
REMARK    7  A    between atoms: C_14  and  O_15
REMARK    8  A    between atoms: O_15  and  C_16
REMARK                            x       y       z     vdW  Elec       q    Type
REMARK                         _______ _______ _______ _____ _____    ______ ____
ROOT
ATOM      1  C   UNL     1       1.102   9.792  19.622  0.00  0.00    +0.000 A 
ATOM      2  C   UNL     1       1.585   8.507  19.866  0.00  0.00    +0.000 A 
ATOM      3  S   UNL     1       1.130   7.933  21.399  0.00  0.00    +0.000 S 
ATOM      4  C   UNL     1       0.319   9.361  21.788  0.00  0.00    +0.000 A 
ATOM      5  C   UNL     1       0.366  10.296  20.773  0.00  0.00    +0.000 A 
ATOM      6  C   UNL     1      -0.302  11.637  20.937  0.00  0.00    +0.000 C 
ATOM      7  C   UNL     1      -0.614  11.958  22.408  0.00  0.00    +0.000 C 
ATOM      8  C   UNL     1      -1.250  10.764  23.125  0.00  0.00    +0.000 C 
ATOM      9  C   UNL     1      -0.317   9.548  23.130  0.00  0.00    +0.000 C 
ENDROOT
BRANCH   2  10
ATOM     10  N   UNL     1       2.375   7.730  19.016  0.00  0.00    +0.000 N 
ATOM     11  C   UNL     1       2.510   6.348  19.054  0.00  0.00    +0.000 C 
ATOM     12  O   UNL     1       1.924   5.571  19.801  0.00  0.00    +0.000 OA
ATOM     13  H   UNL     1       2.961   8.263  18.378  0.00  0.00    +0.000 HD
BRANCH  11  14
ATOM     14  C   UNL     1       3.501   5.747  18.113  0.00  0.00    +0.000 A 
ATOM     15  C   UNL     1       3.439   4.358  17.919  0.00  0.00    +0.000 A 
ATOM     16  C   UNL     1       4.321   3.722  17.046  0.00  0.00    +0.000 A 
ATOM     17  C   UNL     1       5.261   4.462  16.331  0.00  0.00    +0.000 A 
ATOM     18  C   UNL     1       5.324   5.847  16.509  0.00  0.00    +0.000 A 
ATOM     19  C   UNL     1       4.446   6.492  17.398  0.00  0.00    +0.000 A 
BRANCH  17  20
ATOM     20  O   UNL     1       6.083   3.721  15.530  0.00  0.00    +0.000 OA
ATOM     21  C   UNL     1       6.075   4.048  14.145  0.00  0.00    +0.000 C 
ENDBRANCH  17  20
ENDBRANCH  11  14
ENDBRANCH   2  10
BRANCH   1  22
ATOM     22  C   UNL     1       1.389  10.498  18.371  0.00  0.00    +0.000 C 
ATOM     23  O   UNL     1       1.798   9.933  17.361  0.00  0.00    +0.000 OA
BRANCH  22  24
ATOM     24  O   UNL     1       1.230  11.848  18.478  0.00  0.00    +0.000 OA
BRANCH  24  26
ATOM     25  C   UNL     1       2.556  13.541  19.525  0.00  0.00    +0.000 C 
ATOM     26  C   UNL     1       2.408  12.643  18.308  0.00  0.00    +0.000 C 
ENDBRANCH  24  26
ENDBRANCH  22  24
ENDBRANCH   1  22
TORSDOF 6
ENDMDL
