MODEL 1
REMARK VINA RESULT:      -8.0      0.000      0.000
REMARK  Name = 
REMARK  9 active torsions:
REMARK  status: ('A' for Active; 'I' for Inactive)
REMARK    1  A    between atoms: C_1  and  O_2
REMARK    2  A    between atoms: O_2  and  C_3
REMARK    3  A    between atoms: C_5  and  C_6
REMARK    4  A    between atoms: C_6  and  N_7
REMARK    5  A    between atoms: C_8  and  C_10
REMARK    6  A    between atoms: C_22  and  O_23
REMARK    7  A    between atoms: O_23  and  C_24
REMARK    8  A    between atoms: C_25  and  O_26
REMARK    9  A    between atoms: O_26  and  C_27
REMARK                            x       y       z     vdW  Elec       q    Type
REMARK                         _______ _______ _______ _____ _____    ______ ____
ROOT
ATOM      1  N   UNL     1       3.038   5.673  17.720  0.00  0.00    +0.000 N 
ATOM      2  C   UNL     1       3.004   6.083  19.033  0.00  0.00    +0.000 C 
ATOM      3  O   UNL     1       3.529   5.434  19.942  0.00  0.00    +0.000 OA
ATOM      4  H   UNL     1       2.520   6.200  17.020  0.00  0.00    +0.000 HD
ENDROOT
BRANCH   2   5
ATOM      5  C   UNL     1       2.278   7.362  19.317  0.00  0.00    +0.000 A 
ATOM      6  C   UNL     1       1.769   7.515  20.553  0.00  0.00    +0.000 A 
ATOM      7  C   UNL     1       1.026   8.715  20.912  0.00  0.00    +0.000 A 
ATOM      8  C   UNL     1       0.592   8.970  22.214  0.00  0.00    +0.000 A 
ATOM      9  C   UNL     1      -0.156  10.120  22.491  0.00  0.00    +0.000 A 
ATOM     10  C   UNL     1      -0.491  11.007  21.463  0.00  0.00    +0.000 A 
ATOM     11  C   UNL     1      -0.053  10.762  20.164  0.00  0.00    +0.000 A 
ATOM     12  C   UNL     1       0.720   9.630  19.911  0.00  0.00    +0.000 A 
ATOM     13  O   UNL     1       1.223   9.461  18.610  0.00  0.00    +0.000 OA
ATOM     14  C   UNL     1       2.103   8.434  18.309  0.00  0.00    +0.000 A 
ATOM     15  O   UNL     1       2.698   8.405  17.231  0.00  0.00    +0.000 OA
ENDBRANCH   2   5
BRANCH   1  16
ATOM     16  C   UNL     1       3.623   4.403  17.334  0.00  0.00    +0.000 C 
BRANCH  16  19
ATOM     17  C   UNL     1       6.154   4.100  14.475  0.00  0.00    +0.000 A 
ATOM     18  C   UNL     1       5.104   3.791  15.361  0.00  0.00    +0.000 A 
ATOM     19  C   UNL     1       4.896   4.522  16.529  0.00  0.00    +0.000 A 
ATOM     20  C   UNL     1       5.833   5.510  16.849  0.00  0.00    +0.000 A 
ATOM     21  C   UNL     1       6.942   5.784  16.026  0.00  0.00    +0.000 A 
ATOM     22  C   UNL     1       7.113   5.078  14.815  0.00  0.00    +0.000 A 
BRANCH  17  24
ATOM     23  C   UNL     1       5.073   3.487  12.456  0.00  0.00    +0.000 C 
ATOM     24  O   UNL     1       6.245   3.437  13.275  0.00  0.00    +0.000 OA
ENDBRANCH  17  24
BRANCH  21  25
ATOM     25  O   UNL     1       7.711   6.797  16.547  0.00  0.00    +0.000 OA
ATOM     26  C   UNL     1       7.196   7.614  17.587  0.00  0.00    +0.000 C 
ENDBRANCH  21  25
BRANCH  22  27
ATOM     27  O   UNL     1       8.216   5.414  14.075  0.00  0.00    +0.000 OA
ATOM     28  C   UNL     1       8.114   5.694  12.691  0.00  0.00    +0.000 C 
ENDBRANCH  22  27
ENDBRANCH  16  19
ENDBRANCH   1  16
TORSDOF 6
ENDMDL
MODEL 2
REMARK VINA RESULT:      -7.9      2.814      4.848
REMARK  Name = 
REMARK  9 active torsions:
REMARK  status: ('A' for Active; 'I' for Inactive)
REMARK    1  A    between atoms: C_1  and  O_2
REMARK    2  A    between atoms: O_2  and  C_3
REMARK    3  A    between atoms: C_5  and  C_6
REMARK    4  A    between atoms: C_6  and  N_7
REMARK    5  A    between atoms: C_8  and  C_10
REMARK    6  A    between atoms: C_22  and  O_23
REMARK    7  A    between atoms: O_23  and  C_24
REMARK    8  A    between atoms: C_25  and  O_26
REMARK    9  A    between atoms: O_26  and  C_27
REMARK                            x       y       z     vdW  Elec       q    Type
REMARK                         _______ _______ _______ _____ _____    ______ ____
ROOT
ATOM      1  N   UNL     1       2.044   8.215  18.757  0.00  0.00    +0.000 N 
ATOM      2  C   UNL     1       1.674   9.540  18.788  0.00  0.00    +0.000 C 
ATOM      3  O   UNL     1       2.060  10.355  17.945  0.00  0.00    +0.000 OA
ATOM      4  H   UNL     1       1.767   7.602  19.520  0.00  0.00    +0.000 HD
ENDROOT
BRANCH   2   5
ATOM      5  C   UNL     1       0.781   9.959  19.916  0.00  0.00    +0.000 A 
ATOM      6  C   UNL     1      -0.136  10.908  19.650  0.00  0.00    +0.000 A 
ATOM      7  C   UNL     1      -1.029  11.395  20.691  0.00  0.00    +0.000 A 
ATOM      8  C   UNL     1      -2.075  12.284  20.430  0.00  0.00    +0.000 A 
ATOM      9  C   UNL     1      -2.875  12.751  21.478  0.00  0.00    +0.000 A 
ATOM     10  C   UNL     1      -2.619  12.350  22.793  0.00  0.00    +0.000 A 
ATOM     11  C   UNL     1      -1.583  11.458  23.058  0.00  0.00    +0.000 A 
ATOM     12  C   UNL     1      -0.817  10.974  21.999  0.00  0.00    +0.000 A 
ATOM     13  O   UNL     1       0.158  10.006  22.288  0.00  0.00    +0.000 OA
ATOM     14  C   UNL     1       0.872   9.382  21.277  0.00  0.00    +0.000 A 
ATOM     15  O   UNL     1       1.574   8.398  21.512  0.00  0.00    +0.000 OA
ENDBRANCH   2   5
BRANCH   1  16
ATOM     16  C   UNL     1       2.985   7.711  17.773  0.00  0.00    +0.000 C 
BRANCH  16  19
ATOM     17  C   UNL     1       5.121   4.612  18.480  0.00  0.00    +0.000 A 
ATOM     18  C   UNL     1       4.734   5.884  18.017  0.00  0.00    +0.000 A 
ATOM     19  C   UNL     1       3.396   6.274  17.983  0.00  0.00    +0.000 A 
ATOM     20  C   UNL     1       2.436   5.317  18.327  0.00  0.00    +0.000 A 
ATOM     21  C   UNL     1       2.787   4.009  18.713  0.00  0.00    +0.000 A 
ATOM     22  C   UNL     1       4.147   3.640  18.799  0.00  0.00    +0.000 A 
BRANCH  17  24
ATOM     23  C   UNL     1       7.304   4.823  17.582  0.00  0.00    +0.000 C 
ATOM     24  O   UNL     1       6.455   4.316  18.616  0.00  0.00    +0.000 OA
ENDBRANCH  17  24
BRANCH  21  25
ATOM     25  O   UNL     1       1.672   3.260  19.007  0.00  0.00    +0.000 OA
ATOM     26  C   UNL     1       0.887   3.577  20.146  0.00  0.00    +0.000 C 
ENDBRANCH  21  25
BRANCH  22  27
ATOM     27  O   UNL     1       4.396   2.350  19.187  0.00  0.00    +0.000 OA
ATOM     28  C   UNL     1       4.487   2.000  20.556  0.00  0.00    +0.000 C 
ENDBRANCH  22  27
ENDBRANCH  16  19
ENDBRANCH   1  16
TORSDOF 6
ENDMDL
MODEL 3
REMARK VINA RESULT:      -7.8      1.458      8.646
REMARK  Name = 
REMARK  9 active torsions:
REMARK  status: ('A' for Active; 'I' for Inactive)
REMARK    1  A    between atoms: C_1  and  O_2
REMARK    2  A    between atoms: O_2  and  C_3
REMARK    3  A    between atoms: C_5  and  C_6
REMARK    4  A    between atoms: C_6  and  N_7
REMARK    5  A    between atoms: C_8  and  C_10
REMARK    6  A    between atoms: C_22  and  O_23
REMARK    7  A    between atoms: O_23  and  C_24
REMARK    8  A    between atoms: C_25  and  O_26
REMARK    9  A    between atoms: O_26  and  C_27
REMARK                            x       y       z     vdW  Elec       q    Type
REMARK                         _______ _______ _______ _____ _____    ______ ____
ROOT
ATOM      1  N   UNL     1       3.613   5.937  18.340  0.00  0.00    +0.000 N 
ATOM      2  C   UNL     1       4.746   5.159  18.261  0.00  0.00    +0.000 C 
ATOM      3  O   UNL     1       5.138   4.466  19.204  0.00  0.00    +0.000 OA
ATOM      4  H   UNL     1       3.378   6.553  17.566  0.00  0.00    +0.000 HD
ENDROOT
BRANCH   2   5
ATOM      5  C   UNL     1       5.501   5.205  16.969  0.00  0.00    +0.000 A 
ATOM      6  C   UNL     1       5.065   4.407  15.977  0.00  0.00    +0.000 A 
ATOM      7  C   UNL     1       5.753   4.367  14.694  0.00  0.00    +0.000 A 
ATOM      8  C   UNL     1       5.262   3.652  13.599  0.00  0.00    +0.000 A 
ATOM      9  C   UNL     1       5.988   3.615  12.404  0.00  0.00    +0.000 A 
ATOM     10  C   UNL     1       7.218   4.273  12.306  0.00  0.00    +0.000 A 
ATOM     11  C   UNL     1       7.708   4.995  13.392  0.00  0.00    +0.000 A 
ATOM     12  C   UNL     1       6.956   5.050  14.564  0.00  0.00    +0.000 A 
ATOM     13  O   UNL     1       7.433   5.862  15.607  0.00  0.00    +0.000 OA
ATOM     14  C   UNL     1       6.682   6.073  16.752  0.00  0.00    +0.000 A 
ATOM     15  O   UNL     1       7.003   6.936  17.570  0.00  0.00    +0.000 OA
ENDBRANCH   2   5
BRANCH   1  16
ATOM     16  C   UNL     1       2.854   6.054  19.571  0.00  0.00    +0.000 C 
BRANCH  16  19
ATOM     17  C   UNL     1       1.389   9.517  18.845  0.00  0.00    +0.000 A 
ATOM     18  C   UNL     1       2.237   8.394  18.796  0.00  0.00    +0.000 A 
ATOM     19  C   UNL     1       2.173   7.388  19.759  0.00  0.00    +0.000 A 
ATOM     20  C   UNL     1       1.308   7.583  20.841  0.00  0.00    +0.000 A 
ATOM     21  C   UNL     1       0.510   8.737  20.962  0.00  0.00    +0.000 A 
ATOM     22  C   UNL     1       0.538   9.724  19.953  0.00  0.00    +0.000 A 
BRANCH  17  24
ATOM     23  C   UNL     1       2.385  11.449  17.900  0.00  0.00    +0.000 C 
ATOM     24  O   UNL     1       1.397  10.419  17.809  0.00  0.00    +0.000 OA
ENDBRANCH  17  24
BRANCH  21  25
ATOM     25  O   UNL     1      -0.257   8.694  22.102  0.00  0.00    +0.000 OA
ATOM     26  C   UNL     1       0.158   9.403  23.261  0.00  0.00    +0.000 C 
ENDBRANCH  21  25
BRANCH  22  27
ATOM     27  O   UNL     1      -0.274  10.809  20.151  0.00  0.00    +0.000 OA
ATOM     28  C   UNL     1       0.215  11.990  20.759  0.00  0.00    +0.000 C 
ENDBRANCH  22  27
ENDBRANCH  16  19
ENDBRANCH   1  16
TORSDOF 6
ENDMDL
MODEL 4
REMARK VINA RESULT:      -7.8      2.851      5.151
REMARK  Name = 
REMARK  9 active torsions:
REMARK  status: ('A' for Active; 'I' for Inactive)
REMARK    1  A    between atoms: C_1  and  O_2
REMARK    2  A    between atoms: O_2  and  C_3
REMARK    3  A    between atoms: C_5  and  C_6
REMARK    4  A    between atoms: C_6  and  N_7
REMARK    5  A    between atoms: C_8  and  C_10
REMARK    6  A    between atoms: C_22  and  O_23
REMARK    7  A    between atoms: O_23  and  C_24
REMARK    8  A    between atoms: C_25  and  O_26
REMARK    9  A    between atoms: O_26  and  C_27
REMARK                            x       y       z     vdW  Elec       q    Type
REMARK                         _______ _______ _______ _____ _____    ______ ____
ROOT
ATOM      1  N   UNL     1       1.838   8.521  18.105  0.00  0.00    +0.000 N 
ATOM      2  C   UNL     1       1.669   9.886  18.120  0.00  0.00    +0.000 C 
ATOM      3  O   UNL     1       2.583  10.670  17.846  0.00  0.00    +0.000 OA
ATOM      4  H   UNL     1       1.079   7.921  18.418  0.00  0.00    +0.000 HD
ENDROOT
BRANCH   2   5
ATOM      5  C   UNL     1       0.311  10.388  18.503  0.00  0.00    +0.000 A 
ATOM      6  C   UNL     1      -0.714  10.062  17.693  0.00  0.00    +0.000 A 
ATOM      7  C   UNL     1      -2.065  10.526  17.974  0.00  0.00    +0.000 A 
ATOM      8  C   UNL     1      -3.173  10.108  17.234  0.00  0.00    +0.000 A 
ATOM      9  C   UNL     1      -4.442  10.622  17.522  0.00  0.00    +0.000 A 
ATOM     10  C   UNL     1      -4.604  11.571  18.536  0.00  0.00    +0.000 A 
ATOM     11  C   UNL     1      -3.504  11.986  19.283  0.00  0.00    +0.000 A 
ATOM     12  C   UNL     1      -2.252  11.439  19.006  0.00  0.00    +0.000 A 
ATOM     13  O   UNL     1      -1.181  11.807  19.837  0.00  0.00    +0.000 OA
ATOM     14  C   UNL     1       0.063  11.211  19.710  0.00  0.00    +0.000 A 
ATOM     15  O   UNL     1       0.937  11.383  20.560  0.00  0.00    +0.000 OA
ENDBRANCH   2   5
BRANCH   1  16
ATOM     16  C   UNL     1       3.133   7.918  17.847  0.00  0.00    +0.000 C 
BRANCH  16  19
ATOM     17  C   UNL     1       2.018   4.308  18.477  0.00  0.00    +0.000 A 
ATOM     18  C   UNL     1       2.148   5.704  18.613  0.00  0.00    +0.000 A 
ATOM     19  C   UNL     1       3.151   6.412  17.953  0.00  0.00    +0.000 A 
ATOM     20  C   UNL     1       4.095   5.674  17.231  0.00  0.00    +0.000 A 
ATOM     21  C   UNL     1       4.041   4.269  17.147  0.00  0.00    +0.000 A 
ATOM     22  C   UNL     1       2.989   3.564  17.772  0.00  0.00    +0.000 A 
BRANCH  17  24
ATOM     23  C   UNL     1       1.026   3.457  20.454  0.00  0.00    +0.000 C 
ATOM     24  O   UNL     1       0.941   3.669  19.042  0.00  0.00    +0.000 OA
ENDBRANCH  17  24
BRANCH  21  25
ATOM     25  O   UNL     1       5.070   3.776  16.380  0.00  0.00    +0.000 OA
ATOM     26  C   UNL     1       6.346   4.397  16.424  0.00  0.00    +0.000 C 
ENDBRANCH  21  25
BRANCH  22  27
ATOM     27  O   UNL     1       3.014   2.202  17.634  0.00  0.00    +0.000 OA
ATOM     28  C   UNL     1       3.642   1.378  18.599  0.00  0.00    +0.000 C 
ENDBRANCH  22  27
ENDBRANCH  16  19
ENDBRANCH   1  16
TORSDOF 6
ENDMDL
MODEL 5
REMARK VINA RESULT:      -7.8      3.191      9.191
REMARK  Name = 
REMARK  9 active torsions:
REMARK  status: ('A' for Active; 'I' for Inactive)
REMARK    1  A    between atoms: C_1  and  O_2
REMARK    2  A    between atoms: O_2  and  C_3
REMARK    3  A    between atoms: C_5  and  C_6
REMARK    4  A    between atoms: C_6  and  N_7
REMARK    5  A    between atoms: C_8  and  C_10
REMARK    6  A    between atoms: C_22  and  O_23
REMARK    7  A    between atoms: O_23  and  C_24
REMARK    8  A    between atoms: C_25  and  O_26
REMARK    9  A    between atoms: O_26  and  C_27
REMARK                            x       y       z     vdW  Elec       q    Type
REMARK                         _______ _______ _______ _____ _____    ______ ____
ROOT
ATOM      1  N   UNL     1       1.215   9.209  19.155  0.00  0.00    +0.000 N 
ATOM      2  C   UNL     1       1.692   8.187  19.943  0.00  0.00    +0.000 C 
ATOM      3  O   UNL     1       1.570   8.187  21.172  0.00  0.00    +0.000 OA
ATOM      4  H   UNL     1       1.413   9.203  18.157  0.00  0.00    +0.000 HD
ENDROOT
BRANCH   2   5
ATOM      5  C   UNL     1       2.390   7.066  19.236  0.00  0.00    +0.000 A 
ATOM      6  C   UNL     1       3.184   7.397  18.201  0.00  0.00    +0.000 A 
ATOM      7  C   UNL     1       3.883   6.371  17.439  0.00  0.00    +0.000 A 
ATOM      8  C   UNL     1       4.812   6.676  16.443  0.00  0.00    +0.000 A 
ATOM      9  C   UNL     1       5.421   5.649  15.714  0.00  0.00    +0.000 A 
ATOM     10  C   UNL     1       5.087   4.314  15.963  0.00  0.00    +0.000 A 
ATOM     11  C   UNL     1       4.167   4.004  16.962  0.00  0.00    +0.000 A 
ATOM     12  C   UNL     1       3.595   5.037  17.702  0.00  0.00    +0.000 A 
ATOM     13  O   UNL     1       2.743   4.686  18.762  0.00  0.00    +0.000 OA
ATOM     14  C   UNL     1       2.238   5.645  19.625  0.00  0.00    +0.000 A 
ATOM     15  O   UNL     1       1.663   5.322  20.665  0.00  0.00    +0.000 OA
ENDBRANCH   2   5
BRANCH   1  16
ATOM     16  C   UNL     1       0.610  10.396  19.732  0.00  0.00    +0.000 C 
BRANCH  16  19
ATOM     17  C   UNL     1      -2.472  10.413  17.458  0.00  0.00    +0.000 A 
ATOM     18  C   UNL     1      -1.153  10.216  17.910  0.00  0.00    +0.000 A 
ATOM     19  C   UNL     1      -0.683  10.818  19.077  0.00  0.00    +0.000 A 
ATOM     20  C   UNL     1      -1.536  11.713  19.731  0.00  0.00    +0.000 A 
ATOM     21  C   UNL     1      -2.830  11.996  19.255  0.00  0.00    +0.000 A 
ATOM     22  C   UNL     1      -3.319  11.339  18.104  0.00  0.00    +0.000 A 
BRANCH  17  24
ATOM     23  C   UNL     1      -2.839  10.374  15.117  0.00  0.00    +0.000 C 
ATOM     24  O   UNL     1      -2.931   9.702  16.376  0.00  0.00    +0.000 OA
ENDBRANCH  17  24
BRANCH  21  25
ATOM     25  O   UNL     1      -3.474  12.898  20.069  0.00  0.00    +0.000 OA
ATOM     26  C   UNL     1      -3.275  12.852  21.473  0.00  0.00    +0.000 C 
ENDBRANCH  21  25
BRANCH  22  27
ATOM     27  O   UNL     1      -4.590  11.672  17.717  0.00  0.00    +0.000 OA
ATOM     28  C   UNL     1      -5.713  10.943  18.180  0.00  0.00    +0.000 C 
ENDBRANCH  22  27
ENDBRANCH  16  19
ENDBRANCH   1  16
TORSDOF 6
ENDMDL
MODEL 6
REMARK VINA RESULT:      -7.8      3.271      9.472
REMARK  Name = 
REMARK  9 active torsions:
REMARK  status: ('A' for Active; 'I' for Inactive)
REMARK    1  A    between atoms: C_1  and  O_2
REMARK    2  A    between atoms: O_2  and  C_3
REMARK    3  A    between atoms: C_5  and  C_6
REMARK    4  A    between atoms: C_6  and  N_7
REMARK    5  A    between atoms: C_8  and  C_10
REMARK    6  A    between atoms: C_22  and  O_23
REMARK    7  A    between atoms: O_23  and  C_24
REMARK    8  A    between atoms: C_25  and  O_26
REMARK    9  A    between atoms: O_26  and  C_27
REMARK                            x       y       z     vdW  Elec       q    Type
REMARK                         _______ _______ _______ _____ _____    ______ ____
ROOT
ATOM      1  N   UNL     1       1.420   9.513  18.374  0.00  0.00    +0.000 N 
ATOM      2  C   UNL     1       1.745   8.543  19.294  0.00  0.00    +0.000 C 
ATOM      3  O   UNL     1       1.455   8.641  20.490  0.00  0.00    +0.000 OA
ATOM      4  H   UNL     1       1.754   9.424  17.417  0.00  0.00    +0.000 HD
ENDROOT
BRANCH   2   5
ATOM      5  C   UNL     1       2.491   7.352  18.775  0.00  0.00    +0.000 A 
ATOM      6  C   UNL     1       3.309   7.552  17.725  0.00  0.00    +0.000 A 
ATOM      7  C   UNL     1       4.055   6.447  17.139  0.00  0.00    +0.000 A 
ATOM      8  C   UNL     1       5.008   6.632  16.135  0.00  0.00    +0.000 A 
ATOM      9  C   UNL     1       5.663   5.528  15.579  0.00  0.00    +0.000 A 
ATOM     10  C   UNL     1       5.352   4.234  16.009  0.00  0.00    +0.000 A 
ATOM     11  C   UNL     1       4.409   4.045  17.016  0.00  0.00    +0.000 A 
ATOM     12  C   UNL     1       3.791   5.157  17.584  0.00  0.00    +0.000 A 
ATOM     13  O   UNL     1       2.914   4.938  18.660  0.00  0.00    +0.000 OA
ATOM     14  C   UNL     1       2.360   5.997  19.361  0.00  0.00    +0.000 A 
ATOM     15  O   UNL     1       1.761   5.811  20.420  0.00  0.00    +0.000 OA
ENDBRANCH   2   5
BRANCH   1  16
ATOM     16  C   UNL     1       0.788  10.757  18.772  0.00  0.00    +0.000 C 
BRANCH  16  19
ATOM     17  C   UNL     1      -2.889  11.755  19.165  0.00  0.00    +0.000 A 
ATOM     18  C   UNL     1      -1.530  11.539  19.462  0.00  0.00    +0.000 A 
ATOM     19  C   UNL     1      -0.716  10.762  18.639  0.00  0.00    +0.000 A 
ATOM     20  C   UNL     1      -1.323  10.112  17.559  0.00  0.00    +0.000 A 
ATOM     21  C   UNL     1      -2.698  10.239  17.286  0.00  0.00    +0.000 A 
ATOM     22  C   UNL     1      -3.504  11.075  18.091  0.00  0.00    +0.000 A 
BRANCH  17  24
ATOM     23  C   UNL     1      -3.218  12.730  21.300  0.00  0.00    +0.000 C 
ATOM     24  O   UNL     1      -3.621  12.630  19.931  0.00  0.00    +0.000 OA
ENDBRANCH  17  24
BRANCH  21  25
ATOM     25  O   UNL     1      -3.054   9.513  16.175  0.00  0.00    +0.000 OA
ATOM     26  C   UNL     1      -2.968  10.102  14.886  0.00  0.00    +0.000 C 
ENDBRANCH  21  25
BRANCH  22  27
ATOM     27  O   UNL     1      -4.828  11.142  17.749  0.00  0.00    +0.000 OA
ATOM     28  C   UNL     1      -5.317  12.170  16.906  0.00  0.00    +0.000 C 
ENDBRANCH  22  27
ENDBRANCH  16  19
ENDBRANCH   1  16
TORSDOF 6
ENDMDL
MODEL 7
REMARK VINA RESULT:      -7.7      2.767      4.927
REMARK  Name = 
REMARK  9 active torsions:
REMARK  status: ('A' for Active; 'I' for Inactive)
REMARK    1  A    between atoms: C_1  and  O_2
REMARK    2  A    between atoms: O_2  and  C_3
REMARK    3  A    between atoms: C_5  and  C_6
REMARK    4  A    between atoms: C_6  and  N_7
REMARK    5  A    between atoms: C_8  and  C_10
REMARK    6  A    between atoms: C_22  and  O_23
REMARK    7  A    between atoms: O_23  and  C_24
REMARK    8  A    between atoms: C_25  and  O_26
REMARK    9  A    between atoms: O_26  and  C_27
REMARK                            x       y       z     vdW  Elec       q    Type
REMARK                         _______ _______ _______ _____ _____    ______ ____
ROOT
ATOM      1  N   UNL     1       1.987   8.413  18.340  0.00  0.00    +0.000 N 
ATOM      2  C   UNL     1       1.772   9.745  18.072  0.00  0.00    +0.000 C 
ATOM      3  O   UNL     1       2.628  10.458  17.539  0.00  0.00    +0.000 OA
ATOM      4  H   UNL     1       1.283   7.889  18.856  0.00  0.00    +0.000 HD
ENDROOT
BRANCH   2   5
ATOM      5  C   UNL     1       0.443  10.304  18.477  0.00  0.00    +0.000 A 
ATOM      6  C   UNL     1      -0.618   9.971  17.718  0.00  0.00    +0.000 A 
ATOM      7  C   UNL     1      -1.944  10.487  18.021  0.00  0.00    +0.000 A 
ATOM      8  C   UNL     1      -3.089  10.068  17.340  0.00  0.00    +0.000 A 
ATOM      9  C   UNL     1      -4.332  10.632  17.645  0.00  0.00    +0.000 A 
ATOM     10  C   UNL     1      -4.433  11.632  18.617  0.00  0.00    +0.000 A 
ATOM     11  C   UNL     1      -3.296  12.048  19.306  0.00  0.00    +0.000 A 
ATOM     12  C   UNL     1      -2.071  11.452  19.014  0.00  0.00    +0.000 A 
ATOM     13  O   UNL     1      -0.961  11.827  19.791  0.00  0.00    +0.000 OA
ATOM     14  C   UNL     1       0.261  11.190  19.650  0.00  0.00    +0.000 A 
ATOM     15  O   UNL     1       1.168  11.375  20.462  0.00  0.00    +0.000 OA
ENDBRANCH   2   5
BRANCH   1  16
ATOM     16  C   UNL     1       3.269   7.782  18.087  0.00  0.00    +0.000 C 
BRANCH  16  19
ATOM     17  C   UNL     1       4.236   4.235  17.015  0.00  0.00    +0.000 A 
ATOM     18  C   UNL     1       4.164   5.640  17.052  0.00  0.00    +0.000 A 
ATOM     19  C   UNL     1       3.189   6.302  17.798  0.00  0.00    +0.000 A 
ATOM     20  C   UNL     1       2.215   5.520  18.426  0.00  0.00    +0.000 A 
ATOM     21  C   UNL     1       2.211   4.115  18.337  0.00  0.00    +0.000 A 
ATOM     22  C   UNL     1       3.235   3.450  17.627  0.00  0.00    +0.000 A 
BRANCH  17  24
ATOM     23  C   UNL     1       5.835   4.354  15.269  0.00  0.00    +0.000 C 
ATOM     24  O   UNL     1       5.287   3.626  16.372  0.00  0.00    +0.000 OA
ENDBRANCH  17  24
BRANCH  21  25
ATOM     25  O   UNL     1       1.162   3.574  19.041  0.00  0.00    +0.000 OA
ATOM     26  C   UNL     1       0.913   3.992  20.375  0.00  0.00    +0.000 C 
ENDBRANCH  21  25
BRANCH  22  27
ATOM     27  O   UNL     1       3.154   2.083  17.597  0.00  0.00    +0.000 OA
ATOM     28  C   UNL     1       3.724   1.291  18.624  0.00  0.00    +0.000 C 
ENDBRANCH  22  27
ENDBRANCH  16  19
ENDBRANCH   1  16
TORSDOF 6
ENDMDL
MODEL 8
REMARK VINA RESULT:      -7.7      3.994      9.011
REMARK  Name = 
REMARK  9 active torsions:
REMARK  status: ('A' for Active; 'I' for Inactive)
REMARK    1  A    between atoms: C_1  and  O_2
REMARK    2  A    between atoms: O_2  and  C_3
REMARK    3  A    between atoms: C_5  and  C_6
REMARK    4  A    between atoms: C_6  and  N_7
REMARK    5  A    between atoms: C_8  and  C_10
REMARK    6  A    between atoms: C_22  and  O_23
REMARK    7  A    between atoms: O_23  and  C_24
REMARK    8  A    between atoms: C_25  and  O_26
REMARK    9  A    between atoms: O_26  and  C_27
REMARK                            x       y       z     vdW  Elec       q    Type
REMARK                         _______ _______ _______ _____ _____    ______ ____
ROOT
ATOM      1  N   UNL     1       1.021   9.426  19.162  0.00  0.00    +0.000 N 
ATOM      2  C   UNL     1       1.448   8.669  20.229  0.00  0.00    +0.000 C 
ATOM      3  O   UNL     1       1.371   9.068  21.395  0.00  0.00    +0.000 OA
ATOM      4  H   UNL     1       1.182   9.089  18.216  0.00  0.00    +0.000 HD
ENDROOT
BRANCH   2   5
ATOM      5  C   UNL     1       2.033   7.329  19.908  0.00  0.00    +0.000 A 
ATOM      6  C   UNL     1       1.754   6.320  20.754  0.00  0.00    +0.000 A 
ATOM      7  C   UNL     1       2.300   4.988  20.534  0.00  0.00    +0.000 A 
ATOM      8  C   UNL     1       1.935   3.888  21.313  0.00  0.00    +0.000 A 
ATOM      9  C   UNL     1       2.525   2.641  21.083  0.00  0.00    +0.000 A 
ATOM     10  C   UNL     1       3.498   2.493  20.090  0.00  0.00    +0.000 A 
ATOM     11  C   UNL     1       3.860   3.586  19.305  0.00  0.00    +0.000 A 
ATOM     12  C   UNL     1       3.238   4.813  19.524  0.00  0.00    +0.000 A 
ATOM     13  O   UNL     1       3.557   5.870  18.655  0.00  0.00    +0.000 OA
ATOM     14  C   UNL     1       2.889   7.082  18.724  0.00  0.00    +0.000 A 
ATOM     15  O   UNL     1       3.023   7.930  17.841  0.00  0.00    +0.000 OA
ENDBRANCH   2   5
BRANCH   1  16
ATOM     16  C   UNL     1       0.529  10.780  19.338  0.00  0.00    +0.000 C 
BRANCH  16  19
ATOM     17  C   UNL     1      -2.744  10.333  17.400  0.00  0.00    +0.000 A 
ATOM     18  C   UNL     1      -1.370  10.332  17.710  0.00  0.00    +0.000 A 
ATOM     19  C   UNL     1      -0.872  11.006  18.824  0.00  0.00    +0.000 A 
ATOM     20  C   UNL     1      -1.771  11.777  19.568  0.00  0.00    +0.000 A 
ATOM     21  C   UNL     1      -3.136  11.867  19.231  0.00  0.00    +0.000 A 
ATOM     22  C   UNL     1      -3.643  11.135  18.136  0.00  0.00    +0.000 A 
BRANCH  17  24
ATOM     23  C   UNL     1      -2.998  10.083  15.056  0.00  0.00    +0.000 C 
ATOM     24  O   UNL     1      -3.207   9.553  16.369  0.00  0.00    +0.000 OA
ENDBRANCH  17  24
BRANCH  21  25
ATOM     25  O   UNL     1      -3.813  12.677  20.112  0.00  0.00    +0.000 OA
ATOM     26  C   UNL     1      -3.365  12.796  21.454  0.00  0.00    +0.000 C 
ENDBRANCH  21  25
BRANCH  22  27
ATOM     27  O   UNL     1      -4.981  11.279  17.885  0.00  0.00    +0.000 OA
ATOM     28  C   UNL     1      -5.455  12.227  16.945  0.00  0.00    +0.000 C 
ENDBRANCH  22  27
ENDBRANCH  16  19
ENDBRANCH   1  16
TORSDOF 6
ENDMDL
MODEL 9
REMARK VINA RESULT:      -7.7      3.391      9.224
REMARK  Name = 
REMARK  9 active torsions:
REMARK  status: ('A' for Active; 'I' for Inactive)
REMARK    1  A    between atoms: C_1  and  O_2
REMARK    2  A    between atoms: O_2  and  C_3
REMARK    3  A    between atoms: C_5  and  C_6
REMARK    4  A    between atoms: C_6  and  N_7
REMARK    5  A    between atoms: C_8  and  C_10
REMARK    6  A    between atoms: C_22  and  O_23
REMARK    7  A    between atoms: O_23  and  C_24
REMARK    8  A    between atoms: C_25  and  O_26
REMARK    9  A    between atoms: O_26  and  C_27
REMARK                            x       y       z     vdW  Elec       q    Type
REMARK                         _______ _______ _______ _____ _____    ______ ____
ROOT
ATOM      1  N   UNL     1       1.533   8.920  18.377  0.00  0.00    +0.000 N 
ATOM      2  C   UNL     1       1.918   8.012  19.336  0.00  0.00    +0.000 C 
ATOM      3  O   UNL     1       1.873   8.267  20.544  0.00  0.00    +0.000 OA
ATOM      4  H   UNL     1       1.667   8.693  17.394  0.00  0.00    +0.000 HD
ENDROOT
BRANCH   2   5
ATOM      5  C   UNL     1       2.417   6.688  18.844  0.00  0.00    +0.000 A 
ATOM      6  C   UNL     1       1.828   5.587  19.348  0.00  0.00    +0.000 A 
ATOM      7  C   UNL     1       2.264   4.257  18.946  0.00  0.00    +0.000 A 
ATOM      8  C   UNL     1       1.601   3.095  19.346  0.00  0.00    +0.000 A 
ATOM      9  C   UNL     1       2.092   1.842  18.964  0.00  0.00    +0.000 A 
ATOM     10  C   UNL     1       3.259   1.745  18.201  0.00  0.00    +0.000 A 
ATOM     11  C   UNL     1       3.920   2.901  17.793  0.00  0.00    +0.000 A 
ATOM     12  C   UNL     1       3.399   4.143  18.152  0.00  0.00    +0.000 A 
ATOM     13  O   UNL     1       4.037   5.288  17.647  0.00  0.00    +0.000 OA
ATOM     14  C   UNL     1       3.507   6.552  17.851  0.00  0.00    +0.000 A 
ATOM     15  O   UNL     1       3.948   7.529  17.244  0.00  0.00    +0.000 OA
ENDBRANCH   2   5
BRANCH   1  16
ATOM     16  C   UNL     1       1.128  10.269  18.724  0.00  0.00    +0.000 C 
BRANCH  16  19
ATOM     17  C   UNL     1      -2.328  11.855  19.178  0.00  0.00    +0.000 A 
ATOM     18  C   UNL     1      -1.019  11.417  19.453  0.00  0.00    +0.000 A 
ATOM     19  C   UNL     1      -0.356  10.522  18.614  0.00  0.00    +0.000 A 
ATOM     20  C   UNL     1      -1.077   9.988  17.541  0.00  0.00    +0.000 A 
ATOM     21  C   UNL     1      -2.416  10.342  17.290  0.00  0.00    +0.000 A 
ATOM     22  C   UNL     1      -3.062  11.292  18.111  0.00  0.00    +0.000 A 
BRANCH  17  24
ATOM     23  C   UNL     1      -2.489  12.834  21.331  0.00  0.00    +0.000 C 
ATOM     24  O   UNL     1      -2.895  12.833  19.959  0.00  0.00    +0.000 OA
ENDBRANCH  17  24
BRANCH  21  25
ATOM     25  O   UNL     1      -2.903   9.692  16.180  0.00  0.00    +0.000 OA
ATOM     26  C   UNL     1      -2.921  10.352  14.924  0.00  0.00    +0.000 C 
ENDBRANCH  21  25
BRANCH  22  27
ATOM     27  O   UNL     1      -4.362  11.579  17.789  0.00  0.00    +0.000 OA
ATOM     28  C   UNL     1      -5.436  10.852  18.357  0.00  0.00    +0.000 C 
ENDBRANCH  22  27
ENDBRANCH  16  19
ENDBRANCH   1  16
TORSDOF 6
ENDMDL
