MODEL 1
REMARK VINA RESULT:      -7.8      0.000      0.000
REMARK  Name = 
REMARK  8 active torsions:
REMARK  status: ('A' for Active; 'I' for Inactive)
REMARK    1  A    between atoms: C_2  and  C_4
REMARK    2  A    between atoms: C_4  and  C_5
REMARK    3  A    between atoms: C_5  and  N_6
REMARK    4  A    between atoms: C_5  and  C_16
REMARK    5  A    between atoms: C_7  and  C_9
REMARK    6  A    between atoms: C_16  and  O_18
REMARK    7  A    between atoms: O_18  and  C_19
REMARK    8  A    between atoms: C_19  and  C_20
REMARK                            x       y       z     vdW  Elec       q    Type
REMARK                         _______ _______ _______ _____ _____    ______ ____
ROOT
ATOM      1  C   UNL     1       5.975   5.164  17.068  0.00  0.00    +0.000 C 
ENDROOT
BRANCH   1   2
ATOM      2  N   UNL     1       5.005   5.890  17.889  0.00  0.00    +0.000 N 
ATOM      3  C   UNL     1       4.202   6.870  17.345  0.00  0.00    +0.000 C 
ATOM      4  O   UNL     1       4.299   7.247  16.177  0.00  0.00    +0.000 OA
ATOM      5  H   UNL     1       4.712   5.427  18.747  0.00  0.00    +0.000 HD
BRANCH   3   6
ATOM      6  C   UNL     1       3.167   7.463  18.229  0.00  0.00    +0.000 A 
ATOM      7  C   UNL     1       2.470   8.628  17.880  0.00  0.00    +0.000 A 
ATOM      8  C   UNL     1       1.488   9.140  18.735  0.00  0.00    +0.000 A 
ATOM      9  C   UNL     1       1.199   8.487  19.934  0.00  0.00    +0.000 A 
ATOM     10 CL   UNL     1       0.006   9.133  20.993  0.00  0.00    +0.000 Cl
ATOM     11  C   UNL     1       1.868   7.314  20.278  0.00  0.00    +0.000 A 
ATOM     12  C   UNL     1       2.844   6.798  19.423  0.00  0.00    +0.000 A 
ENDBRANCH   3   6
ENDBRANCH   1   2
BRANCH   1  13
ATOM     13  C   UNL     1       5.335   3.944  16.380  0.00  0.00    +0.000 C 
ATOM     14  O   UNL     1       5.879   3.261  15.523  0.00  0.00    +0.000 OA
BRANCH  13  15
ATOM     15  O   UNL     1       4.089   3.711  16.874  0.00  0.00    +0.000 OA
BRANCH  15  16
ATOM     16  C   UNL     1       3.943   2.557  17.716  0.00  0.00    +0.000 C 
BRANCH  16  17
ATOM     17  C   UNL     1       3.017   2.854  18.872  0.00  0.00    +0.000 A 
ATOM     18  C   UNL     1       3.437   2.716  20.202  0.00  0.00    +0.000 A 
ATOM     19  C   UNL     1       2.569   3.008  21.256  0.00  0.00    +0.000 A 
ATOM     20  C   UNL     1       1.276   3.454  20.993  0.00  0.00    +0.000 A 
ATOM     21  C   UNL     1       0.852   3.618  19.675  0.00  0.00    +0.000 A 
ATOM     22  C   UNL     1       1.718   3.324  18.621  0.00  0.00    +0.000 A 
ENDBRANCH  16  17
ENDBRANCH  15  16
ENDBRANCH  13  15
ENDBRANCH   1  13
BRANCH   1  23
ATOM     23  C   UNL     1       7.206   4.737  17.877  0.00  0.00    +0.000 C 
BRANCH  23  25
ATOM     24  N   UNL     1       8.049   5.440  20.046  0.00  0.00    +0.000 N 
ATOM     25  C   UNL     1       7.734   5.835  18.778  0.00  0.00    +0.000 C 
ATOM     26  O   UNL     1       7.941   6.985  18.408  0.00  0.00    +0.000 OA
ATOM     27  H   UNL     1       8.429   6.155  20.655  0.00  0.00    +0.000 HD
ATOM     28  H   UNL     1       8.268   4.479  20.268  0.00  0.00    +0.000 HD
ENDBRANCH  23  25
ENDBRANCH   1  23
TORSDOF 8
ENDMDL
MODEL 2
REMARK VINA RESULT:      -7.7      1.004      1.739
REMARK  Name = 
REMARK  8 active torsions:
REMARK  status: ('A' for Active; 'I' for Inactive)
REMARK    1  A    between atoms: C_2  and  C_4
REMARK    2  A    between atoms: C_4  and  C_5
REMARK    3  A    between atoms: C_5  and  N_6
REMARK    4  A    between atoms: C_5  and  C_16
REMARK    5  A    between atoms: C_7  and  C_9
REMARK    6  A    between atoms: C_16  and  O_18
REMARK    7  A    between atoms: O_18  and  C_19
REMARK    8  A    between atoms: C_19  and  C_20
REMARK                            x       y       z     vdW  Elec       q    Type
REMARK                         _______ _______ _______ _____ _____    ______ ____
ROOT
ATOM      1  C   UNL     1       5.298   6.024  16.805  0.00  0.00    +0.000 C 
ENDROOT
BRANCH   1   2
ATOM      2  N   UNL     1       4.408   6.467  17.878  0.00  0.00    +0.000 N 
ATOM      3  C   UNL     1       3.431   7.413  17.650  0.00  0.00    +0.000 C 
ATOM      4  O   UNL     1       3.296   7.994  16.572  0.00  0.00    +0.000 OA
ATOM      5  H   UNL     1       4.308   5.830  18.667  0.00  0.00    +0.000 HD
BRANCH   3   6
ATOM      6  C   UNL     1       2.500   7.707  18.769  0.00  0.00    +0.000 A 
ATOM      7  C   UNL     1       2.344   6.834  19.855  0.00  0.00    +0.000 A 
ATOM      8  C   UNL     1       1.470   7.164  20.897  0.00  0.00    +0.000 A 
ATOM      9  C   UNL     1       0.760   8.363  20.858  0.00  0.00    +0.000 A 
ATOM     10 CL   UNL     1      -0.330   8.753  22.133  0.00  0.00    +0.000 Cl
ATOM     11  C   UNL     1       0.928   9.249  19.797  0.00  0.00    +0.000 A 
ATOM     12  C   UNL     1       1.804   8.926  18.758  0.00  0.00    +0.000 A 
ENDBRANCH   3   6
ENDBRANCH   1   2
BRANCH   1  13
ATOM     13  C   UNL     1       4.985   4.581  16.369  0.00  0.00    +0.000 C 
ATOM     14  O   UNL     1       5.678   3.915  15.611  0.00  0.00    +0.000 OA
BRANCH  13  15
ATOM     15  O   UNL     1       3.846   4.135  16.961  0.00  0.00    +0.000 OA
BRANCH  15  16
ATOM     16  C   UNL     1       3.976   2.979  17.803  0.00  0.00    +0.000 C 
BRANCH  16  17
ATOM     17  C   UNL     1       3.021   3.058  18.971  0.00  0.00    +0.000 A 
ATOM     18  C   UNL     1       1.669   3.381  18.791  0.00  0.00    +0.000 A 
ATOM     19  C   UNL     1       0.799   3.436  19.882  0.00  0.00    +0.000 A 
ATOM     20  C   UNL     1       1.268   3.154  21.163  0.00  0.00    +0.000 A 
ATOM     21  C   UNL     1       2.605   2.809  21.354  0.00  0.00    +0.000 A 
ATOM     22  C   UNL     1       3.475   2.757  20.264  0.00  0.00    +0.000 A 
ENDBRANCH  16  17
ENDBRANCH  15  16
ENDBRANCH  13  15
ENDBRANCH   1  13
BRANCH   1  23
ATOM     23  C   UNL     1       6.776   6.157  17.194  0.00  0.00    +0.000 C 
BRANCH  23  25
ATOM     24  N   UNL     1       8.090   4.194  17.770  0.00  0.00    +0.000 N 
ATOM     25  C   UNL     1       7.212   5.135  18.225  0.00  0.00    +0.000 C 
ATOM     26  O   UNL     1       6.877   5.165  19.403  0.00  0.00    +0.000 OA
ATOM     27  H   UNL     1       8.413   3.519  18.451  0.00  0.00    +0.000 HD
ATOM     28  H   UNL     1       8.677   4.356  16.964  0.00  0.00    +0.000 HD
ENDBRANCH  23  25
ENDBRANCH   1  23
TORSDOF 8
ENDMDL
MODEL 3
REMARK VINA RESULT:      -7.7      1.669      2.355
REMARK  Name = 
REMARK  8 active torsions:
REMARK  status: ('A' for Active; 'I' for Inactive)
REMARK    1  A    between atoms: C_2  and  C_4
REMARK    2  A    between atoms: C_4  and  C_5
REMARK    3  A    between atoms: C_5  and  N_6
REMARK    4  A    between atoms: C_5  and  C_16
REMARK    5  A    between atoms: C_7  and  C_9
REMARK    6  A    between atoms: C_16  and  O_18
REMARK    7  A    between atoms: O_18  and  C_19
REMARK    8  A    between atoms: C_19  and  C_20
REMARK                            x       y       z     vdW  Elec       q    Type
REMARK                         _______ _______ _______ _____ _____    ______ ____
ROOT
ATOM      1  C   UNL     1       5.381   5.725  17.720  0.00  0.00    +0.000 C 
ENDROOT
BRANCH   1   2
ATOM      2  N   UNL     1       4.455   6.760  18.181  0.00  0.00    +0.000 N 
ATOM      3  C   UNL     1       3.090   6.567  18.139  0.00  0.00    +0.000 C 
ATOM      4  O   UNL     1       2.568   5.566  17.647  0.00  0.00    +0.000 OA
ATOM      5  H   UNL     1       4.839   7.447  18.828  0.00  0.00    +0.000 HD
BRANCH   3   6
ATOM      6  C   UNL     1       2.239   7.624  18.741  0.00  0.00    +0.000 A 
ATOM      7  C   UNL     1       1.913   7.628  20.105  0.00  0.00    +0.000 A 
ATOM      8  C   UNL     1       1.124   8.657  20.632  0.00  0.00    +0.000 A 
ATOM      9  C   UNL     1       0.667   9.680  19.802  0.00  0.00    +0.000 A 
ATOM     10 CL   UNL     1      -0.322  10.931  20.452  0.00  0.00    +0.000 Cl
ATOM     11  C   UNL     1       1.007   9.698  18.451  0.00  0.00    +0.000 A 
ATOM     12  C   UNL     1       1.800   8.677  17.923  0.00  0.00    +0.000 A 
ENDBRANCH   3   6
ENDBRANCH   1   2
BRANCH   1  13
ATOM     13  C   UNL     1       5.870   4.843  18.883  0.00  0.00    +0.000 C 
ATOM     14  O   UNL     1       6.587   5.228  19.797  0.00  0.00    +0.000 OA
BRANCH  13  15
ATOM     15  O   UNL     1       5.376   3.581  18.772  0.00  0.00    +0.000 OA
BRANCH  15  16
ATOM     16  C   UNL     1       4.780   3.024  19.954  0.00  0.00    +0.000 C 
BRANCH  16  17
ATOM     17  C   UNL     1       3.273   3.058  19.858  0.00  0.00    +0.000 A 
ATOM     18  C   UNL     1       2.503   3.868  20.703  0.00  0.00    +0.000 A 
ATOM     19  C   UNL     1       1.111   3.895  20.589  0.00  0.00    +0.000 A 
ATOM     20  C   UNL     1       0.475   3.122  19.620  0.00  0.00    +0.000 A 
ATOM     21  C   UNL     1       1.230   2.330  18.757  0.00  0.00    +0.000 A 
ATOM     22  C   UNL     1       2.621   2.301  18.872  0.00  0.00    +0.000 A 
ENDBRANCH  16  17
ENDBRANCH  15  16
ENDBRANCH  13  15
ENDBRANCH   1  13
BRANCH   1  23
ATOM     23  C   UNL     1       6.574   6.320  16.961  0.00  0.00    +0.000 C 
BRANCH  23  25
ATOM     24  N   UNL     1       7.863   4.262  16.873  0.00  0.00    +0.000 N 
ATOM     25  C   UNL     1       7.334   5.291  16.150  0.00  0.00    +0.000 C 
ATOM     26  O   UNL     1       7.427   5.315  14.928  0.00  0.00    +0.000 OA
ATOM     27  H   UNL     1       8.353   3.550  16.345  0.00  0.00    +0.000 HD
ATOM     28  H   UNL     1       7.492   3.996  17.774  0.00  0.00    +0.000 HD
ENDBRANCH  23  25
ENDBRANCH   1  23
TORSDOF 8
ENDMDL
MODEL 4
REMARK VINA RESULT:      -7.6      1.497      2.038
REMARK  Name = 
REMARK  8 active torsions:
REMARK  status: ('A' for Active; 'I' for Inactive)
REMARK    1  A    between atoms: C_2  and  C_4
REMARK    2  A    between atoms: C_4  and  C_5
REMARK    3  A    between atoms: C_5  and  N_6
REMARK    4  A    between atoms: C_5  and  C_16
REMARK    5  A    between atoms: C_7  and  C_9
REMARK    6  A    between atoms: C_16  and  O_18
REMARK    7  A    between atoms: O_18  and  C_19
REMARK    8  A    between atoms: C_19  and  C_20
REMARK                            x       y       z     vdW  Elec       q    Type
REMARK                         _______ _______ _______ _____ _____    ______ ____
ROOT
ATOM      1  C   UNL     1       5.747   5.607  17.514  0.00  0.00    +0.000 C 
ENDROOT
BRANCH   1   2
ATOM      2  N   UNL     1       4.818   6.654  17.939  0.00  0.00    +0.000 N 
ATOM      3  C   UNL     1       3.454   6.449  17.920  0.00  0.00    +0.000 C 
ATOM      4  O   UNL     1       2.935   5.423  17.478  0.00  0.00    +0.000 OA
ATOM      5  H   UNL     1       5.204   7.372  18.551  0.00  0.00    +0.000 HD
BRANCH   3   6
ATOM      6  C   UNL     1       2.601   7.525  18.484  0.00  0.00    +0.000 A 
ATOM      7  C   UNL     1       2.129   7.485  19.803  0.00  0.00    +0.000 A 
ATOM      8  C   UNL     1       1.344   8.533  20.298  0.00  0.00    +0.000 A 
ATOM      9  C   UNL     1       1.036   9.619  19.480  0.00  0.00    +0.000 A 
ATOM     10 CL   UNL     1       0.052  10.895  20.087  0.00  0.00    +0.000 Cl
ATOM     11  C   UNL     1       1.522   9.681  18.176  0.00  0.00    +0.000 A 
ATOM     12  C   UNL     1       2.311   8.640  17.681  0.00  0.00    +0.000 A 
ENDBRANCH   3   6
ENDBRANCH   1   2
BRANCH   1  13
ATOM     13  C   UNL     1       6.044   4.616  18.653  0.00  0.00    +0.000 C 
ATOM     14  O   UNL     1       6.842   4.813  19.560  0.00  0.00    +0.000 OA
BRANCH  13  15
ATOM     15  O   UNL     1       5.279   3.498  18.532  0.00  0.00    +0.000 OA
BRANCH  15  16
ATOM     16  C   UNL     1       4.739   2.960  19.748  0.00  0.00    +0.000 C 
BRANCH  16  17
ATOM     17  C   UNL     1       3.229   3.025  19.738  0.00  0.00    +0.000 A 
ATOM     18  C   UNL     1       2.526   3.877  20.600  0.00  0.00    +0.000 A 
ATOM     19  C   UNL     1       1.131   3.932  20.565  0.00  0.00    +0.000 A 
ATOM     20  C   UNL     1       0.425   3.146  19.657  0.00  0.00    +0.000 A 
ATOM     21  C   UNL     1       1.112   2.311  18.778  0.00  0.00    +0.000 A 
ATOM     22  C   UNL     1       2.506   2.254  18.814  0.00  0.00    +0.000 A 
ENDBRANCH  16  17
ENDBRANCH  15  16
ENDBRANCH  13  15
ENDBRANCH   1  13
BRANCH   1  23
ATOM     23  C   UNL     1       7.052   6.190  16.958  0.00  0.00    +0.000 C 
BRANCH  23  25
ATOM     24  N   UNL     1       8.300   7.212  18.778  0.00  0.00    +0.000 N 
ATOM     25  C   UNL     1       7.505   7.437  17.691  0.00  0.00    +0.000 C 
ATOM     26  O   UNL     1       7.253   8.578  17.323  0.00  0.00    +0.000 OA
ATOM     27  H   UNL     1       8.634   8.034  19.265  0.00  0.00    +0.000 HD
ATOM     28  H   UNL     1       8.838   6.363  18.880  0.00  0.00    +0.000 HD
ENDBRANCH  23  25
ENDBRANCH   1  23
TORSDOF 8
ENDMDL
MODEL 5
REMARK VINA RESULT:      -7.5      1.805      2.357
REMARK  Name = 
REMARK  8 active torsions:
REMARK  status: ('A' for Active; 'I' for Inactive)
REMARK    1  A    between atoms: C_2  and  C_4
REMARK    2  A    between atoms: C_4  and  C_5
REMARK    3  A    between atoms: C_5  and  N_6
REMARK    4  A    between atoms: C_5  and  C_16
REMARK    5  A    between atoms: C_7  and  C_9
REMARK    6  A    between atoms: C_16  and  O_18
REMARK    7  A    between atoms: O_18  and  C_19
REMARK    8  A    between atoms: C_19  and  C_20
REMARK                            x       y       z     vdW  Elec       q    Type
REMARK                         _______ _______ _______ _____ _____    ______ ____
ROOT
ATOM      1  C   UNL     1       4.748   4.702  17.862  0.00  0.00    +0.000 C 
ENDROOT
BRANCH   1   2
ATOM      2  N   UNL     1       4.139   5.993  18.184  0.00  0.00    +0.000 N 
ATOM      3  C   UNL     1       2.774   6.174  18.115  0.00  0.00    +0.000 C 
ATOM      4  O   UNL     1       2.000   5.306  17.708  0.00  0.00    +0.000 OA
ATOM      5  H   UNL     1       4.693   6.613  18.771  0.00  0.00    +0.000 HD
BRANCH   3   6
ATOM      6  C   UNL     1       2.241   7.481  18.577  0.00  0.00    +0.000 A 
ATOM      7  C   UNL     1       2.083   8.569  17.707  0.00  0.00    +0.000 A 
ATOM      8  C   UNL     1       1.557   9.775  18.183  0.00  0.00    +0.000 A 
ATOM      9  C   UNL     1       1.186   9.893  19.523  0.00  0.00    +0.000 A 
ATOM     10 CL   UNL     1       0.561  11.386  20.108  0.00  0.00    +0.000 Cl
ATOM     11  C   UNL     1       1.315   8.809  20.389  0.00  0.00    +0.000 A 
ATOM     12  C   UNL     1       1.833   7.602  19.915  0.00  0.00    +0.000 A 
ENDBRANCH   3   6
ENDBRANCH   1   2
BRANCH   1  13
ATOM     13  C   UNL     1       5.579   4.158  19.038  0.00  0.00    +0.000 C 
ATOM     14  O   UNL     1       6.319   4.833  19.741  0.00  0.00    +0.000 OA
BRANCH  13  15
ATOM     15  O   UNL     1       5.360   2.827  19.208  0.00  0.00    +0.000 OA
BRANCH  15  16
ATOM     16  C   UNL     1       4.573   2.451  20.348  0.00  0.00    +0.000 C 
BRANCH  16  17
ATOM     17  C   UNL     1       3.105   2.698  20.089  0.00  0.00    +0.000 A 
ATOM     18  C   UNL     1       2.412   2.007  19.085  0.00  0.00    +0.000 A 
ATOM     19  C   UNL     1       1.052   2.241  18.870  0.00  0.00    +0.000 A 
ATOM     20  C   UNL     1       0.367   3.157  19.666  0.00  0.00    +0.000 A 
ATOM     21  C   UNL     1       1.038   3.834  20.682  0.00  0.00    +0.000 A 
ATOM     22  C   UNL     1       2.398   3.603  20.896  0.00  0.00    +0.000 A 
ENDBRANCH  16  17
ENDBRANCH  15  16
ENDBRANCH  13  15
ENDBRANCH   1  13
BRANCH   1  23
ATOM     23  C   UNL     1       5.603   4.773  16.591  0.00  0.00    +0.000 C 
BRANCH  23  25
ATOM     24  N   UNL     1       7.336   6.478  16.600  0.00  0.00    +0.000 N 
ATOM     25  C   UNL     1       6.050   6.182  16.253  0.00  0.00    +0.000 C 
ATOM     26  O   UNL     1       5.357   6.995  15.653  0.00  0.00    +0.000 OA
ATOM     27  H   UNL     1       7.661   7.406  16.359  0.00  0.00    +0.000 HD
ATOM     28  H   UNL     1       8.036   5.760  16.722  0.00  0.00    +0.000 HD
ENDBRANCH  23  25
ENDBRANCH   1  23
TORSDOF 8
ENDMDL
MODEL 6
REMARK VINA RESULT:      -7.5      0.881      1.319
REMARK  Name = 
REMARK  8 active torsions:
REMARK  status: ('A' for Active; 'I' for Inactive)
REMARK    1  A    between atoms: C_2  and  C_4
REMARK    2  A    between atoms: C_4  and  C_5
REMARK    3  A    between atoms: C_5  and  N_6
REMARK    4  A    between atoms: C_5  and  C_16
REMARK    5  A    between atoms: C_7  and  C_9
REMARK    6  A    between atoms: C_16  and  O_18
REMARK    7  A    between atoms: O_18  and  C_19
REMARK    8  A    between atoms: C_19  and  C_20
REMARK                            x       y       z     vdW  Elec       q    Type
REMARK                         _______ _______ _______ _____ _____    ______ ____
ROOT
ATOM      1  C   UNL     1       5.381   5.680  16.870  0.00  0.00    +0.000 C 
ENDROOT
BRANCH   1   2
ATOM      2  N   UNL     1       4.473   6.180  17.903  0.00  0.00    +0.000 N 
ATOM      3  C   UNL     1       3.590   7.206  17.641  0.00  0.00    +0.000 C 
ATOM      4  O   UNL     1       3.562   7.811  16.568  0.00  0.00    +0.000 OA
ATOM      5  H   UNL     1       4.279   5.542  18.673  0.00  0.00    +0.000 HD
BRANCH   3   6
ATOM      6  C   UNL     1       2.628   7.560  18.715  0.00  0.00    +0.000 A 
ATOM      7  C   UNL     1       2.420   6.734  19.829  0.00  0.00    +0.000 A 
ATOM      8  C   UNL     1       1.518   7.120  20.827  0.00  0.00    +0.000 A 
ATOM      9  C   UNL     1       0.829   8.328  20.715  0.00  0.00    +0.000 A 
ATOM     10 CL   UNL     1      -0.295   8.786  21.935  0.00  0.00    +0.000 Cl
ATOM     11  C   UNL     1       1.049   9.167  19.625  0.00  0.00    +0.000 A 
ATOM     12  C   UNL     1       1.953   8.789  18.631  0.00  0.00    +0.000 A 
ENDBRANCH   3   6
ENDBRANCH   1   2
BRANCH   1  13
ATOM     13  C   UNL     1       5.025   4.241  16.451  0.00  0.00    +0.000 C 
ATOM     14  O   UNL     1       5.741   3.514  15.775  0.00  0.00    +0.000 OA
BRANCH  13  15
ATOM     15  O   UNL     1       3.817   3.877  16.956  0.00  0.00    +0.000 OA
BRANCH  15  16
ATOM     16  C   UNL     1       3.787   2.664  17.724  0.00  0.00    +0.000 C 
BRANCH  16  17
ATOM     17  C   UNL     1       2.920   2.829  18.950  0.00  0.00    +0.000 A 
ATOM     18  C   UNL     1       3.438   2.658  20.242  0.00  0.00    +0.000 A 
ATOM     19  C   UNL     1       2.623   2.829  21.363  0.00  0.00    +0.000 A 
ATOM     20  C   UNL     1       1.286   3.187  21.206  0.00  0.00    +0.000 A 
ATOM     21  C   UNL     1       0.764   3.384  19.929  0.00  0.00    +0.000 A 
ATOM     22  C   UNL     1       1.577   3.211  18.808  0.00  0.00    +0.000 A 
ENDBRANCH  16  17
ENDBRANCH  15  16
ENDBRANCH  13  15
ENDBRANCH   1  13
BRANCH   1  23
ATOM     23  C   UNL     1       6.849   5.762  17.308  0.00  0.00    +0.000 C 
BRANCH  23  25
ATOM     24  N   UNL     1       8.080   6.118  19.374  0.00  0.00    +0.000 N 
ATOM     25  C   UNL     1       7.048   5.452  18.778  0.00  0.00    +0.000 C 
ATOM     26  O   UNL     1       6.314   4.718  19.429  0.00  0.00    +0.000 OA
ATOM     27  H   UNL     1       8.212   5.944  20.362  0.00  0.00    +0.000 HD
ATOM     28  H   UNL     1       8.439   6.987  19.005  0.00  0.00    +0.000 HD
ENDBRANCH  23  25
ENDBRANCH   1  23
TORSDOF 8
ENDMDL
MODEL 7
REMARK VINA RESULT:      -7.5      1.765      2.395
REMARK  Name = 
REMARK  8 active torsions:
REMARK  status: ('A' for Active; 'I' for Inactive)
REMARK    1  A    between atoms: C_2  and  C_4
REMARK    2  A    between atoms: C_4  and  C_5
REMARK    3  A    between atoms: C_5  and  N_6
REMARK    4  A    between atoms: C_5  and  C_16
REMARK    5  A    between atoms: C_7  and  C_9
REMARK    6  A    between atoms: C_16  and  O_18
REMARK    7  A    between atoms: O_18  and  C_19
REMARK    8  A    between atoms: C_19  and  C_20
REMARK                            x       y       z     vdW  Elec       q    Type
REMARK                         _______ _______ _______ _____ _____    ______ ____
ROOT
ATOM      1  C   UNL     1       4.774   4.773  17.476  0.00  0.00    +0.000 C 
ENDROOT
BRANCH   1   2
ATOM      2  N   UNL     1       4.125   5.985  17.975  0.00  0.00    +0.000 N 
ATOM      3  C   UNL     1       2.751   6.092  18.021  0.00  0.00    +0.000 C 
ATOM      4  O   UNL     1       1.995   5.226  17.579  0.00  0.00    +0.000 OA
ATOM      5  H   UNL     1       4.690   6.574  18.585  0.00  0.00    +0.000 HD
BRANCH   3   6
ATOM      6  C   UNL     1       2.188   7.310  18.656  0.00  0.00    +0.000 A 
ATOM      7  C   UNL     1       1.933   7.380  20.033  0.00  0.00    +0.000 A 
ATOM      8  C   UNL     1       1.422   8.557  20.591  0.00  0.00    +0.000 A 
ATOM      9  C   UNL     1       1.171   9.662  19.777  0.00  0.00    +0.000 A 
ATOM     10 CL   UNL     1       0.521  11.100  20.465  0.00  0.00    +0.000 Cl
ATOM     11  C   UNL     1       1.446   9.611  18.412  0.00  0.00    +0.000 A 
ATOM     12  C   UNL     1       1.963   8.440  17.854  0.00  0.00    +0.000 A 
ENDBRANCH   3   6
ENDBRANCH   1   2
BRANCH   1  13
ATOM     13  C   UNL     1       5.884   4.291  18.427  0.00  0.00    +0.000 C 
ATOM     14  O   UNL     1       7.075   4.251  18.146  0.00  0.00    +0.000 OA
BRANCH  13  15
ATOM     15  O   UNL     1       5.366   3.939  19.634  0.00  0.00    +0.000 OA
BRANCH  15  16
ATOM     16  C   UNL     1       4.738   2.650  19.706  0.00  0.00    +0.000 C 
BRANCH  16  17
ATOM     17  C   UNL     1       3.234   2.789  19.732  0.00  0.00    +0.000 A 
ATOM     18  C   UNL     1       2.419   2.100  18.823  0.00  0.00    +0.000 A 
ATOM     19  C   UNL     1       1.030   2.232  18.872  0.00  0.00    +0.000 A 
ATOM     20  C   UNL     1       0.439   3.042  19.841  0.00  0.00    +0.000 A 
ATOM     21  C   UNL     1       1.237   3.713  20.766  0.00  0.00    +0.000 A 
ATOM     22  C   UNL     1       2.625   3.584  20.715  0.00  0.00    +0.000 A 
ENDBRANCH  16  17
ENDBRANCH  15  16
ENDBRANCH  13  15
ENDBRANCH   1  13
BRANCH   1  23
ATOM     23  C   UNL     1       5.329   4.962  16.058  0.00  0.00    +0.000 C 
BRANCH  23  25
ATOM     24  N   UNL     1       7.587   5.518  15.349  0.00  0.00    +0.000 N 
ATOM     25  C   UNL     1       6.469   5.959  15.995  0.00  0.00    +0.000 C 
ATOM     26  O   UNL     1       6.399   7.107  16.420  0.00  0.00    +0.000 OA
ATOM     27  H   UNL     1       8.350   6.180  15.274  0.00  0.00    +0.000 HD
ATOM     28  H   UNL     1       7.552   4.773  14.668  0.00  0.00    +0.000 HD
ENDBRANCH  23  25
ENDBRANCH   1  23
TORSDOF 8
ENDMDL
MODEL 8
REMARK VINA RESULT:      -7.4      1.181      1.638
REMARK  Name = 
REMARK  8 active torsions:
REMARK  status: ('A' for Active; 'I' for Inactive)
REMARK    1  A    between atoms: C_2  and  C_4
REMARK    2  A    between atoms: C_4  and  C_5
REMARK    3  A    between atoms: C_5  and  N_6
REMARK    4  A    between atoms: C_5  and  C_16
REMARK    5  A    between atoms: C_7  and  C_9
REMARK    6  A    between atoms: C_16  and  O_18
REMARK    7  A    between atoms: O_18  and  C_19
REMARK    8  A    between atoms: C_19  and  C_20
REMARK                            x       y       z     vdW  Elec       q    Type
REMARK                         _______ _______ _______ _____ _____    ______ ____
ROOT
ATOM      1  C   UNL     1       4.689   5.881  16.962  0.00  0.00    +0.000 C 
ENDROOT
BRANCH   1   2
ATOM      2  N   UNL     1       3.872   6.421  18.050  0.00  0.00    +0.000 N 
ATOM      3  C   UNL     1       3.113   7.559  17.874  0.00  0.00    +0.000 C 
ATOM      4  O   UNL     1       3.134   8.228  16.841  0.00  0.00    +0.000 OA
ATOM      5  H   UNL     1       3.620   5.765  18.787  0.00  0.00    +0.000 HD
BRANCH   3   6
ATOM      6  C   UNL     1       2.225   7.958  18.996  0.00  0.00    +0.000 A 
ATOM      7  C   UNL     1       1.481   9.146  18.967  0.00  0.00    +0.000 A 
ATOM      8  C   UNL     1       0.641   9.472  20.038  0.00  0.00    +0.000 A 
ATOM      9  C   UNL     1       0.541   8.611  21.132  0.00  0.00    +0.000 A 
ATOM     10 CL   UNL     1      -0.476   9.027  22.457  0.00  0.00    +0.000 Cl
ATOM     11  C   UNL     1       1.257   7.416  21.158  0.00  0.00    +0.000 A 
ATOM     12  C   UNL     1       2.091   7.086  20.087  0.00  0.00    +0.000 A 
ENDBRANCH   3   6
ENDBRANCH   1   2
BRANCH   1  13
ATOM     13  C   UNL     1       4.369   4.399  16.695  0.00  0.00    +0.000 C 
ATOM     14  O   UNL     1       5.197   3.551  16.389  0.00  0.00    +0.000 OA
BRANCH  13  15
ATOM     15  O   UNL     1       3.043   4.153  16.870  0.00  0.00    +0.000 OA
BRANCH  15  16
ATOM     16  C   UNL     1       2.701   2.872  17.421  0.00  0.00    +0.000 C 
BRANCH  16  17
ATOM     17  C   UNL     1       2.421   2.985  18.901  0.00  0.00    +0.000 A 
ATOM     18  C   UNL     1       1.209   3.501  19.380  0.00  0.00    +0.000 A 
ATOM     19  C   UNL     1       0.964   3.585  20.753  0.00  0.00    +0.000 A 
ATOM     20  C   UNL     1       1.923   3.140  21.661  0.00  0.00    +0.000 A 
ATOM     21  C   UNL     1       3.122   2.603  21.198  0.00  0.00    +0.000 A 
ATOM     22  C   UNL     1       3.368   2.521  19.827  0.00  0.00    +0.000 A 
ENDBRANCH  16  17
ENDBRANCH  15  16
ENDBRANCH  13  15
ENDBRANCH   1  13
BRANCH   1  23
ATOM     23  C   UNL     1       6.189   6.066  17.226  0.00  0.00    +0.000 C 
BRANCH  23  25
ATOM     24  N   UNL     1       7.660   4.384  18.184  0.00  0.00    +0.000 N 
ATOM     25  C   UNL     1       6.678   5.297  18.437  0.00  0.00    +0.000 C 
ATOM     26  O   UNL     1       6.291   5.503  19.582  0.00  0.00    +0.000 OA
ATOM     27  H   UNL     1       8.018   3.879  18.985  0.00  0.00    +0.000 HD
ATOM     28  H   UNL     1       8.263   4.458  17.377  0.00  0.00    +0.000 HD
ENDBRANCH  23  25
ENDBRANCH   1  23
TORSDOF 8
ENDMDL
MODEL 9
REMARK VINA RESULT:      -7.3      1.631      2.418
REMARK  Name = 
REMARK  8 active torsions:
REMARK  status: ('A' for Active; 'I' for Inactive)
REMARK    1  A    between atoms: C_2  and  C_4
REMARK    2  A    between atoms: C_4  and  C_5
REMARK    3  A    between atoms: C_5  and  N_6
REMARK    4  A    between atoms: C_5  and  C_16
REMARK    5  A    between atoms: C_7  and  C_9
REMARK    6  A    between atoms: C_16  and  O_18
REMARK    7  A    between atoms: O_18  and  C_19
REMARK    8  A    between atoms: C_19  and  C_20
REMARK                            x       y       z     vdW  Elec       q    Type
REMARK                         _______ _______ _______ _____ _____    ______ ____
ROOT
ATOM      1  C   UNL     1       5.599   5.609  17.884  0.00  0.00    +0.000 C 
ENDROOT
BRANCH   1   2
ATOM      2  N   UNL     1       4.672   6.674  18.267  0.00  0.00    +0.000 N 
ATOM      3  C   UNL     1       3.324   6.581  17.990  0.00  0.00    +0.000 C 
ATOM      4  O   UNL     1       2.833   5.653  17.345  0.00  0.00    +0.000 OA
ATOM      5  H   UNL     1       4.983   7.288  19.018  0.00  0.00    +0.000 HD
BRANCH   3   6
ATOM      6  C   UNL     1       2.448   7.653  18.526  0.00  0.00    +0.000 A 
ATOM      7  C   UNL     1       1.938   8.673  17.709  0.00  0.00    +0.000 A 
ATOM      8  C   UNL     1       1.099   9.652  18.254  0.00  0.00    +0.000 A 
ATOM      9  C   UNL     1       0.767   9.610  19.608  0.00  0.00    +0.000 A 
ATOM     10 CL   UNL     1      -0.248  10.829  20.277  0.00  0.00    +0.000 Cl
ATOM     11  C   UNL     1       1.247   8.586  20.421  0.00  0.00    +0.000 A 
ATOM     12  C   UNL     1       2.079   7.604  19.879  0.00  0.00    +0.000 A 
ENDBRANCH   3   6
ENDBRANCH   1   2
BRANCH   1  13
ATOM     13  C   UNL     1       6.306   5.004  19.111  0.00  0.00    +0.000 C 
ATOM     14  O   UNL     1       7.460   5.244  19.440  0.00  0.00    +0.000 OA
BRANCH  13  15
ATOM     15  O   UNL     1       5.465   4.184  19.796  0.00  0.00    +0.000 OA
BRANCH  15  16
ATOM     16  C   UNL     1       4.779   3.187  19.025  0.00  0.00    +0.000 C 
BRANCH  16  17
ATOM     17  C   UNL     1       3.303   3.183  19.350  0.00  0.00    +0.000 A 
ATOM     18  C   UNL     1       2.394   2.404  18.620  0.00  0.00    +0.000 A 
ATOM     19  C   UNL     1       1.036   2.404  18.944  0.00  0.00    +0.000 A 
ATOM     20  C   UNL     1       0.574   3.171  20.012  0.00  0.00    +0.000 A 
ATOM     21  C   UNL     1       1.469   3.931  20.761  0.00  0.00    +0.000 A 
ATOM     22  C   UNL     1       2.827   3.934  20.435  0.00  0.00    +0.000 A 
ENDBRANCH  16  17
ENDBRANCH  15  16
ENDBRANCH  13  15
ENDBRANCH   1  13
BRANCH   1  23
ATOM     23  C   UNL     1       6.630   6.089  16.855  0.00  0.00    +0.000 C 
BRANCH  23  25
ATOM     24  N   UNL     1       5.397   4.711  15.277  0.00  0.00    +0.000 N 
ATOM     25  C   UNL     1       6.597   5.295  15.565  0.00  0.00    +0.000 C 
ATOM     26  O   UNL     1       7.536   5.220  14.782  0.00  0.00    +0.000 OA
ATOM     27  H   UNL     1       5.347   4.198  14.406  0.00  0.00    +0.000 HD
ATOM     28  H   UNL     1       4.528   5.057  15.660  0.00  0.00    +0.000 HD
ENDBRANCH  23  25
ENDBRANCH   1  23
TORSDOF 8
ENDMDL
