MODEL 1
REMARK VINA RESULT:      -6.7      0.000      0.000
REMARK  Name = 
REMARK  4 active torsions:
REMARK  status: ('A' for Active; 'I' for Inactive)
REMARK    1  A    between atoms: C_1  and  C_2
REMARK    2  A    between atoms: C_5  and  C_6
REMARK    3  A    between atoms: N_8  and  C_9
REMARK    4  A    between atoms: N_8  and  C_15
REMARK                            x       y       z     vdW  Elec       q    Type
REMARK                         _______ _______ _______ _____ _____    ______ ____
ROOT
ATOM      1  C   UNL     1       3.633   7.279  17.775  0.00  0.00    +0.000 C 
ATOM      2  O   UNL     1       4.531   8.023  17.369  0.00  0.00    +0.000 OA
ATOM      3  N   UNL     1       3.673   5.857  17.719  0.00  0.00    +0.000 N 
ENDROOT
BRANCH   1   8
ATOM      4  C   UNL     1      -0.451  10.391  20.204  0.00  0.00    +0.000 C 
ATOM      5  C   UNL     1       0.562   9.517  19.535  0.00  0.00    +0.000 A 
ATOM      6  C   UNL     1       0.856   9.646  18.177  0.00  0.00    +0.000 A 
ATOM      7  N   UNL     1       1.798   8.904  17.540  0.00  0.00    +0.000 NA
ATOM      8  C   UNL     1       2.453   8.009  18.322  0.00  0.00    +0.000 A 
ATOM      9  C   UNL     1       2.150   7.863  19.674  0.00  0.00    +0.000 A 
ATOM     10  N   UNL     1       1.192   8.594  20.300  0.00  0.00    +0.000 NA
ENDBRANCH   1   8
BRANCH   3  11
ATOM     11  C   UNL     1       4.823   5.192  17.124  0.00  0.00    +0.000 A 
ATOM     12  C   UNL     1       4.752   4.587  15.859  0.00  0.00    +0.000 A 
ATOM     13  C   UNL     1       5.881   4.030  15.243  0.00  0.00    +0.000 A 
ATOM     14  C   UNL     1       7.116   4.063  15.880  0.00  0.00    +0.000 A 
ATOM     15  C   UNL     1       7.211   4.629  17.143  0.00  0.00    +0.000 A 
ATOM     16  C   UNL     1       6.077   5.175  17.757  0.00  0.00    +0.000 A 
ENDBRANCH   3  11
BRANCH   3  17
ATOM     17  C   UNL     1       2.702   5.036  18.482  0.00  0.00    +0.000 C 
ATOM     18  C   UNL     1       1.644   4.275  17.703  0.00  0.00    +0.000 C 
ATOM     19  C   UNL     1       1.215   3.188  18.674  0.00  0.00    +0.000 C 
ATOM     20  O   UNL     1       2.197   3.077  19.713  0.00  0.00    +0.000 OA
ATOM     21  C   UNL     1       3.277   3.969  19.416  0.00  0.00    +0.000 C 
ENDBRANCH   3  17
TORSDOF 3
ENDMDL
MODEL 2
REMARK VINA RESULT:      -6.5      2.484      5.609
REMARK  Name = 
REMARK  4 active torsions:
REMARK  status: ('A' for Active; 'I' for Inactive)
REMARK    1  A    between atoms: C_1  and  C_2
REMARK    2  A    between atoms: C_5  and  C_6
REMARK    3  A    between atoms: N_8  and  C_9
REMARK    4  A    between atoms: N_8  and  C_15
REMARK                            x       y       z     vdW  Elec       q    Type
REMARK                         _______ _______ _______ _____ _____    ______ ____
ROOT
ATOM      1  C   UNL     1       5.070   4.739  18.757  0.00  0.00    +0.000 C 
ATOM      2  O   UNL     1       5.504   3.590  18.884  0.00  0.00    +0.000 OA
ATOM      3  N   UNL     1       3.705   5.110  18.916  0.00  0.00    +0.000 N 
ENDROOT
BRANCH   1   8
ATOM      4  C   UNL     1       8.634   8.983  17.513  0.00  0.00    +0.000 C 
ATOM      5  C   UNL     1       7.749   7.810  17.796  0.00  0.00    +0.000 A 
ATOM      6  C   UNL     1       8.009   6.937  18.852  0.00  0.00    +0.000 A 
ATOM      7  N   UNL     1       7.209   5.887  19.171  0.00  0.00    +0.000 NA
ATOM      8  C   UNL     1       6.114   5.736  18.383  0.00  0.00    +0.000 A 
ATOM      9  C   UNL     1       5.860   6.595  17.316  0.00  0.00    +0.000 A 
ATOM     10  N   UNL     1       6.676   7.630  16.989  0.00  0.00    +0.000 NA
ENDBRANCH   1   8
BRANCH   3  11
ATOM     11  C   UNL     1       2.713   4.091  19.226  0.00  0.00    +0.000 A 
ATOM     12  C   UNL     1       2.525   3.620  20.536  0.00  0.00    +0.000 A 
ATOM     13  C   UNL     1       1.508   2.711  20.854  0.00  0.00    +0.000 A 
ATOM     14  C   UNL     1       0.648   2.246  19.866  0.00  0.00    +0.000 A 
ATOM     15  C   UNL     1       0.826   2.672  18.559  0.00  0.00    +0.000 A 
ATOM     16  C   UNL     1       1.851   3.574  18.245  0.00  0.00    +0.000 A 
ENDBRANCH   3  11
BRANCH   3  17
ATOM     17  C   UNL     1       3.310   6.535  19.036  0.00  0.00    +0.000 C 
ATOM     18  C   UNL     1       2.757   7.228  17.803  0.00  0.00    +0.000 C 
ATOM     19  C   UNL     1       1.994   8.407  18.383  0.00  0.00    +0.000 C 
ATOM     20  O   UNL     1       1.782   8.182  19.784  0.00  0.00    +0.000 OA
ATOM     21  C   UNL     1       2.285   6.884  20.118  0.00  0.00    +0.000 C 
ENDBRANCH   3  17
TORSDOF 3
ENDMDL
MODEL 3
REMARK VINA RESULT:      -6.5      2.237      6.211
REMARK  Name = 
REMARK  4 active torsions:
REMARK  status: ('A' for Active; 'I' for Inactive)
REMARK    1  A    between atoms: C_1  and  C_2
REMARK    2  A    between atoms: C_5  and  C_6
REMARK    3  A    between atoms: N_8  and  C_9
REMARK    4  A    between atoms: N_8  and  C_15
REMARK                            x       y       z     vdW  Elec       q    Type
REMARK                         _______ _______ _______ _____ _____    ______ ____
ROOT
ATOM      1  C   UNL     1       4.530   3.908  17.505  0.00  0.00    +0.000 C 
ATOM      2  O   UNL     1       4.928   2.843  17.985  0.00  0.00    +0.000 OA
ATOM      3  N   UNL     1       3.402   4.638  17.976  0.00  0.00    +0.000 N 
ENDROOT
BRANCH   1   8
ATOM      4  C   UNL     1       7.964   5.192  13.166  0.00  0.00    +0.000 C 
ATOM      5  C   UNL     1       7.022   4.934  14.299  0.00  0.00    +0.000 A 
ATOM      6  C   UNL     1       5.721   4.481  14.079  0.00  0.00    +0.000 A 
ATOM      7  N   UNL     1       4.848   4.191  15.079  0.00  0.00    +0.000 NA
ATOM      8  C   UNL     1       5.330   4.374  16.335  0.00  0.00    +0.000 A 
ATOM      9  C   UNL     1       6.622   4.843  16.560  0.00  0.00    +0.000 A 
ATOM     10  N   UNL     1       7.483   5.151  15.555  0.00  0.00    +0.000 NA
ENDBRANCH   1   8
BRANCH   3  11
ATOM     11  C   UNL     1       2.618   4.114  19.086  0.00  0.00    +0.000 A 
ATOM     12  C   UNL     1       1.561   3.213  18.881  0.00  0.00    +0.000 A 
ATOM     13  C   UNL     1       0.867   2.634  19.951  0.00  0.00    +0.000 A 
ATOM     14  C   UNL     1       1.214   2.941  21.261  0.00  0.00    +0.000 A 
ATOM     15  C   UNL     1       2.236   3.849  21.495  0.00  0.00    +0.000 A 
ATOM     16  C   UNL     1       2.920   4.432  20.420  0.00  0.00    +0.000 A 
ENDBRANCH   3  11
BRANCH   3  17
ATOM     17  C   UNL     1       3.163   6.037  17.545  0.00  0.00    +0.000 C 
ATOM     18  C   UNL     1       1.872   6.706  17.981  0.00  0.00    +0.000 C 
ATOM     19  C   UNL     1       2.189   8.186  17.852  0.00  0.00    +0.000 C 
ATOM     20  O   UNL     1       3.611   8.352  17.760  0.00  0.00    +0.000 OA
ATOM     21  C   UNL     1       4.230   7.069  17.915  0.00  0.00    +0.000 C 
ENDBRANCH   3  17
TORSDOF 3
ENDMDL
MODEL 4
REMARK VINA RESULT:      -6.5      2.450      5.531
REMARK  Name = 
REMARK  4 active torsions:
REMARK  status: ('A' for Active; 'I' for Inactive)
REMARK    1  A    between atoms: C_1  and  C_2
REMARK    2  A    between atoms: C_5  and  C_6
REMARK    3  A    between atoms: N_8  and  C_9
REMARK    4  A    between atoms: N_8  and  C_15
REMARK                            x       y       z     vdW  Elec       q    Type
REMARK                         _______ _______ _______ _____ _____    ______ ____
ROOT
ATOM      1  C   UNL     1       4.928   4.764  18.795  0.00  0.00    +0.000 C 
ATOM      2  O   UNL     1       5.329   3.606  18.947  0.00  0.00    +0.000 OA
ATOM      3  N   UNL     1       3.573   5.177  18.941  0.00  0.00    +0.000 N 
ENDROOT
BRANCH   1   8
ATOM      4  C   UNL     1       8.623   8.878  17.499  0.00  0.00    +0.000 C 
ATOM      5  C   UNL     1       7.701   7.738  17.795  0.00  0.00    +0.000 A 
ATOM      6  C   UNL     1       7.943   6.858  18.850  0.00  0.00    +0.000 A 
ATOM      7  N   UNL     1       7.110   5.837  19.182  0.00  0.00    +0.000 NA
ATOM      8  C   UNL     1       6.001   5.723  18.406  0.00  0.00    +0.000 A 
ATOM      9  C   UNL     1       5.764   6.589  17.341  0.00  0.00    +0.000 A 
ATOM     10  N   UNL     1       6.612   7.594  17.002  0.00  0.00    +0.000 NA
ENDBRANCH   1   8
BRANCH   3  11
ATOM     11  C   UNL     1       2.551   4.193  19.267  0.00  0.00    +0.000 A 
ATOM     12  C   UNL     1       1.791   3.562  18.269  0.00  0.00    +0.000 A 
ATOM     13  C   UNL     1       0.874   2.546  18.571  0.00  0.00    +0.000 A 
ATOM     14  C   UNL     1       0.693   2.133  19.885  0.00  0.00    +0.000 A 
ATOM     15  C   UNL     1       1.409   2.756  20.895  0.00  0.00    +0.000 A 
ATOM     16  C   UNL     1       2.317   3.778  20.588  0.00  0.00    +0.000 A 
ENDBRANCH   3  11
BRANCH   3  17
ATOM     17  C   UNL     1       3.219   6.615  19.031  0.00  0.00    +0.000 C 
ATOM     18  C   UNL     1       2.661   7.290  17.791  0.00  0.00    +0.000 C 
ATOM     19  C   UNL     1       1.941   8.504  18.354  0.00  0.00    +0.000 C 
ATOM     20  O   UNL     1       1.749   8.321  19.763  0.00  0.00    +0.000 OA
ATOM     21  C   UNL     1       2.224   7.018  20.122  0.00  0.00    +0.000 C 
ENDBRANCH   3  17
TORSDOF 3
ENDMDL
MODEL 5
REMARK VINA RESULT:      -6.4      2.308      6.336
REMARK  Name = 
REMARK  4 active torsions:
REMARK  status: ('A' for Active; 'I' for Inactive)
REMARK    1  A    between atoms: C_1  and  C_2
REMARK    2  A    between atoms: C_5  and  C_6
REMARK    3  A    between atoms: N_8  and  C_9
REMARK    4  A    between atoms: N_8  and  C_15
REMARK                            x       y       z     vdW  Elec       q    Type
REMARK                         _______ _______ _______ _____ _____    ______ ____
ROOT
ATOM      1  C   UNL     1       4.583   3.758  17.389  0.00  0.00    +0.000 C 
ATOM      2  O   UNL     1       4.974   2.672  17.826  0.00  0.00    +0.000 OA
ATOM      3  N   UNL     1       3.470   4.483  17.901  0.00  0.00    +0.000 N 
ENDROOT
BRANCH   1   8
ATOM      4  C   UNL     1       7.972   5.153  13.050  0.00  0.00    +0.000 C 
ATOM      5  C   UNL     1       7.044   4.867  14.187  0.00  0.00    +0.000 A 
ATOM      6  C   UNL     1       5.729   4.454  13.971  0.00  0.00    +0.000 A 
ATOM      7  N   UNL     1       4.867   4.141  14.973  0.00  0.00    +0.000 NA
ATOM      8  C   UNL     1       5.374   4.256  16.227  0.00  0.00    +0.000 A 
ATOM      9  C   UNL     1       6.681   4.686  16.448  0.00  0.00    +0.000 A 
ATOM     10  N   UNL     1       7.531   5.018  15.442  0.00  0.00    +0.000 NA
ENDBRANCH   1   8
BRANCH   3  11
ATOM     11  C   UNL     1       2.694   3.929  19.001  0.00  0.00    +0.000 A 
ATOM     12  C   UNL     1       3.000   4.222  20.340  0.00  0.00    +0.000 A 
ATOM     13  C   UNL     1       2.199   3.769  21.396  0.00  0.00    +0.000 A 
ATOM     14  C   UNL     1       1.065   3.006  21.140  0.00  0.00    +0.000 A 
ATOM     15  C   UNL     1       0.753   2.678  19.830  0.00  0.00    +0.000 A 
ATOM     16  C   UNL     1       1.564   3.126  18.779  0.00  0.00    +0.000 A 
ENDBRANCH   3  11
BRANCH   3  17
ATOM     17  C   UNL     1       3.242   5.900  17.524  0.00  0.00    +0.000 C 
ATOM     18  C   UNL     1       1.963   6.567  17.997  0.00  0.00    +0.000 C 
ATOM     19  C   UNL     1       2.296   8.047  17.919  0.00  0.00    +0.000 C 
ATOM     20  O   UNL     1       3.719   8.201  17.819  0.00  0.00    +0.000 OA
ATOM     21  C   UNL     1       4.324   6.907  17.921  0.00  0.00    +0.000 C 
ENDBRANCH   3  17
TORSDOF 3
ENDMDL
MODEL 6
REMARK VINA RESULT:      -6.3      0.177      1.058
REMARK  Name = 
REMARK  4 active torsions:
REMARK  status: ('A' for Active; 'I' for Inactive)
REMARK    1  A    between atoms: C_1  and  C_2
REMARK    2  A    between atoms: C_5  and  C_6
REMARK    3  A    between atoms: N_8  and  C_9
REMARK    4  A    between atoms: N_8  and  C_15
REMARK                            x       y       z     vdW  Elec       q    Type
REMARK                         _______ _______ _______ _____ _____    ______ ____
ROOT
ATOM      1  C   UNL     1       3.594   7.354  17.823  0.00  0.00    +0.000 C 
ATOM      2  O   UNL     1       4.455   8.142  17.421  0.00  0.00    +0.000 OA
ATOM      3  N   UNL     1       3.672   5.938  17.701  0.00  0.00    +0.000 N 
ENDROOT
BRANCH   1   8
ATOM      4  C   UNL     1      -0.491  10.226  20.530  0.00  0.00    +0.000 C 
ATOM      5  C   UNL     1       0.522   9.414  19.787  0.00  0.00    +0.000 A 
ATOM      6  C   UNL     1       0.772   9.623  18.430  0.00  0.00    +0.000 A 
ATOM      7  N   UNL     1       1.713   8.941  17.727  0.00  0.00    +0.000 NA
ATOM      8  C   UNL     1       2.412   8.022  18.442  0.00  0.00    +0.000 A 
ATOM      9  C   UNL     1       2.154   7.798  19.792  0.00  0.00    +0.000 A 
ATOM     10  N   UNL     1       1.197   8.469  20.484  0.00  0.00    +0.000 NA
ENDBRANCH   1   8
BRANCH   3  11
ATOM     11  C   UNL     1       4.819   5.334  17.039  0.00  0.00    +0.000 A 
ATOM     12  C   UNL     1       6.084   5.296  17.647  0.00  0.00    +0.000 A 
ATOM     13  C   UNL     1       7.167   4.633  17.056  0.00  0.00    +0.000 A 
ATOM     14  C   UNL     1       7.013   3.987  15.835  0.00  0.00    +0.000 A 
ATOM     15  C   UNL     1       5.783   4.031  15.197  0.00  0.00    +0.000 A 
ATOM     16  C   UNL     1       4.706   4.705  15.789  0.00  0.00    +0.000 A 
ENDBRANCH   3  11
BRANCH   3  17
ATOM     17  C   UNL     1       2.752   5.054  18.459  0.00  0.00    +0.000 C 
ATOM     18  C   UNL     1       1.655   4.339  17.690  0.00  0.00    +0.000 C 
ATOM     19  C   UNL     1       1.291   3.181  18.604  0.00  0.00    +0.000 C 
ATOM     20  O   UNL     1       2.332   3.008  19.575  0.00  0.00    +0.000 OA
ATOM     21  C   UNL     1       3.388   3.930  19.280  0.00  0.00    +0.000 C 
ENDBRANCH   3  17
TORSDOF 3
ENDMDL
MODEL 7
REMARK VINA RESULT:      -6.1      1.721      3.788
REMARK  Name = 
REMARK  4 active torsions:
REMARK  status: ('A' for Active; 'I' for Inactive)
REMARK    1  A    between atoms: C_1  and  C_2
REMARK    2  A    between atoms: C_5  and  C_6
REMARK    3  A    between atoms: N_8  and  C_9
REMARK    4  A    between atoms: N_8  and  C_15
REMARK                            x       y       z     vdW  Elec       q    Type
REMARK                         _______ _______ _______ _____ _____    ______ ____
ROOT
ATOM      1  C   UNL     1       2.415   6.001  18.880  0.00  0.00    +0.000 C 
ATOM      2  O   UNL     1       1.401   5.354  19.160  0.00  0.00    +0.000 OA
ATOM      3  N   UNL     1       3.683   5.429  18.575  0.00  0.00    +0.000 N 
ENDROOT
BRANCH   1   8
ATOM      4  C   UNL     1       1.114  11.527  18.679  0.00  0.00    +0.000 C 
ATOM      5  C   UNL     1       1.537  10.094  18.762  0.00  0.00    +0.000 A 
ATOM      6  C   UNL     1       1.479   9.383  19.960  0.00  0.00    +0.000 A 
ATOM      7  N   UNL     1       1.810   8.070  20.071  0.00  0.00    +0.000 NA
ATOM      8  C   UNL     1       2.211   7.479  18.917  0.00  0.00    +0.000 A 
ATOM      9  C   UNL     1       2.288   8.189  17.721  0.00  0.00    +0.000 A 
ATOM     10  N   UNL     1       1.975   9.507  17.622  0.00  0.00    +0.000 NA
ENDBRANCH   1   8
BRANCH   3  11
ATOM     11  C   UNL     1       3.846   3.983  18.607  0.00  0.00    +0.000 A 
ATOM     12  C   UNL     1       4.366   3.325  19.733  0.00  0.00    +0.000 A 
ATOM     13  C   UNL     1       4.436   1.928  19.805  0.00  0.00    +0.000 A 
ATOM     14  C   UNL     1       3.986   1.148  18.746  0.00  0.00    +0.000 A 
ATOM     15  C   UNL     1       3.493   1.770  17.609  0.00  0.00    +0.000 A 
ATOM     16  C   UNL     1       3.435   3.168  17.540  0.00  0.00    +0.000 A 
ENDBRANCH   3  11
BRANCH   3  17
ATOM     17  C   UNL     1       4.763   6.246  17.971  0.00  0.00    +0.000 C 
ATOM     18  C   UNL     1       6.190   5.982  18.416  0.00  0.00    +0.000 C 
ATOM     19  C   UNL     1       7.019   6.555  17.279  0.00  0.00    +0.000 C 
ATOM     20  O   UNL     1       6.174   6.742  16.135  0.00  0.00    +0.000 OA
ATOM     21  C   UNL     1       4.870   6.237  16.444  0.00  0.00    +0.000 C 
ENDBRANCH   3  17
TORSDOF 3
ENDMDL
MODEL 8
REMARK VINA RESULT:      -6.0      2.724      5.352
REMARK  Name = 
REMARK  4 active torsions:
REMARK  status: ('A' for Active; 'I' for Inactive)
REMARK    1  A    between atoms: C_1  and  C_2
REMARK    2  A    between atoms: C_5  and  C_6
REMARK    3  A    between atoms: N_8  and  C_9
REMARK    4  A    between atoms: N_8  and  C_15
REMARK                            x       y       z     vdW  Elec       q    Type
REMARK                         _______ _______ _______ _____ _____    ______ ____
ROOT
ATOM      1  C   UNL     1       5.957   5.059  18.344  0.00  0.00    +0.000 C 
ATOM      2  O   UNL     1       6.567   3.986  18.364  0.00  0.00    +0.000 OA
ATOM      3  N   UNL     1       4.542   5.187  18.440  0.00  0.00    +0.000 N 
ENDROOT
BRANCH   1   8
ATOM      4  C   UNL     1       8.840   9.934  17.924  0.00  0.00    +0.000 C 
ATOM      5  C   UNL     1       8.144   8.612  17.986  0.00  0.00    +0.000 A 
ATOM      6  C   UNL     1       8.498   7.643  18.926  0.00  0.00    +0.000 A 
ATOM      7  N   UNL     1       7.865   6.448  19.047  0.00  0.00    +0.000 NA
ATOM      8  C   UNL     1       6.841   6.248  18.178  0.00  0.00    +0.000 A 
ATOM      9  C   UNL     1       6.495   7.204  17.226  0.00  0.00    +0.000 A 
ATOM     10  N   UNL     1       7.147   8.389  17.097  0.00  0.00    +0.000 NA
ENDBRANCH   1   8
BRANCH   3  11
ATOM     11  C   UNL     1       3.716   3.993  18.545  0.00  0.00    +0.000 A 
ATOM     12  C   UNL     1       3.531   3.330  19.769  0.00  0.00    +0.000 A 
ATOM     13  C   UNL     1       2.662   2.238  19.893  0.00  0.00    +0.000 A 
ATOM     14  C   UNL     1       1.951   1.778  18.791  0.00  0.00    +0.000 A 
ATOM     15  C   UNL     1       2.134   2.395  17.563  0.00  0.00    +0.000 A 
ATOM     16  C   UNL     1       3.012   3.480  17.443  0.00  0.00    +0.000 A 
ENDBRANCH   3  11
BRANCH   3  17
ATOM     17  C   UNL     1       3.911   6.504  18.702  0.00  0.00    +0.000 C 
ATOM     18  C   UNL     1       3.366   7.281  17.517  0.00  0.00    +0.000 C 
ATOM     19  C   UNL     1       2.371   8.235  18.158  0.00  0.00    +0.000 C 
ATOM     20  O   UNL     1       2.073   7.776  19.484  0.00  0.00    +0.000 OA
ATOM     21  C   UNL     1       2.749   6.532  19.698  0.00  0.00    +0.000 C 
ENDBRANCH   3  17
TORSDOF 3
ENDMDL
MODEL 9
REMARK VINA RESULT:      -5.8      2.425      6.319
REMARK  Name = 
REMARK  4 active torsions:
REMARK  status: ('A' for Active; 'I' for Inactive)
REMARK    1  A    between atoms: C_1  and  C_2
REMARK    2  A    between atoms: C_5  and  C_6
REMARK    3  A    between atoms: N_8  and  C_9
REMARK    4  A    between atoms: N_8  and  C_15
REMARK                            x       y       z     vdW  Elec       q    Type
REMARK                         _______ _______ _______ _____ _____    ______ ____
ROOT
ATOM      1  C   UNL     1       4.595   3.545  17.594  0.00  0.00    +0.000 C 
ATOM      2  O   UNL     1       4.848   2.452  18.110  0.00  0.00    +0.000 OA
ATOM      3  N   UNL     1       3.534   4.405  17.997  0.00  0.00    +0.000 N 
ENDROOT
BRANCH   1   8
ATOM      4  C   UNL     1       7.650   5.367  13.165  0.00  0.00    +0.000 C 
ATOM      5  C   UNL     1       6.890   4.811  14.328  0.00  0.00    +0.000 A 
ATOM      6  C   UNL     1       7.401   4.858  15.624  0.00  0.00    +0.000 A 
ATOM      7  N   UNL     1       6.728   4.406  16.714  0.00  0.00    +0.000 NA
ATOM      8  C   UNL     1       5.497   3.893  16.458  0.00  0.00    +0.000 A 
ATOM      9  C   UNL     1       4.989   3.827  15.163  0.00  0.00    +0.000 A 
ATOM     10  N   UNL     1       5.678   4.262  14.075  0.00  0.00    +0.000 NA
ENDBRANCH   1   8
BRANCH   3  11
ATOM     11  C   UNL     1       2.645   3.996  19.074  0.00  0.00    +0.000 A 
ATOM     12  C   UNL     1       1.477   3.257  18.825  0.00  0.00    +0.000 A 
ATOM     13  C   UNL     1       0.670   2.780  19.866  0.00  0.00    +0.000 A 
ATOM     14  C   UNL     1       1.011   3.030  21.190  0.00  0.00    +0.000 A 
ATOM     15  C   UNL     1       2.144   3.781  21.466  0.00  0.00    +0.000 A 
ATOM     16  C   UNL     1       2.942   4.264  20.420  0.00  0.00    +0.000 A 
ENDBRANCH   3  11
BRANCH   3  17
ATOM     17  C   UNL     1       3.475   5.813  17.532  0.00  0.00    +0.000 C 
ATOM     18  C   UNL     1       2.260   6.639  17.916  0.00  0.00    +0.000 C 
ATOM     19  C   UNL     1       2.754   8.068  17.767  0.00  0.00    +0.000 C 
ATOM     20  O   UNL     1       4.187   8.064  17.716  0.00  0.00    +0.000 OA
ATOM     21  C   UNL     1       4.646   6.721  17.914  0.00  0.00    +0.000 C 
ENDBRANCH   3  17
TORSDOF 3
ENDMDL
