MODEL 1
REMARK VINA RESULT:      -6.8      0.000      0.000
REMARK  Name = 
REMARK  4 active torsions:
REMARK  status: ('A' for Active; 'I' for Inactive)
REMARK    1  A    between atoms: C_1  and  N_2
REMARK    2  A    between atoms: N_9  and  C_10
REMARK    3  A    between atoms: C_10  and  C_11
REMARK    4  A    between atoms: N_19  and  C_20
REMARK                            x       y       z     vdW  Elec       q    Type
REMARK                         _______ _______ _______ _____ _____    ______ ____
ROOT
ATOM      1  C   UNL     1       5.556   3.583  13.919  0.00  0.00    +0.000 C 
ATOM      2  N   UNL     1       6.188   4.503  14.829  0.00  0.00    +0.000 N 
ATOM      3  C   UNL     1       7.094   5.476  14.495  0.00  0.00    +0.000 A 
ATOM      4  N   UNL     1       7.537   6.112  15.561  0.00  0.00    +0.000 NA
ATOM      5  C   UNL     1       6.889   5.520  16.605  0.00  0.00    +0.000 A 
ATOM      6  C   UNL     1       6.041   4.543  16.185  0.00  0.00    +0.000 A 
ATOM      7  C   UNL     1       5.249   3.770  17.077  0.00  0.00    +0.000 A 
ATOM      8  O   UNL     1       4.503   2.874  16.686  0.00  0.00    +0.000 OA
ATOM      9  N   UNL     1       5.438   4.112  18.420  0.00  0.00    +0.000 N 
ATOM     10  C   UNL     1       6.381   5.046  18.891  0.00  0.00    +0.000 A 
ATOM     11  O   UNL     1       6.618   5.172  20.099  0.00  0.00    +0.000 OA
ATOM     12  N   UNL     1       7.063   5.806  17.935  0.00  0.00    +0.000 N 
ATOM     13  C   UNL     1       8.010   6.829  18.341  0.00  0.00    +0.000 C 
ENDROOT
BRANCH   9  14
ATOM     14  C   UNL     1       4.719   3.324  19.411  0.00  0.00    +0.000 C 
BRANCH  14  15
ATOM     15  C   UNL     1       3.300   3.788  19.675  0.00  0.00    +0.000 A 
ATOM     16  C   UNL     1       2.223   2.894  19.579  0.00  0.00    +0.000 A 
ATOM     17  C   UNL     1       0.936   3.285  19.959  0.00  0.00    +0.000 A 
ATOM     18  C   UNL     1       0.708   4.575  20.428  0.00  0.00    +0.000 A 
ATOM     19  C   UNL     1       1.758   5.488  20.486  0.00  0.00    +0.000 A 
ATOM     20  C   UNL     1       3.046   5.101  20.103  0.00  0.00    +0.000 A 
ENDBRANCH  14  15
ENDBRANCH   9  14
TORSDOF 2
ENDMDL
MODEL 2
REMARK VINA RESULT:      -6.7      2.261      6.101
REMARK  Name = 
REMARK  4 active torsions:
REMARK  status: ('A' for Active; 'I' for Inactive)
REMARK    1  A    between atoms: C_1  and  N_2
REMARK    2  A    between atoms: N_9  and  C_10
REMARK    3  A    between atoms: C_10  and  C_11
REMARK    4  A    between atoms: N_19  and  C_20
REMARK                            x       y       z     vdW  Elec       q    Type
REMARK                         _______ _______ _______ _____ _____    ______ ____
ROOT
ATOM      1  C   UNL     1       1.458   6.806  20.747  0.00  0.00    +0.000 C 
ATOM      2  N   UNL     1       1.697   5.506  20.174  0.00  0.00    +0.000 N 
ATOM      3  C   UNL     1       1.170   4.320  20.614  0.00  0.00    +0.000 A 
ATOM      4  N   UNL     1       1.629   3.298  19.920  0.00  0.00    +0.000 NA
ATOM      5  C   UNL     1       2.477   3.858  19.012  0.00  0.00    +0.000 A 
ATOM      6  C   UNL     1       2.526   5.212  19.130  0.00  0.00    +0.000 A 
ATOM      7  C   UNL     1       3.337   6.034  18.303  0.00  0.00    +0.000 A 
ATOM      8  O   UNL     1       3.389   7.255  18.436  0.00  0.00    +0.000 OA
ATOM      9  N   UNL     1       4.081   5.308  17.366  0.00  0.00    +0.000 N 
ATOM     10  C   UNL     1       4.131   3.902  17.286  0.00  0.00    +0.000 A 
ATOM     11  O   UNL     1       4.943   3.326  16.553  0.00  0.00    +0.000 OA
ATOM     12  N   UNL     1       3.244   3.184  18.095  0.00  0.00    +0.000 N 
ATOM     13  C   UNL     1       3.194   1.734  18.031  0.00  0.00    +0.000 C 
ENDROOT
BRANCH   9  14
ATOM     14  C   UNL     1       4.997   6.062  16.521  0.00  0.00    +0.000 C 
BRANCH  14  15
ATOM     15  C   UNL     1       6.257   6.530  17.221  0.00  0.00    +0.000 A 
ATOM     16  C   UNL     1       6.772   7.815  16.989  0.00  0.00    +0.000 A 
ATOM     17  C   UNL     1       7.850   8.297  17.737  0.00  0.00    +0.000 A 
ATOM     18  C   UNL     1       8.431   7.500  18.718  0.00  0.00    +0.000 A 
ATOM     19  C   UNL     1       7.961   6.206  18.929  0.00  0.00    +0.000 A 
ATOM     20  C   UNL     1       6.886   5.719  18.179  0.00  0.00    +0.000 A 
ENDBRANCH  14  15
ENDBRANCH   9  14
TORSDOF 2
ENDMDL
MODEL 3
REMARK VINA RESULT:      -6.6      0.168      1.090
REMARK  Name = 
REMARK  4 active torsions:
REMARK  status: ('A' for Active; 'I' for Inactive)
REMARK    1  A    between atoms: C_1  and  N_2
REMARK    2  A    between atoms: N_9  and  C_10
REMARK    3  A    between atoms: C_10  and  C_11
REMARK    4  A    between atoms: N_19  and  C_20
REMARK                            x       y       z     vdW  Elec       q    Type
REMARK                         _______ _______ _______ _____ _____    ______ ____
ROOT
ATOM      1  C   UNL     1       5.405   3.591  14.053  0.00  0.00    +0.000 C 
ATOM      2  N   UNL     1       6.068   4.498  14.956  0.00  0.00    +0.000 N 
ATOM      3  C   UNL     1       6.964   5.475  14.606  0.00  0.00    +0.000 A 
ATOM      4  N   UNL     1       7.443   6.095  15.666  0.00  0.00    +0.000 NA
ATOM      5  C   UNL     1       6.829   5.488  16.721  0.00  0.00    +0.000 A 
ATOM      6  C   UNL     1       5.966   4.518  16.316  0.00  0.00    +0.000 A 
ATOM      7  C   UNL     1       5.202   3.733  17.222  0.00  0.00    +0.000 A 
ATOM      8  O   UNL     1       4.443   2.843  16.843  0.00  0.00    +0.000 OA
ATOM      9  N   UNL     1       5.436   4.055  18.563  0.00  0.00    +0.000 N 
ATOM     10  C   UNL     1       6.396   4.981  19.017  0.00  0.00    +0.000 A 
ATOM     11  O   UNL     1       6.673   5.089  20.217  0.00  0.00    +0.000 OA
ATOM     12  N   UNL     1       7.046   5.754  18.050  0.00  0.00    +0.000 N 
ATOM     13  C   UNL     1       8.008   6.770  18.438  0.00  0.00    +0.000 C 
ENDROOT
BRANCH   9  14
ATOM     14  C   UNL     1       4.750   3.253  19.566  0.00  0.00    +0.000 C 
BRANCH  14  15
ATOM     15  C   UNL     1       3.354   3.736  19.909  0.00  0.00    +0.000 A 
ATOM     16  C   UNL     1       3.113   5.088  20.197  0.00  0.00    +0.000 A 
ATOM     17  C   UNL     1       1.808   5.558  20.374  0.00  0.00    +0.000 A 
ATOM     18  C   UNL     1       0.732   4.683  20.276  0.00  0.00    +0.000 A 
ATOM     19  C   UNL     1       0.957   3.329  20.037  0.00  0.00    +0.000 A 
ATOM     20  C   UNL     1       2.262   2.855  19.864  0.00  0.00    +0.000 A 
ENDBRANCH  14  15
ENDBRANCH   9  14
TORSDOF 2
ENDMDL
MODEL 4
REMARK VINA RESULT:      -6.6      2.289      6.048
REMARK  Name = 
REMARK  4 active torsions:
REMARK  status: ('A' for Active; 'I' for Inactive)
REMARK    1  A    between atoms: C_1  and  N_2
REMARK    2  A    between atoms: N_9  and  C_10
REMARK    3  A    between atoms: C_10  and  C_11
REMARK    4  A    between atoms: N_19  and  C_20
REMARK                            x       y       z     vdW  Elec       q    Type
REMARK                         _______ _______ _______ _____ _____    ______ ____
ROOT
ATOM      1  C   UNL     1       1.250   6.349  20.908  0.00  0.00    +0.000 C 
ATOM      2  N   UNL     1       1.595   5.082  20.314  0.00  0.00    +0.000 N 
ATOM      3  C   UNL     1       1.163   3.850  20.731  0.00  0.00    +0.000 A 
ATOM      4  N   UNL     1       1.706   2.881  20.021  0.00  0.00    +0.000 NA
ATOM      5  C   UNL     1       2.510   3.523  19.127  0.00  0.00    +0.000 A 
ATOM      6  C   UNL     1       2.448   4.875  19.269  0.00  0.00    +0.000 A 
ATOM      7  C   UNL     1       3.194   5.774  18.461  0.00  0.00    +0.000 A 
ATOM      8  O   UNL     1       3.147   6.993  18.615  0.00  0.00    +0.000 OA
ATOM      9  N   UNL     1       3.998   5.127  17.515  0.00  0.00    +0.000 N 
ATOM     10  C   UNL     1       4.161   3.732  17.411  0.00  0.00    +0.000 A 
ATOM     11  O   UNL     1       5.019   3.235  16.672  0.00  0.00    +0.000 OA
ATOM     12  N   UNL     1       3.332   2.930  18.202  0.00  0.00    +0.000 N 
ATOM     13  C   UNL     1       3.398   1.482  18.112  0.00  0.00    +0.000 C 
ENDROOT
BRANCH   9  14
ATOM     14  C   UNL     1       4.853   5.967  16.688  0.00  0.00    +0.000 C 
BRANCH  14  15
ATOM     15  C   UNL     1       6.051   6.550  17.412  0.00  0.00    +0.000 A 
ATOM     16  C   UNL     1       6.757   5.791  18.357  0.00  0.00    +0.000 A 
ATOM     17  C   UNL     1       7.942   6.275  18.919  0.00  0.00    +0.000 A 
ATOM     18  C   UNL     1       8.428   7.526  18.553  0.00  0.00    +0.000 A 
ATOM     19  C   UNL     1       7.714   8.312  17.651  0.00  0.00    +0.000 A 
ATOM     20  C   UNL     1       6.526   7.831  17.090  0.00  0.00    +0.000 A 
ENDBRANCH  14  15
ENDBRANCH   9  14
TORSDOF 2
ENDMDL
MODEL 5
REMARK VINA RESULT:      -6.5      2.195      5.844
REMARK  Name = 
REMARK  4 active torsions:
REMARK  status: ('A' for Active; 'I' for Inactive)
REMARK    1  A    between atoms: C_1  and  N_2
REMARK    2  A    between atoms: N_9  and  C_10
REMARK    3  A    between atoms: C_10  and  C_11
REMARK    4  A    between atoms: N_19  and  C_20
REMARK                            x       y       z     vdW  Elec       q    Type
REMARK                         _______ _______ _______ _____ _____    ______ ____
ROOT
ATOM      1  C   UNL     1       2.941   2.462  21.051  0.00  0.00    +0.000 C 
ATOM      2  N   UNL     1       2.665   3.790  20.564  0.00  0.00    +0.000 N 
ATOM      3  C   UNL     1       1.525   4.514  20.793  0.00  0.00    +0.000 A 
ATOM      4  N   UNL     1       1.548   5.670  20.159  0.00  0.00    +0.000 NA
ATOM      5  C   UNL     1       2.745   5.675  19.506  0.00  0.00    +0.000 A 
ATOM      6  C   UNL     1       3.461   4.544  19.751  0.00  0.00    +0.000 A 
ATOM      7  C   UNL     1       4.742   4.301  19.187  0.00  0.00    +0.000 A 
ATOM      8  O   UNL     1       5.368   3.264  19.397  0.00  0.00    +0.000 OA
ATOM      9  N   UNL     1       5.183   5.335  18.354  0.00  0.00    +0.000 N 
ATOM     10  C   UNL     1       4.424   6.468  18.001  0.00  0.00    +0.000 A 
ATOM     11  O   UNL     1       4.805   7.253  17.124  0.00  0.00    +0.000 OA
ATOM     12  N   UNL     1       3.205   6.654  18.662  0.00  0.00    +0.000 N 
ATOM     13  C   UNL     1       2.390   7.826  18.396  0.00  0.00    +0.000 C 
ENDROOT
BRANCH   9  14
ATOM     14  C   UNL     1       6.456   5.141  17.675  0.00  0.00    +0.000 C 
BRANCH  14  15
ATOM     15  C   UNL     1       6.338   4.805  16.201  0.00  0.00    +0.000 A 
ATOM     16  C   UNL     1       7.289   5.270  15.280  0.00  0.00    +0.000 A 
ATOM     17  C   UNL     1       7.259   4.845  13.949  0.00  0.00    +0.000 A 
ATOM     18  C   UNL     1       6.275   3.961  13.520  0.00  0.00    +0.000 A 
ATOM     19  C   UNL     1       5.296   3.526  14.411  0.00  0.00    +0.000 A 
ATOM     20  C   UNL     1       5.321   3.953  15.742  0.00  0.00    +0.000 A 
ENDBRANCH  14  15
ENDBRANCH   9  14
TORSDOF 2
ENDMDL
MODEL 6
REMARK VINA RESULT:      -6.0      2.534      5.842
REMARK  Name = 
REMARK  4 active torsions:
REMARK  status: ('A' for Active; 'I' for Inactive)
REMARK    1  A    between atoms: C_1  and  N_2
REMARK    2  A    between atoms: N_9  and  C_10
REMARK    3  A    between atoms: C_10  and  C_11
REMARK    4  A    between atoms: N_19  and  C_20
REMARK                            x       y       z     vdW  Elec       q    Type
REMARK                         _______ _______ _______ _____ _____    ______ ____
ROOT
ATOM      1  C   UNL     1       2.525   1.312  18.638  0.00  0.00    +0.000 C 
ATOM      2  N   UNL     1       2.160   2.547  19.285  0.00  0.00    +0.000 N 
ATOM      3  C   UNL     1       1.235   2.692  20.285  0.00  0.00    +0.000 A 
ATOM      4  N   UNL     1       1.080   3.956  20.623  0.00  0.00    +0.000 NA
ATOM      5  C   UNL     1       1.936   4.634  19.807  0.00  0.00    +0.000 A 
ATOM      6  C   UNL     1       2.626   3.795  18.988  0.00  0.00    +0.000 A 
ATOM      7  C   UNL     1       3.580   4.250  18.038  0.00  0.00    +0.000 A 
ATOM      8  O   UNL     1       4.180   3.482  17.288  0.00  0.00    +0.000 OA
ATOM      9  N   UNL     1       3.728   5.641  18.029  0.00  0.00    +0.000 N 
ATOM     10  C   UNL     1       2.956   6.541  18.790  0.00  0.00    +0.000 A 
ATOM     11  O   UNL     1       3.018   7.762  18.604  0.00  0.00    +0.000 OA
ATOM     12  N   UNL     1       2.094   5.995  19.746  0.00  0.00    +0.000 N 
ATOM     13  C   UNL     1       1.306   6.857  20.610  0.00  0.00    +0.000 C 
ENDROOT
BRANCH   9  14
ATOM     14  C   UNL     1       4.634   6.204  17.038  0.00  0.00    +0.000 C 
BRANCH  14  15
ATOM     15  C   UNL     1       5.937   6.731  17.605  0.00  0.00    +0.000 A 
ATOM     16  C   UNL     1       6.725   5.935  18.451  0.00  0.00    +0.000 A 
ATOM     17  C   UNL     1       7.991   6.365  18.859  0.00  0.00    +0.000 A 
ATOM     18  C   UNL     1       8.480   7.597  18.437  0.00  0.00    +0.000 A 
ATOM     19  C   UNL     1       7.691   8.419  17.633  0.00  0.00    +0.000 A 
ATOM     20  C   UNL     1       6.423   7.993  17.227  0.00  0.00    +0.000 A 
ENDBRANCH  14  15
ENDBRANCH   9  14
TORSDOF 2
ENDMDL
MODEL 7
REMARK VINA RESULT:      -5.9      2.181      5.788
REMARK  Name = 
REMARK  4 active torsions:
REMARK  status: ('A' for Active; 'I' for Inactive)
REMARK    1  A    between atoms: C_1  and  N_2
REMARK    2  A    between atoms: N_9  and  C_10
REMARK    3  A    between atoms: C_10  and  C_11
REMARK    4  A    between atoms: N_19  and  C_20
REMARK                            x       y       z     vdW  Elec       q    Type
REMARK                         _______ _______ _______ _____ _____    ______ ____
ROOT
ATOM      1  C   UNL     1       2.230   8.185  19.021  0.00  0.00    +0.000 C 
ATOM      2  N   UNL     1       2.134   6.848  19.549  0.00  0.00    +0.000 N 
ATOM      3  C   UNL     1       1.125   6.361  20.338  0.00  0.00    +0.000 A 
ATOM      4  N   UNL     1       1.358   5.118  20.711  0.00  0.00    +0.000 NA
ATOM      5  C   UNL     1       2.556   4.810  20.138  0.00  0.00    +0.000 A 
ATOM      6  C   UNL     1       3.047   5.844  19.403  0.00  0.00    +0.000 A 
ATOM      7  C   UNL     1       4.284   5.781  18.706  0.00  0.00    +0.000 A 
ATOM      8  O   UNL     1       4.728   6.731  18.065  0.00  0.00    +0.000 OA
ATOM      9  N   UNL     1       4.941   4.555  18.860  0.00  0.00    +0.000 N 
ATOM     10  C   UNL     1       4.509   3.505  19.695  0.00  0.00    +0.000 A 
ATOM     11  O   UNL     1       5.225   2.523  19.921  0.00  0.00    +0.000 OA
ATOM     12  N   UNL     1       3.246   3.633  20.283  0.00  0.00    +0.000 N 
ATOM     13  C   UNL     1       2.704   2.571  21.111  0.00  0.00    +0.000 C 
ENDROOT
BRANCH   9  14
ATOM     14  C   UNL     1       6.251   4.423  18.239  0.00  0.00    +0.000 C 
BRANCH  14  15
ATOM     15  C   UNL     1       6.222   4.321  16.727  0.00  0.00    +0.000 A 
ATOM     16  C   UNL     1       5.126   3.744  16.068  0.00  0.00    +0.000 A 
ATOM     17  C   UNL     1       5.034   3.777  14.673  0.00  0.00    +0.000 A 
ATOM     18  C   UNL     1       6.039   4.377  13.921  0.00  0.00    +0.000 A 
ATOM     19  C   UNL     1       7.155   4.915  14.558  0.00  0.00    +0.000 A 
ATOM     20  C   UNL     1       7.252   4.879  15.953  0.00  0.00    +0.000 A 
ENDBRANCH  14  15
ENDBRANCH   9  14
TORSDOF 2
ENDMDL
MODEL 8
REMARK VINA RESULT:      -5.9      1.349      1.824
REMARK  Name = 
REMARK  4 active torsions:
REMARK  status: ('A' for Active; 'I' for Inactive)
REMARK    1  A    between atoms: C_1  and  N_2
REMARK    2  A    between atoms: N_9  and  C_10
REMARK    3  A    between atoms: C_10  and  C_11
REMARK    4  A    between atoms: N_19  and  C_20
REMARK                            x       y       z     vdW  Elec       q    Type
REMARK                         _______ _______ _______ _____ _____    ______ ____
ROOT
ATOM      1  C   UNL     1       5.169   3.904  13.631  0.00  0.00    +0.000 C 
ATOM      2  N   UNL     1       6.014   4.322  14.721  0.00  0.00    +0.000 N 
ATOM      3  C   UNL     1       7.351   4.611  14.642  0.00  0.00    +0.000 A 
ATOM      4  N   UNL     1       7.855   4.902  15.825  0.00  0.00    +0.000 NA
ATOM      5  C   UNL     1       6.800   4.792  16.681  0.00  0.00    +0.000 A 
ATOM      6  C   UNL     1       5.653   4.455  16.030  0.00  0.00    +0.000 A 
ATOM      7  C   UNL     1       4.410   4.275  16.695  0.00  0.00    +0.000 A 
ATOM      8  O   UNL     1       3.386   3.948  16.098  0.00  0.00    +0.000 OA
ATOM      9  N   UNL     1       4.491   4.470  18.078  0.00  0.00    +0.000 N 
ATOM     10  C   UNL     1       5.681   4.717  18.791  0.00  0.00    +0.000 A 
ATOM     11  O   UNL     1       5.707   4.704  20.028  0.00  0.00    +0.000 OA
ATOM     12  N   UNL     1       6.839   4.948  18.043  0.00  0.00    +0.000 N 
ATOM     13  C   UNL     1       8.094   5.266  18.701  0.00  0.00    +0.000 C 
ENDROOT
BRANCH   9  14
ATOM     14  C   UNL     1       3.280   4.236  18.852  0.00  0.00    +0.000 C 
BRANCH  14  15
ATOM     15  C   UNL     1       2.583   5.497  19.324  0.00  0.00    +0.000 A 
ATOM     16  C   UNL     1       1.944   5.539  20.573  0.00  0.00    +0.000 A 
ATOM     17  C   UNL     1       1.426   6.739  21.069  0.00  0.00    +0.000 A 
ATOM     18  C   UNL     1       1.530   7.907  20.320  0.00  0.00    +0.000 A 
ATOM     19  C   UNL     1       2.121   7.873  19.059  0.00  0.00    +0.000 A 
ATOM     20  C   UNL     1       2.637   6.673  18.559  0.00  0.00    +0.000 A 
ENDBRANCH  14  15
ENDBRANCH   9  14
TORSDOF 2
ENDMDL
MODEL 9
REMARK VINA RESULT:      -5.9      2.148      5.877
REMARK  Name = 
REMARK  4 active torsions:
REMARK  status: ('A' for Active; 'I' for Inactive)
REMARK    1  A    between atoms: C_1  and  N_2
REMARK    2  A    between atoms: N_9  and  C_10
REMARK    3  A    between atoms: C_10  and  C_11
REMARK    4  A    between atoms: N_19  and  C_20
REMARK                            x       y       z     vdW  Elec       q    Type
REMARK                         _______ _______ _______ _____ _____    ______ ____
ROOT
ATOM      1  C   UNL     1       4.419   2.357  20.187  0.00  0.00    +0.000 C 
ATOM      2  N   UNL     1       3.813   3.610  19.815  0.00  0.00    +0.000 N 
ATOM      3  C   UNL     1       2.607   4.088  20.260  0.00  0.00    +0.000 A 
ATOM      4  N   UNL     1       2.299   5.234  19.686  0.00  0.00    +0.000 NA
ATOM      5  C   UNL     1       3.345   5.488  18.850  0.00  0.00    +0.000 A 
ATOM      6  C   UNL     1       4.298   4.519  18.921  0.00  0.00    +0.000 A 
ATOM      7  C   UNL     1       5.489   4.545  18.147  0.00  0.00    +0.000 A 
ATOM      8  O   UNL     1       6.331   3.652  18.204  0.00  0.00    +0.000 OA
ATOM      9  N   UNL     1       5.574   5.660  17.304  0.00  0.00    +0.000 N 
ATOM     10  C   UNL     1       4.561   6.623  17.133  0.00  0.00    +0.000 A 
ATOM     11  O   UNL     1       4.629   7.481  16.245  0.00  0.00    +0.000 OA
ATOM     12  N   UNL     1       3.458   6.552  17.990  0.00  0.00    +0.000 N 
ATOM     13  C   UNL     1       2.397   7.541  17.916  0.00  0.00    +0.000 C 
ENDROOT
BRANCH   9  14
ATOM     14  C   UNL     1       6.729   5.734  16.420  0.00  0.00    +0.000 C 
BRANCH  14  15
ATOM     15  C   UNL     1       6.524   5.089  15.064  0.00  0.00    +0.000 A 
ATOM     16  C   UNL     1       7.513   5.173  14.072  0.00  0.00    +0.000 A 
ATOM     17  C   UNL     1       7.386   4.461  12.875  0.00  0.00    +0.000 A 
ATOM     18  C   UNL     1       6.266   3.667  12.651  0.00  0.00    +0.000 A 
ATOM     19  C   UNL     1       5.253   3.609  13.606  0.00  0.00    +0.000 A 
ATOM     20  C   UNL     1       5.376   4.324  14.802  0.00  0.00    +0.000 A 
ENDBRANCH  14  15
ENDBRANCH   9  14
TORSDOF 2
ENDMDL
