MODEL 1
REMARK VINA RESULT:      -4.5      0.000      0.000
REMARK  Name = 
REMARK  3 active torsions:
REMARK  status: ('A' for Active; 'I' for Inactive)
REMARK    1  A    between atoms: C_1  and  N_2
REMARK    2  A    between atoms: C_6  and  C_7
REMARK    3  A    between atoms: N_8  and  O_9
REMARK                            x       y       z     vdW  Elec       q    Type
REMARK                         _______ _______ _______ _____ _____    ______ ____
ROOT
ATOM      1  C   UNL     1       3.842   4.675  17.380  0.00  0.00    +0.000 C 
ATOM      2  N   UNL     1       5.126   4.918  17.993  0.00  0.00    +0.000 N 
ATOM      3  C   UNL     1       5.335   5.060  19.335  0.00  0.00    +0.000 A 
ATOM      4  N   UNL     1       6.604   5.260  19.606  0.00  0.00    +0.000 NA
ATOM      5  C   UNL     1       7.234   5.250  18.389  0.00  0.00    +0.000 A 
ATOM      6  C   UNL     1       6.340   5.042  17.354  0.00  0.00    +0.000 A 
ENDROOT
BRANCH   6   7
ATOM      7  C   UNL     1       6.615   4.975  15.947  0.00  0.00    +0.000 C 
ATOM      8  N   UNL     1       7.593   5.643  15.421  0.00  0.00    +0.000 NA
BRANCH   8   9
ATOM      9  O   UNL     1       7.640   5.397  14.045  0.00  0.00    +0.000 OA
ATOM     10  H   UNL     1       6.724   5.119  13.850  0.00  0.00    +0.000 HD
ENDBRANCH   8   9
ENDBRANCH   6   7
TORSDOF 2
ENDMDL
MODEL 2
REMARK VINA RESULT:      -4.4      4.918      5.507
REMARK  Name = 
REMARK  3 active torsions:
REMARK  status: ('A' for Active; 'I' for Inactive)
REMARK    1  A    between atoms: C_1  and  N_2
REMARK    2  A    between atoms: C_6  and  C_7
REMARK    3  A    between atoms: N_8  and  O_9
REMARK                            x       y       z     vdW  Elec       q    Type
REMARK                         _______ _______ _______ _____ _____    ______ ____
ROOT
ATOM      1  C   UNL     1       1.391   4.505  20.456  0.00  0.00    +0.000 C 
ATOM      2  N   UNL     1       1.934   3.831  19.301  0.00  0.00    +0.000 N 
ATOM      3  C   UNL     1       1.491   3.999  18.020  0.00  0.00    +0.000 A 
ATOM      4  N   UNL     1       2.179   3.269  17.173  0.00  0.00    +0.000 NA
ATOM      5  C   UNL     1       3.099   2.604  17.941  0.00  0.00    +0.000 A 
ATOM      6  C   UNL     1       2.973   2.927  19.280  0.00  0.00    +0.000 A 
ENDROOT
BRANCH   6   7
ATOM      7  C   UNL     1       3.744   2.434  20.386  0.00  0.00    +0.000 C 
ATOM      8  N   UNL     1       4.900   1.878  20.204  0.00  0.00    +0.000 NA
BRANCH   8   9
ATOM      9  O   UNL     1       5.434   1.494  21.438  0.00  0.00    +0.000 OA
ATOM     10  H   UNL     1       6.355   1.813  21.377  0.00  0.00    +0.000 HD
ENDBRANCH   8   9
ENDBRANCH   6   7
TORSDOF 2
ENDMDL
MODEL 3
REMARK VINA RESULT:      -4.4      4.386      5.395
REMARK  Name = 
REMARK  3 active torsions:
REMARK  status: ('A' for Active; 'I' for Inactive)
REMARK    1  A    between atoms: C_1  and  N_2
REMARK    2  A    between atoms: C_6  and  C_7
REMARK    3  A    between atoms: N_8  and  O_9
REMARK                            x       y       z     vdW  Elec       q    Type
REMARK                         _______ _______ _______ _____ _____    ______ ____
ROOT
ATOM      1  C   UNL     1       3.959   5.465  19.372  0.00  0.00    +0.000 C 
ATOM      2  N   UNL     1       3.026   4.468  18.906  0.00  0.00    +0.000 N 
ATOM      3  C   UNL     1       2.102   4.665  17.920  0.00  0.00    +0.000 A 
ATOM      4  N   UNL     1       1.397   3.580  17.696  0.00  0.00    +0.000 NA
ATOM      5  C   UNL     1       1.886   2.650  18.576  0.00  0.00    +0.000 A 
ATOM      6  C   UNL     1       2.904   3.171  19.354  0.00  0.00    +0.000 A 
ENDROOT
BRANCH   6   7
ATOM      7  C   UNL     1       3.655   2.513  20.385  0.00  0.00    +0.000 C 
ATOM      8  N   UNL     1       4.850   2.063  20.163  0.00  0.00    +0.000 NA
BRANCH   8   9
ATOM      9  O   UNL     1       5.352   1.475  21.328  0.00  0.00    +0.000 OA
ATOM     10  H   UNL     1       6.315   1.601  21.228  0.00  0.00    +0.000 HD
ENDBRANCH   8   9
ENDBRANCH   6   7
TORSDOF 2
ENDMDL
MODEL 4
REMARK VINA RESULT:      -4.4      2.689      3.554
REMARK  Name = 
REMARK  3 active torsions:
REMARK  status: ('A' for Active; 'I' for Inactive)
REMARK    1  A    between atoms: C_1  and  N_2
REMARK    2  A    between atoms: C_6  and  C_7
REMARK    3  A    between atoms: N_8  and  O_9
REMARK                            x       y       z     vdW  Elec       q    Type
REMARK                         _______ _______ _______ _____ _____    ______ ____
ROOT
ATOM      1  C   UNL     1       4.989   3.993  18.285  0.00  0.00    +0.000 C 
ATOM      2  N   UNL     1       5.584   5.113  17.596  0.00  0.00    +0.000 N 
ATOM      3  C   UNL     1       5.031   5.753  16.524  0.00  0.00    +0.000 A 
ATOM      4  N   UNL     1       5.789   6.743  16.111  0.00  0.00    +0.000 NA
ATOM      5  C   UNL     1       6.872   6.736  16.950  0.00  0.00    +0.000 A 
ATOM      6  C   UNL     1       6.782   5.726  17.891  0.00  0.00    +0.000 A 
ENDROOT
BRANCH   6   7
ATOM      7  C   UNL     1       7.718   5.396  18.928  0.00  0.00    +0.000 C 
ATOM      8  N   UNL     1       7.403   5.518  20.180  0.00  0.00    +0.000 NA
BRANCH   8   9
ATOM      9  O   UNL     1       8.487   5.129  20.973  0.00  0.00    +0.000 OA
ATOM     10  H   UNL     1       9.038   5.934  20.986  0.00  0.00    +0.000 HD
ENDBRANCH   8   9
ENDBRANCH   6   7
TORSDOF 2
ENDMDL
MODEL 5
REMARK VINA RESULT:      -4.4      3.732      4.746
REMARK  Name = 
REMARK  3 active torsions:
REMARK  status: ('A' for Active; 'I' for Inactive)
REMARK    1  A    between atoms: C_1  and  N_2
REMARK    2  A    between atoms: C_6  and  C_7
REMARK    3  A    between atoms: N_8  and  O_9
REMARK                            x       y       z     vdW  Elec       q    Type
REMARK                         _______ _______ _______ _____ _____    ______ ____
ROOT
ATOM      1  C   UNL     1       1.734   3.927  18.007  0.00  0.00    +0.000 C 
ATOM      2  N   UNL     1       1.932   3.468  19.360  0.00  0.00    +0.000 N 
ATOM      3  C   UNL     1       0.941   3.327  20.289  0.00  0.00    +0.000 A 
ATOM      4  N   UNL     1       1.411   2.879  21.430  0.00  0.00    +0.000 NA
ATOM      5  C   UNL     1       2.758   2.728  21.226  0.00  0.00    +0.000 A 
ATOM      6  C   UNL     1       3.122   3.091  19.943  0.00  0.00    +0.000 A 
ENDROOT
BRANCH   6   7
ATOM      7  C   UNL     1       4.433   3.079  19.358  0.00  0.00    +0.000 C 
ATOM      8  N   UNL     1       5.151   4.156  19.298  0.00  0.00    +0.000 NA
BRANCH   8   9
ATOM      9  O   UNL     1       6.376   3.868  18.689  0.00  0.00    +0.000 OA
ATOM     10  H   UNL     1       6.131   3.794  17.747  0.00  0.00    +0.000 HD
ENDBRANCH   8   9
ENDBRANCH   6   7
TORSDOF 2
ENDMDL
MODEL 6
REMARK VINA RESULT:      -4.3      3.102      4.351
REMARK  Name = 
REMARK  3 active torsions:
REMARK  status: ('A' for Active; 'I' for Inactive)
REMARK    1  A    between atoms: C_1  and  N_2
REMARK    2  A    between atoms: C_6  and  C_7
REMARK    3  A    between atoms: N_8  and  O_9
REMARK                            x       y       z     vdW  Elec       q    Type
REMARK                         _______ _______ _______ _____ _____    ______ ____
ROOT
ATOM      1  C   UNL     1       1.995   4.436  20.801  0.00  0.00    +0.000 C 
ATOM      2  N   UNL     1       2.296   4.171  19.415  0.00  0.00    +0.000 N 
ATOM      3  C   UNL     1       1.434   3.596  18.525  0.00  0.00    +0.000 A 
ATOM      4  N   UNL     1       1.972   3.489  17.333  0.00  0.00    +0.000 NA
ATOM      5  C   UNL     1       3.232   4.013  17.463  0.00  0.00    +0.000 A 
ATOM      6  C   UNL     1       3.473   4.446  18.754  0.00  0.00    +0.000 A 
ENDROOT
BRANCH   6   7
ATOM      7  C   UNL     1       4.669   5.041  19.280  0.00  0.00    +0.000 C 
ATOM      8  N   UNL     1       5.806   4.423  19.225  0.00  0.00    +0.000 NA
BRANCH   8   9
ATOM      9  O   UNL     1       6.800   5.221  19.801  0.00  0.00    +0.000 OA
ATOM     10  H   UNL     1       6.559   6.114  19.488  0.00  0.00    +0.000 HD
ENDBRANCH   8   9
ENDBRANCH   6   7
TORSDOF 2
ENDMDL
MODEL 7
REMARK VINA RESULT:      -4.3      2.417      3.453
REMARK  Name = 
REMARK  3 active torsions:
REMARK  status: ('A' for Active; 'I' for Inactive)
REMARK    1  A    between atoms: C_1  and  N_2
REMARK    2  A    between atoms: C_6  and  C_7
REMARK    3  A    between atoms: N_8  and  O_9
REMARK                            x       y       z     vdW  Elec       q    Type
REMARK                         _______ _______ _______ _____ _____    ______ ____
ROOT
ATOM      1  C   UNL     1       3.946   4.174  17.570  0.00  0.00    +0.000 C 
ATOM      2  N   UNL     1       5.200   4.329  16.873  0.00  0.00    +0.000 N 
ATOM      3  C   UNL     1       5.384   4.104  15.538  0.00  0.00    +0.000 A 
ATOM      4  N   UNL     1       6.624   4.336  15.177  0.00  0.00    +0.000 NA
ATOM      5  C   UNL     1       7.264   4.723  16.326  0.00  0.00    +0.000 A 
ATOM      6  C   UNL     1       6.405   4.726  17.410  0.00  0.00    +0.000 A 
ENDROOT
BRANCH   6   7
ATOM      7  C   UNL     1       6.701   5.063  18.774  0.00  0.00    +0.000 C 
ATOM      8  N   UNL     1       7.924   5.153  19.192  0.00  0.00    +0.000 NA
BRANCH   8   9
ATOM      9  O   UNL     1       7.930   5.496  20.548  0.00  0.00    +0.000 OA
ATOM     10  H   UNL     1       8.768   5.104  20.860  0.00  0.00    +0.000 HD
ENDBRANCH   8   9
ENDBRANCH   6   7
TORSDOF 2
ENDMDL
MODEL 8
REMARK VINA RESULT:      -4.3      2.672      3.631
REMARK  Name = 
REMARK  3 active torsions:
REMARK  status: ('A' for Active; 'I' for Inactive)
REMARK    1  A    between atoms: C_1  and  N_2
REMARK    2  A    between atoms: C_6  and  C_7
REMARK    3  A    between atoms: N_8  and  O_9
REMARK                            x       y       z     vdW  Elec       q    Type
REMARK                         _______ _______ _______ _____ _____    ______ ____
ROOT
ATOM      1  C   UNL     1       4.975   6.913  17.397  0.00  0.00    +0.000 C 
ATOM      2  N   UNL     1       5.758   5.862  16.793  0.00  0.00    +0.000 N 
ATOM      3  C   UNL     1       5.474   5.267  15.597  0.00  0.00    +0.000 A 
ATOM      4  N   UNL     1       6.364   4.353  15.290  0.00  0.00    +0.000 NA
ATOM      5  C   UNL     1       7.255   4.359  16.332  0.00  0.00    +0.000 A 
ATOM      6  C   UNL     1       6.906   5.288  17.295  0.00  0.00    +0.000 A 
ENDROOT
BRANCH   6   7
ATOM      7  C   UNL     1       7.580   5.583  18.527  0.00  0.00    +0.000 C 
ATOM      8  N   UNL     1       7.150   5.115  19.656  0.00  0.00    +0.000 NA
BRANCH   8   9
ATOM      9  O   UNL     1       7.986   5.548  20.690  0.00  0.00    +0.000 OA
ATOM     10  H   UNL     1       7.478   6.287  21.075  0.00  0.00    +0.000 HD
ENDBRANCH   8   9
ENDBRANCH   6   7
TORSDOF 2
ENDMDL
MODEL 9
REMARK VINA RESULT:      -4.2      2.860      3.803
REMARK  Name = 
REMARK  3 active torsions:
REMARK  status: ('A' for Active; 'I' for Inactive)
REMARK    1  A    between atoms: C_1  and  N_2
REMARK    2  A    between atoms: C_6  and  C_7
REMARK    3  A    between atoms: N_8  and  O_9
REMARK                            x       y       z     vdW  Elec       q    Type
REMARK                         _______ _______ _______ _____ _____    ______ ____
ROOT
ATOM      1  C   UNL     1       4.351   2.312  20.054  0.00  0.00    +0.000 C 
ATOM      2  N   UNL     1       4.112   3.137  18.894  0.00  0.00    +0.000 N 
ATOM      3  C   UNL     1       3.239   2.836  17.889  0.00  0.00    +0.000 A 
ATOM      4  N   UNL     1       3.219   3.774  16.971  0.00  0.00    +0.000 NA
ATOM      5  C   UNL     1       4.118   4.714  17.403  0.00  0.00    +0.000 A 
ATOM      6  C   UNL     1       4.700   4.348  18.602  0.00  0.00    +0.000 A 
ENDROOT
BRANCH   6   7
ATOM      7  C   UNL     1       5.688   5.062  19.362  0.00  0.00    +0.000 C 
ATOM      8  N   UNL     1       6.952   4.816  19.219  0.00  0.00    +0.000 NA
BRANCH   8   9
ATOM      9  O   UNL     1       7.688   5.648  20.068  0.00  0.00    +0.000 OA
ATOM     10  H   UNL     1       7.385   5.368  20.952  0.00  0.00    +0.000 HD
ENDBRANCH   8   9
ENDBRANCH   6   7
TORSDOF 2
ENDMDL
