MODEL 1
REMARK VINA RESULT:      -4.8      0.000      0.000
REMARK  Name = 
REMARK  9 active torsions:
REMARK  status: ('A' for Active; 'I' for Inactive)
REMARK    1  A    between atoms: O_1  and  C_2
REMARK    2  A    between atoms: C_2  and  C_3
REMARK    3  A    between atoms: C_2  and  C_5
REMARK    4  A    between atoms: C_5  and  O_6
REMARK    5  A    between atoms: C_5  and  C_7
REMARK    6  A    between atoms: C_7  and  O_8
REMARK    7  A    between atoms: C_7  and  C_9
REMARK    8  A    between atoms: C_9  and  O_10
REMARK    9  A    between atoms: C_9  and  C_11
REMARK                            x       y       z     vdW  Elec       q    Type
REMARK                         _______ _______ _______ _____ _____    ______ ____
ROOT
ATOM      1  C   UNL     1       4.039   3.327  18.849  0.00  0.00    +0.000 C 
ENDROOT
BRANCH   1   2
ATOM      2  O   UNL     1       5.068   2.618  19.577  0.00  0.00    +0.000 OA
ATOM      3  H   UNL     1       4.607   1.837  19.949  0.00  0.00    +0.000 HD
ENDBRANCH   1   2
BRANCH   1   4
ATOM      4  C   UNL     1       3.016   2.255  18.388  0.00  0.00    +0.000 C 
BRANCH   4   5
ATOM      5  O   UNL     1       3.764   1.029  18.248  0.00  0.00    +0.000 OA
ATOM      6  H   UNL     1       3.597   0.700  17.343  0.00  0.00    +0.000 HD
ENDBRANCH   4   5
BRANCH   4   7
ATOM      7  C   UNL     1       1.860   2.052  19.359  0.00  0.00    +0.000 C 
ATOM      8 BR   UNL     1       1.296   3.786  20.077  0.00  0.00    +0.000 Br
ENDBRANCH   4   7
ENDBRANCH   1   4
BRANCH   1   9
ATOM      9  C   UNL     1       4.701   4.126  17.715  0.00  0.00    +0.000 C 
BRANCH   9  10
ATOM     10  O   UNL     1       5.427   3.228  16.869  0.00  0.00    +0.000 OA
ATOM     11  H   UNL     1       5.744   2.494  17.439  0.00  0.00    +0.000 HD
ENDBRANCH   9  10
BRANCH   9  12
ATOM     12  C   UNL     1       5.638   5.266  18.215  0.00  0.00    +0.000 C 
BRANCH  12  13
ATOM     13  O   UNL     1       6.603   4.806  19.169  0.00  0.00    +0.000 OA
ATOM     14  H   UNL     1       6.776   3.853  19.013  0.00  0.00    +0.000 HD
ENDBRANCH  12  13
BRANCH  12  15
ATOM     15  C   UNL     1       6.406   5.871  17.031  0.00  0.00    +0.000 C 
ATOM     16 BR   UNL     1       7.539   7.350  17.648  0.00  0.00    +0.000 Br
ENDBRANCH  12  15
ENDBRANCH   9  12
ENDBRANCH   1   9
TORSDOF 9
ENDMDL
MODEL 2
REMARK VINA RESULT:      -4.8      1.151      1.151
REMARK  Name = 
REMARK  9 active torsions:
REMARK  status: ('A' for Active; 'I' for Inactive)
REMARK    1  A    between atoms: O_1  and  C_2
REMARK    2  A    between atoms: C_2  and  C_3
REMARK    3  A    between atoms: C_2  and  C_5
REMARK    4  A    between atoms: C_5  and  O_6
REMARK    5  A    between atoms: C_5  and  C_7
REMARK    6  A    between atoms: C_7  and  O_8
REMARK    7  A    between atoms: C_7  and  C_9
REMARK    8  A    between atoms: C_9  and  O_10
REMARK    9  A    between atoms: C_9  and  C_11
REMARK                            x       y       z     vdW  Elec       q    Type
REMARK                         _______ _______ _______ _____ _____    ______ ____
ROOT
ATOM      1  C   UNL     1       4.223   3.166  18.826  0.00  0.00    +0.000 C 
ENDROOT
BRANCH   1   2
ATOM      2  O   UNL     1       5.232   2.509  19.627  0.00  0.00    +0.000 OA
ATOM      3  H   UNL     1       5.946   2.297  18.991  0.00  0.00    +0.000 HD
ENDBRANCH   1   2
BRANCH   1   4
ATOM      4  C   UNL     1       3.366   2.037  18.196  0.00  0.00    +0.000 C 
BRANCH   4   5
ATOM      5  O   UNL     1       4.077   0.809  18.453  0.00  0.00    +0.000 OA
ATOM      6  H   UNL     1       5.020   0.987  18.264  0.00  0.00    +0.000 HD
ENDBRANCH   4   5
BRANCH   4   7
ATOM      7  C   UNL     1       1.954   1.950  18.763  0.00  0.00    +0.000 C 
ATOM      8 BR   UNL     1       1.921   2.726  20.562  0.00  0.00    +0.000 Br
ENDBRANCH   4   7
ENDBRANCH   1   4
BRANCH   1   9
ATOM      9  C   UNL     1       4.923   4.092  17.819  0.00  0.00    +0.000 C 
BRANCH   9  10
ATOM     10  O   UNL     1       5.280   3.338  16.655  0.00  0.00    +0.000 OA
ATOM     11  H   UNL     1       4.548   3.451  16.009  0.00  0.00    +0.000 HD
ENDBRANCH   9  10
BRANCH   9  12
ATOM     12  C   UNL     1       6.179   4.811  18.396  0.00  0.00    +0.000 C 
BRANCH  12  13
ATOM     13  O   UNL     1       7.398   4.127  18.083  0.00  0.00    +0.000 OA
ATOM     14  H   UNL     1       7.430   3.286  18.587  0.00  0.00    +0.000 HD
ENDBRANCH  12  13
BRANCH  12  15
ATOM     15  C   UNL     1       6.282   6.231  17.820  0.00  0.00    +0.000 C 
ATOM     16 BR   UNL     1       4.555   6.778  17.065  0.00  0.00    +0.000 Br
ENDBRANCH  12  15
ENDBRANCH   9  12
ENDBRANCH   1   9
TORSDOF 9
ENDMDL
MODEL 3
REMARK VINA RESULT:      -4.7      1.584      4.717
REMARK  Name = 
REMARK  9 active torsions:
REMARK  status: ('A' for Active; 'I' for Inactive)
REMARK    1  A    between atoms: O_1  and  C_2
REMARK    2  A    between atoms: C_2  and  C_3
REMARK    3  A    between atoms: C_2  and  C_5
REMARK    4  A    between atoms: C_5  and  O_6
REMARK    5  A    between atoms: C_5  and  C_7
REMARK    6  A    between atoms: C_7  and  O_8
REMARK    7  A    between atoms: C_7  and  C_9
REMARK    8  A    between atoms: C_9  and  O_10
REMARK    9  A    between atoms: C_9  and  C_11
REMARK                            x       y       z     vdW  Elec       q    Type
REMARK                         _______ _______ _______ _____ _____    ______ ____
ROOT
ATOM      1  C   UNL     1       4.834   4.139  18.644  0.00  0.00    +0.000 C 
ENDROOT
BRANCH   1   2
ATOM      2  O   UNL     1       6.005   4.558  19.384  0.00  0.00    +0.000 OA
ATOM      3  H   UNL     1       6.164   3.827  20.017  0.00  0.00    +0.000 HD
ENDBRANCH   1   2
BRANCH   1   4
ATOM      4  C   UNL     1       3.933   5.395  18.510  0.00  0.00    +0.000 C 
BRANCH   4   5
ATOM      5  O   UNL     1       3.734   5.883  19.853  0.00  0.00    +0.000 OA
ATOM      6  H   UNL     1       4.470   6.497  20.041  0.00  0.00    +0.000 HD
ENDBRANCH   4   5
BRANCH   4   7
ATOM      7  C   UNL     1       4.535   6.492  17.642  0.00  0.00    +0.000 C 
ATOM      8 BR   UNL     1       5.285   5.701  16.013  0.00  0.00    +0.000 Br
ENDBRANCH   4   7
ENDBRANCH   1   4
BRANCH   1   9
ATOM      9  C   UNL     1       4.191   2.950  19.375  0.00  0.00    +0.000 C 
BRANCH   9  10
ATOM     10  O   UNL     1       5.214   2.186  20.022  0.00  0.00    +0.000 OA
ATOM     11  H   UNL     1       5.161   1.275  19.658  0.00  0.00    +0.000 HD
ENDBRANCH   9  10
BRANCH   9  12
ATOM     12  C   UNL     1       3.341   2.030  18.448  0.00  0.00    +0.000 C 
BRANCH  12  13
ATOM     13  O   UNL     1       3.884   0.710  18.335  0.00  0.00    +0.000 OA
ATOM     14  H   UNL     1       3.371   0.103  18.912  0.00  0.00    +0.000 HD
ENDBRANCH  12  13
BRANCH  12  15
ATOM     15  C   UNL     1       1.915   1.900  19.004  0.00  0.00    +0.000 C 
ATOM     16 BR   UNL     1       1.741   2.935  20.662  0.00  0.00    +0.000 Br
ENDBRANCH  12  15
ENDBRANCH   9  12
ENDBRANCH   1   9
TORSDOF 9
ENDMDL
MODEL 4
REMARK VINA RESULT:      -4.7      1.708      4.975
REMARK  Name = 
REMARK  9 active torsions:
REMARK  status: ('A' for Active; 'I' for Inactive)
REMARK    1  A    between atoms: O_1  and  C_2
REMARK    2  A    between atoms: C_2  and  C_3
REMARK    3  A    between atoms: C_2  and  C_5
REMARK    4  A    between atoms: C_5  and  O_6
REMARK    5  A    between atoms: C_5  and  C_7
REMARK    6  A    between atoms: C_7  and  O_8
REMARK    7  A    between atoms: C_7  and  C_9
REMARK    8  A    between atoms: C_9  and  O_10
REMARK    9  A    between atoms: C_9  and  C_11
REMARK                            x       y       z     vdW  Elec       q    Type
REMARK                         _______ _______ _______ _____ _____    ______ ____
ROOT
ATOM      1  C   UNL     1       5.800   4.515  17.795  0.00  0.00    +0.000 C 
ENDROOT
BRANCH   1   2
ATOM      2  O   UNL     1       5.589   3.457  16.832  0.00  0.00    +0.000 OA
ATOM      3  H   UNL     1       5.502   2.648  17.377  0.00  0.00    +0.000 HD
ENDBRANCH   1   2
BRANCH   1   4
ATOM      4  C   UNL     1       7.336   4.631  17.983  0.00  0.00    +0.000 C 
BRANCH   4   5
ATOM      5  O   UNL     1       7.902   4.572  16.658  0.00  0.00    +0.000 OA
ATOM      6  H   UNL     1       7.163   4.394  16.044  0.00  0.00    +0.000 HD
ENDBRANCH   4   5
BRANCH   4   7
ATOM      7  C   UNL     1       7.773   5.914  18.680  0.00  0.00    +0.000 C 
ATOM      8 BR   UNL     1       7.473   7.441  17.489  0.00  0.00    +0.000 Br
ENDBRANCH   4   7
ENDBRANCH   1   4
BRANCH   1   9
ATOM      9  C   UNL     1       5.011   4.182  19.071  0.00  0.00    +0.000 C 
BRANCH   9  10
ATOM     10  O   UNL     1       5.169   2.791  19.372  0.00  0.00    +0.000 OA
ATOM     11  H   UNL     1       6.091   2.671  19.686  0.00  0.00    +0.000 HD
ENDBRANCH   9  10
BRANCH   9  12
ATOM     12  C   UNL     1       3.497   4.542  18.985  0.00  0.00    +0.000 C 
BRANCH  12  13
ATOM     13  O   UNL     1       3.000   4.512  17.642  0.00  0.00    +0.000 OA
ATOM     14  H   UNL     1       3.698   4.156  17.052  0.00  0.00    +0.000 HD
ENDBRANCH  12  13
BRANCH  12  15
ATOM     15  C   UNL     1       2.672   3.542  19.809  0.00  0.00    +0.000 C 
ATOM     16 BR   UNL     1       1.470   2.531  18.633  0.00  0.00    +0.000 Br
ENDBRANCH  12  15
ENDBRANCH   9  12
ENDBRANCH   1   9
TORSDOF 9
ENDMDL
MODEL 5
REMARK VINA RESULT:      -4.7      1.782      4.847
REMARK  Name = 
REMARK  9 active torsions:
REMARK  status: ('A' for Active; 'I' for Inactive)
REMARK    1  A    between atoms: O_1  and  C_2
REMARK    2  A    between atoms: C_2  and  C_3
REMARK    3  A    between atoms: C_2  and  C_5
REMARK    4  A    between atoms: C_5  and  O_6
REMARK    5  A    between atoms: C_5  and  C_7
REMARK    6  A    between atoms: C_7  and  O_8
REMARK    7  A    between atoms: C_7  and  C_9
REMARK    8  A    between atoms: C_9  and  O_10
REMARK    9  A    between atoms: C_9  and  C_11
REMARK                            x       y       z     vdW  Elec       q    Type
REMARK                         _______ _______ _______ _____ _____    ______ ____
ROOT
ATOM      1  C   UNL     1       4.232   3.579  18.576  0.00  0.00    +0.000 C 
ENDROOT
BRANCH   1   2
ATOM      2  O   UNL     1       4.427   2.535  17.593  0.00  0.00    +0.000 OA
ATOM      3  H   UNL     1       3.519   2.296  17.311  0.00  0.00    +0.000 HD
ENDBRANCH   1   2
BRANCH   1   4
ATOM      4  C   UNL     1       5.309   4.656  18.285  0.00  0.00    +0.000 C 
BRANCH   4   5
ATOM      5  O   UNL     1       6.582   4.007  18.486  0.00  0.00    +0.000 OA
ATOM      6  H   UNL     1       6.674   3.862  19.448  0.00  0.00    +0.000 HD
ENDBRANCH   4   5
BRANCH   4   7
ATOM      7  C   UNL     1       5.236   5.233  16.877  0.00  0.00    +0.000 C 
ATOM      8 BR   UNL     1       6.823   4.691  15.863  0.00  0.00    +0.000 Br
ENDBRANCH   4   7
ENDBRANCH   1   4
BRANCH   1   9
ATOM      9  C   UNL     1       4.298   2.952  19.978  0.00  0.00    +0.000 C 
BRANCH   9  10
ATOM     10  O   UNL     1       5.166   1.814  19.943  0.00  0.00    +0.000 OA
ATOM     11  H   UNL     1       4.613   1.028  20.149  0.00  0.00    +0.000 HD
ENDBRANCH   9  10
BRANCH   9  12
ATOM     12  C   UNL     1       2.907   2.546  20.551  0.00  0.00    +0.000 C 
BRANCH  12  13
ATOM     13  O   UNL     1       2.873   2.571  21.982  0.00  0.00    +0.000 OA
ATOM     14  H   UNL     1       2.534   1.710  22.308  0.00  0.00    +0.000 HD
ENDBRANCH  12  13
BRANCH  12  15
ATOM     15  C   UNL     1       1.829   3.514  20.042  0.00  0.00    +0.000 C 
ATOM     16 BR   UNL     1       0.625   2.589  18.799  0.00  0.00    +0.000 Br
ENDBRANCH  12  15
ENDBRANCH   9  12
ENDBRANCH   1   9
TORSDOF 9
ENDMDL
MODEL 6
REMARK VINA RESULT:      -4.7      1.139      4.801
REMARK  Name = 
REMARK  9 active torsions:
REMARK  status: ('A' for Active; 'I' for Inactive)
REMARK    1  A    between atoms: O_1  and  C_2
REMARK    2  A    between atoms: C_2  and  C_3
REMARK    3  A    between atoms: C_2  and  C_5
REMARK    4  A    between atoms: C_5  and  O_6
REMARK    5  A    between atoms: C_5  and  C_7
REMARK    6  A    between atoms: C_7  and  O_8
REMARK    7  A    between atoms: C_7  and  C_9
REMARK    8  A    between atoms: C_9  and  O_10
REMARK    9  A    between atoms: C_9  and  C_11
REMARK                            x       y       z     vdW  Elec       q    Type
REMARK                         _______ _______ _______ _____ _____    ______ ____
ROOT
ATOM      1  C   UNL     1       5.031   4.220  17.626  0.00  0.00    +0.000 C 
ENDROOT
BRANCH   1   2
ATOM      2  O   UNL     1       5.591   3.306  16.655  0.00  0.00    +0.000 OA
ATOM      3  H   UNL     1       4.840   2.726  16.407  0.00  0.00    +0.000 HD
ENDBRANCH   1   2
BRANCH   1   4
ATOM      4  C   UNL     1       6.229   4.997  18.233  0.00  0.00    +0.000 C 
BRANCH   4   5
ATOM      5  O   UNL     1       7.379   4.142  18.068  0.00  0.00    +0.000 OA
ATOM      6  H   UNL     1       8.061   4.674  17.613  0.00  0.00    +0.000 HD
ENDBRANCH   4   5
BRANCH   4   7
ATOM      7  C   UNL     1       6.483   6.346  17.572  0.00  0.00    +0.000 C 
ATOM      8 BR   UNL     1       4.999   6.776  16.367  0.00  0.00    +0.000 Br
ENDBRANCH   4   7
ENDBRANCH   1   4
BRANCH   1   9
ATOM      9  C   UNL     1       4.198   3.414  18.635  0.00  0.00    +0.000 C 
BRANCH   9  10
ATOM     10  O   UNL     1       5.077   2.640  19.458  0.00  0.00    +0.000 OA
ATOM     11  H   UNL     1       5.633   3.277  19.957  0.00  0.00    +0.000 HD
ENDBRANCH   9  10
BRANCH   9  12
ATOM     12  C   UNL     1       3.132   2.490  17.973  0.00  0.00    +0.000 C 
BRANCH  12  13
ATOM     13  O   UNL     1       3.161   1.156  18.493  0.00  0.00    +0.000 OA
ATOM     14  H   UNL     1       2.303   0.964  18.928  0.00  0.00    +0.000 HD
ENDBRANCH  12  13
BRANCH  12  15
ATOM     15  C   UNL     1       1.724   3.054  18.217  0.00  0.00    +0.000 C 
ATOM     16 BR   UNL     1       1.292   2.979  20.130  0.00  0.00    +0.000 Br
ENDBRANCH  12  15
ENDBRANCH   9  12
ENDBRANCH   1   9
TORSDOF 9
ENDMDL
MODEL 7
REMARK VINA RESULT:      -4.7      1.938      2.446
REMARK  Name = 
REMARK  9 active torsions:
REMARK  status: ('A' for Active; 'I' for Inactive)
REMARK    1  A    between atoms: O_1  and  C_2
REMARK    2  A    between atoms: C_2  and  C_3
REMARK    3  A    between atoms: C_2  and  C_5
REMARK    4  A    between atoms: C_5  and  O_6
REMARK    5  A    between atoms: C_5  and  C_7
REMARK    6  A    between atoms: C_7  and  O_8
REMARK    7  A    between atoms: C_7  and  C_9
REMARK    8  A    between atoms: C_9  and  O_10
REMARK    9  A    between atoms: C_9  and  C_11
REMARK                            x       y       z     vdW  Elec       q    Type
REMARK                         _______ _______ _______ _____ _____    ______ ____
ROOT
ATOM      1  C   UNL     1       4.532   4.469  18.877  0.00  0.00    +0.000 C 
ENDROOT
BRANCH   1   2
ATOM      2  O   UNL     1       4.167   5.485  19.840  0.00  0.00    +0.000 OA
ATOM      3  H   UNL     1       3.609   5.011  20.491  0.00  0.00    +0.000 HD
ENDBRANCH   1   2
BRANCH   1   4
ATOM      4  C   UNL     1       3.890   3.148  19.374  0.00  0.00    +0.000 C 
BRANCH   4   5
ATOM      5  O   UNL     1       4.989   2.283  19.729  0.00  0.00    +0.000 OA
ATOM      6  H   UNL     1       5.171   1.726  18.947  0.00  0.00    +0.000 HD
ENDBRANCH   4   5
BRANCH   4   7
ATOM      7  C   UNL     1       2.962   3.328  20.569  0.00  0.00    +0.000 C 
ATOM      8 BR   UNL     1       1.107   3.439  19.948  0.00  0.00    +0.000 Br
ENDBRANCH   4   7
ENDBRANCH   1   4
BRANCH   1   9
ATOM      9  C   UNL     1       6.064   4.442  18.749  0.00  0.00    +0.000 C 
BRANCH   9  10
ATOM     10  O   UNL     1       6.632   5.325  19.723  0.00  0.00    +0.000 OA
ATOM     11  H   UNL     1       6.049   5.291  20.512  0.00  0.00    +0.000 HD
ENDBRANCH   9  10
BRANCH   9  12
ATOM     12  C   UNL     1       6.581   4.810  17.326  0.00  0.00    +0.000 C 
BRANCH  12  13
ATOM     13  O   UNL     1       7.931   4.386  17.105  0.00  0.00    +0.000 OA
ATOM     14  H   UNL     1       8.153   3.680  17.748  0.00  0.00    +0.000 HD
ENDBRANCH  12  13
BRANCH  12  15
ATOM     15  C   UNL     1       5.702   4.141  16.259  0.00  0.00    +0.000 C 
ATOM     16 BR   UNL     1       6.460   4.446  14.475  0.00  0.00    +0.000 Br
ENDBRANCH  12  15
ENDBRANCH   9  12
ENDBRANCH   1   9
TORSDOF 9
ENDMDL
MODEL 8
REMARK VINA RESULT:      -4.7      2.052      4.685
REMARK  Name = 
REMARK  9 active torsions:
REMARK  status: ('A' for Active; 'I' for Inactive)
REMARK    1  A    between atoms: O_1  and  C_2
REMARK    2  A    between atoms: C_2  and  C_3
REMARK    3  A    between atoms: C_2  and  C_5
REMARK    4  A    between atoms: C_5  and  O_6
REMARK    5  A    between atoms: C_5  and  C_7
REMARK    6  A    between atoms: C_7  and  O_8
REMARK    7  A    between atoms: C_7  and  C_9
REMARK    8  A    between atoms: C_9  and  O_10
REMARK    9  A    between atoms: C_9  and  C_11
REMARK                            x       y       z     vdW  Elec       q    Type
REMARK                         _______ _______ _______ _____ _____    ______ ____
ROOT
ATOM      1  C   UNL     1       4.391   3.163  18.729  0.00  0.00    +0.000 C 
ENDROOT
BRANCH   1   2
ATOM      2  O   UNL     1       5.215   2.472  19.696  0.00  0.00    +0.000 OA
ATOM      3  H   UNL     1       5.861   1.975  19.152  0.00  0.00    +0.000 HD
ENDBRANCH   1   2
BRANCH   1   4
ATOM      4  C   UNL     1       4.648   4.677  18.942  0.00  0.00    +0.000 C 
BRANCH   4   5
ATOM      5  O   UNL     1       5.860   4.767  19.719  0.00  0.00    +0.000 OA
ATOM      6  H   UNL     1       6.019   3.880  20.095  0.00  0.00    +0.000 HD
ENDBRANCH   4   5
BRANCH   4   7
ATOM      7  C   UNL     1       4.801   5.463  17.646  0.00  0.00    +0.000 C 
ATOM      8 BR   UNL     1       5.123   4.223  16.163  0.00  0.00    +0.000 Br
ENDBRANCH   4   7
ENDBRANCH   1   4
BRANCH   1   9
ATOM      9  C   UNL     1       2.933   2.716  18.918  0.00  0.00    +0.000 C 
BRANCH   9  10
ATOM     10  O   UNL     1       2.617   1.715  17.944  0.00  0.00    +0.000 OA
ATOM     11  H   UNL     1       2.213   2.181  17.179  0.00  0.00    +0.000 HD
ENDBRANCH   9  10
BRANCH   9  12
ATOM     12  C   UNL     1       1.903   3.883  18.839  0.00  0.00    +0.000 C 
BRANCH  12  13
ATOM     13  O   UNL     1       1.161   3.880  17.614  0.00  0.00    +0.000 OA
ATOM     14  H   UNL     1       1.704   4.295  16.911  0.00  0.00    +0.000 HD
ENDBRANCH  12  13
BRANCH  12  15
ATOM     15  C   UNL     1       0.897   3.774  19.994  0.00  0.00    +0.000 C 
ATOM     16 BR   UNL     1       1.690   2.778  21.487  0.00  0.00    +0.000 Br
ENDBRANCH  12  15
ENDBRANCH   9  12
ENDBRANCH   1   9
TORSDOF 9
ENDMDL
MODEL 9
REMARK VINA RESULT:      -4.7      1.251      4.843
REMARK  Name = 
REMARK  9 active torsions:
REMARK  status: ('A' for Active; 'I' for Inactive)
REMARK    1  A    between atoms: O_1  and  C_2
REMARK    2  A    between atoms: C_2  and  C_3
REMARK    3  A    between atoms: C_2  and  C_5
REMARK    4  A    between atoms: C_5  and  O_6
REMARK    5  A    between atoms: C_5  and  C_7
REMARK    6  A    between atoms: C_7  and  O_8
REMARK    7  A    between atoms: C_7  and  C_9
REMARK    8  A    between atoms: C_9  and  O_10
REMARK    9  A    between atoms: C_9  and  C_11
REMARK                            x       y       z     vdW  Elec       q    Type
REMARK                         _______ _______ _______ _____ _____    ______ ____
ROOT
ATOM      1  C   UNL     1       4.981   5.069  18.156  0.00  0.00    +0.000 C 
ENDROOT
BRANCH   1   2
ATOM      2  O   UNL     1       3.990   5.388  17.153  0.00  0.00    +0.000 OA
ATOM      3  H   UNL     1       3.227   5.726  17.666  0.00  0.00    +0.000 HD
ENDBRANCH   1   2
BRANCH   1   4
ATOM      4  C   UNL     1       6.240   4.591  17.386  0.00  0.00    +0.000 C 
BRANCH   4   5
ATOM      5  O   UNL     1       5.810   3.478  16.576  0.00  0.00    +0.000 OA
ATOM      6  H   UNL     1       5.264   2.907  17.151  0.00  0.00    +0.000 HD
ENDBRANCH   4   5
BRANCH   4   7
ATOM      7  C   UNL     1       6.866   5.666  16.506  0.00  0.00    +0.000 C 
ATOM      8 BR   UNL     1       7.475   7.156  17.623  0.00  0.00    +0.000 Br
ENDBRANCH   4   7
ENDBRANCH   1   4
BRANCH   1   9
ATOM      9  C   UNL     1       4.382   4.040  19.129  0.00  0.00    +0.000 C 
BRANCH   9  10
ATOM     10  O   UNL     1       5.320   2.975  19.323  0.00  0.00    +0.000 OA
ATOM     11  H   UNL     1       4.961   2.192  18.852  0.00  0.00    +0.000 HD
ENDBRANCH   9  10
BRANCH   9  12
ATOM     12  C   UNL     1       3.009   3.466  18.667  0.00  0.00    +0.000 C 
BRANCH  12  13
ATOM     13  O   UNL     1       3.105   2.720  17.449  0.00  0.00    +0.000 OA
ATOM     14  H   UNL     1       3.103   1.762  17.660  0.00  0.00    +0.000 HD
ENDBRANCH  12  13
BRANCH  12  15
ATOM     15  C   UNL     1       2.444   2.528  19.744  0.00  0.00    +0.000 C 
ATOM     16 BR   UNL     1       2.077   3.533  21.389  0.00  0.00    +0.000 Br
ENDBRANCH  12  15
ENDBRANCH   9  12
ENDBRANCH   1   9
TORSDOF 9
ENDMDL
