MODEL 1
REMARK VINA RESULT:      -7.5      0.000      0.000
REMARK  Name = 
REMARK  1 active torsions:
REMARK  status: ('A' for Active; 'I' for Inactive)
REMARK    1  A    between atoms: C_5  and  C_6
REMARK                            x       y       z     vdW  Elec       q    Type
REMARK                         _______ _______ _______ _____ _____    ______ ____
ROOT
ATOM      1  C   UNL     1       4.374   4.163  18.137  0.00  0.00    +0.000 A 
ATOM      2  N   UNL     1       4.188   3.724  16.824  0.00  0.00    +0.000 NA
ATOM      3  C   UNL     1       5.192   4.249  16.193  0.00  0.00    +0.000 A 
ATOM      4  C   UNL     1       5.586   4.185  14.776  0.00  0.00    +0.000 A 
ATOM      5  C   UNL     1       6.710   4.846  14.459  0.00  0.00    +0.000 A 
ATOM      6  N   UNL     1       7.468   5.544  15.374  0.00  0.00    +0.000 N 
ATOM      7  C   UNL     1       7.103   5.624  16.700  0.00  0.00    +0.000 A 
ATOM      8  C   UNL     1       6.004   5.014  17.147  0.00  0.00    +0.000 A 
ATOM      9  N   UNL     1       5.417   4.919  18.371  0.00  0.00    +0.000 NA
ATOM     10  H   UNL     1       8.309   6.023  15.066  0.00  0.00    +0.000 HD
ENDROOT
BRANCH   1  15
ATOM     11  F   UNL     1       0.726   2.592  22.083  0.00  0.00    +0.000 F 
ATOM     12  C   UNL     1       1.598   2.974  21.140  0.00  0.00    +0.000 A 
ATOM     13  C   UNL     1       1.180   3.835  20.131  0.00  0.00    +0.000 A 
ATOM     14  C   UNL     1       2.087   4.234  19.146  0.00  0.00    +0.000 A 
ATOM     15  C   UNL     1       3.405   3.761  19.179  0.00  0.00    +0.000 A 
ATOM     16  C   UNL     1       3.813   2.895  20.203  0.00  0.00    +0.000 A 
ATOM     17  C   UNL     1       2.906   2.502  21.187  0.00  0.00    +0.000 A 
ENDBRANCH   1  15
TORSDOF 1
ENDMDL
MODEL 2
REMARK VINA RESULT:      -7.5      0.040      1.213
REMARK  Name = 
REMARK  1 active torsions:
REMARK  status: ('A' for Active; 'I' for Inactive)
REMARK    1  A    between atoms: C_5  and  C_6
REMARK                            x       y       z     vdW  Elec       q    Type
REMARK                         _______ _______ _______ _____ _____    ______ ____
ROOT
ATOM      1  C   UNL     1       4.391   4.118  18.143  0.00  0.00    +0.000 A 
ATOM      2  N   UNL     1       4.190   3.707  16.823  0.00  0.00    +0.000 NA
ATOM      3  C   UNL     1       5.193   4.236  16.194  0.00  0.00    +0.000 A 
ATOM      4  C   UNL     1       5.572   4.196  14.772  0.00  0.00    +0.000 A 
ATOM      5  C   UNL     1       6.699   4.854  14.457  0.00  0.00    +0.000 A 
ATOM      6  N   UNL     1       7.472   5.527  15.378  0.00  0.00    +0.000 N 
ATOM      7  C   UNL     1       7.119   5.584  16.710  0.00  0.00    +0.000 A 
ATOM      8  C   UNL     1       6.020   4.975  17.155  0.00  0.00    +0.000 A 
ATOM      9  N   UNL     1       5.443   4.860  18.382  0.00  0.00    +0.000 NA
ATOM     10  H   UNL     1       8.314   6.005  15.072  0.00  0.00    +0.000 HD
ENDROOT
BRANCH   1  15
ATOM     11  F   UNL     1       0.726   2.596  22.091  0.00  0.00    +0.000 F 
ATOM     12  C   UNL     1       1.604   2.955  21.145  0.00  0.00    +0.000 A 
ATOM     13  C   UNL     1       2.908   2.476  21.206  0.00  0.00    +0.000 A 
ATOM     14  C   UNL     1       3.826   2.848  20.222  0.00  0.00    +0.000 A 
ATOM     15  C   UNL     1       3.429   3.704  19.186  0.00  0.00    +0.000 A 
ATOM     16  C   UNL     1       2.111   4.178  19.135  0.00  0.00    +0.000 A 
ATOM     17  C   UNL     1       1.195   3.800  20.118  0.00  0.00    +0.000 A 
ENDBRANCH   1  15
TORSDOF 1
ENDMDL
MODEL 3
REMARK VINA RESULT:      -7.2      3.181      6.427
REMARK  Name = 
REMARK  1 active torsions:
REMARK  status: ('A' for Active; 'I' for Inactive)
REMARK    1  A    between atoms: C_5  and  C_6
REMARK                            x       y       z     vdW  Elec       q    Type
REMARK                         _______ _______ _______ _____ _____    ______ ____
ROOT
ATOM      1  C   UNL     1       4.025   3.928  18.085  0.00  0.00    +0.000 A 
ATOM      2  N   UNL     1       4.423   3.327  19.282  0.00  0.00    +0.000 NA
ATOM      3  C   UNL     1       3.305   3.178  19.922  0.00  0.00    +0.000 A 
ATOM      4  C   UNL     1       3.019   2.614  21.252  0.00  0.00    +0.000 A 
ATOM      5  C   UNL     1       1.725   2.600  21.607  0.00  0.00    +0.000 A 
ATOM      6  N   UNL     1       0.709   3.073  20.804  0.00  0.00    +0.000 N 
ATOM      7  C   UNL     1       0.965   3.617  19.564  0.00  0.00    +0.000 A 
ATOM      8  C   UNL     1       2.210   3.693  19.091  0.00  0.00    +0.000 A 
ATOM      9  N   UNL     1       2.746   4.162  17.932  0.00  0.00    +0.000 NA
ATOM     10  H   UNL     1      -0.250   3.033  21.135  0.00  0.00    +0.000 HD
ENDROOT
BRANCH   1  15
ATOM     11  F   UNL     1       7.865   5.161  14.203  0.00  0.00    +0.000 F 
ATOM     12  C   UNL     1       6.948   4.871  15.135  0.00  0.00    +0.000 A 
ATOM     13  C   UNL     1       7.319   4.840  16.474  0.00  0.00    +0.000 A 
ATOM     14  C   UNL     1       6.365   4.537  17.448  0.00  0.00    +0.000 A 
ATOM     15  C   UNL     1       5.044   4.263  17.069  0.00  0.00    +0.000 A 
ATOM     16  C   UNL     1       4.683   4.299  15.714  0.00  0.00    +0.000 A 
ATOM     17  C   UNL     1       5.638   4.606  14.745  0.00  0.00    +0.000 A 
ENDBRANCH   1  15
TORSDOF 1
ENDMDL
MODEL 4
REMARK VINA RESULT:      -7.2      3.177      6.344
REMARK  Name = 
REMARK  1 active torsions:
REMARK  status: ('A' for Active; 'I' for Inactive)
REMARK    1  A    between atoms: C_5  and  C_6
REMARK                            x       y       z     vdW  Elec       q    Type
REMARK                         _______ _______ _______ _____ _____    ______ ____
ROOT
ATOM      1  C   UNL     1       4.009   3.911  18.081  0.00  0.00    +0.000 A 
ATOM      2  N   UNL     1       4.408   3.293  19.268  0.00  0.00    +0.000 NA
ATOM      3  C   UNL     1       3.296   3.161  19.921  0.00  0.00    +0.000 A 
ATOM      4  C   UNL     1       3.015   2.592  21.249  0.00  0.00    +0.000 A 
ATOM      5  C   UNL     1       1.725   2.602  21.620  0.00  0.00    +0.000 A 
ATOM      6  N   UNL     1       0.710   3.103  20.834  0.00  0.00    +0.000 N 
ATOM      7  C   UNL     1       0.961   3.651  19.595  0.00  0.00    +0.000 A 
ATOM      8  C   UNL     1       2.202   3.705  19.108  0.00  0.00    +0.000 A 
ATOM      9  N   UNL     1       2.733   4.173  17.946  0.00  0.00    +0.000 NA
ATOM     10  H   UNL     1      -0.246   3.080  21.177  0.00  0.00    +0.000 HD
ENDROOT
BRANCH   1  15
ATOM     11  F   UNL     1       7.866   5.171  14.224  0.00  0.00    +0.000 F 
ATOM     12  C   UNL     1       6.942   4.864  15.144  0.00  0.00    +0.000 A 
ATOM     13  C   UNL     1       5.681   4.444  14.735  0.00  0.00    +0.000 A 
ATOM     14  C   UNL     1       4.716   4.124  15.692  0.00  0.00    +0.000 A 
ATOM     15  C   UNL     1       5.022   4.234  17.055  0.00  0.00    +0.000 A 
ATOM     16  C   UNL     1       6.298   4.657  17.454  0.00  0.00    +0.000 A 
ATOM     17  C   UNL     1       7.261   4.971  16.494  0.00  0.00    +0.000 A 
ENDBRANCH   1  15
TORSDOF 1
ENDMDL
MODEL 5
REMARK VINA RESULT:      -7.1      3.179      6.331
REMARK  Name = 
REMARK  1 active torsions:
REMARK  status: ('A' for Active; 'I' for Inactive)
REMARK    1  A    between atoms: C_5  and  C_6
REMARK                            x       y       z     vdW  Elec       q    Type
REMARK                         _______ _______ _______ _____ _____    ______ ____
ROOT
ATOM      1  C   UNL     1       4.348   3.791  18.305  0.00  0.00    +0.000 A 
ATOM      2  N   UNL     1       3.003   4.168  18.266  0.00  0.00    +0.000 NA
ATOM      3  C   UNL     1       2.529   3.681  19.370  0.00  0.00    +0.000 A 
ATOM      4  C   UNL     1       1.171   3.716  19.938  0.00  0.00    +0.000 A 
ATOM      5  C   UNL     1       1.029   3.112  21.129  0.00  0.00    +0.000 A 
ATOM      6  N   UNL     1       2.063   2.496  21.800  0.00  0.00    +0.000 N 
ATOM      7  C   UNL     1       3.335   2.444  21.272  0.00  0.00    +0.000 A 
ATOM      8  C   UNL     1       3.612   3.003  20.094  0.00  0.00    +0.000 A 
ATOM      9  N   UNL     1       4.746   3.109  19.350  0.00  0.00    +0.000 NA
ATOM     10  H   UNL     1       1.885   2.058  22.699  0.00  0.00    +0.000 HD
ENDROOT
BRANCH   1  15
ATOM     11  F   UNL     1       7.706   5.199  14.053  0.00  0.00    +0.000 F 
ATOM     12  C   UNL     1       6.904   4.867  15.073  0.00  0.00    +0.000 A 
ATOM     13  C   UNL     1       7.382   4.954  16.376  0.00  0.00    +0.000 A 
ATOM     14  C   UNL     1       6.548   4.608  17.441  0.00  0.00    +0.000 A 
ATOM     15  C   UNL     1       5.240   4.173  17.190  0.00  0.00    +0.000 A 
ATOM     16  C   UNL     1       4.770   4.092  15.872  0.00  0.00    +0.000 A 
ATOM     17  C   UNL     1       5.605   4.442  14.810  0.00  0.00    +0.000 A 
ENDBRANCH   1  15
TORSDOF 1
ENDMDL
MODEL 6
REMARK VINA RESULT:      -7.1      3.187      6.252
REMARK  Name = 
REMARK  1 active torsions:
REMARK  status: ('A' for Active; 'I' for Inactive)
REMARK    1  A    between atoms: C_5  and  C_6
REMARK                            x       y       z     vdW  Elec       q    Type
REMARK                         _______ _______ _______ _____ _____    ______ ____
ROOT
ATOM      1  C   UNL     1       4.390   3.768  18.271  0.00  0.00    +0.000 A 
ATOM      2  N   UNL     1       3.053   4.171  18.237  0.00  0.00    +0.000 NA
ATOM      3  C   UNL     1       2.574   3.697  19.345  0.00  0.00    +0.000 A 
ATOM      4  C   UNL     1       1.220   3.759  19.919  0.00  0.00    +0.000 A 
ATOM      5  C   UNL     1       1.071   3.162  21.112  0.00  0.00    +0.000 A 
ATOM      6  N   UNL     1       2.096   2.528  21.780  0.00  0.00    +0.000 N 
ATOM      7  C   UNL     1       3.364   2.450  21.247  0.00  0.00    +0.000 A 
ATOM      8  C   UNL     1       3.647   3.000  20.065  0.00  0.00    +0.000 A 
ATOM      9  N   UNL     1       4.779   3.082  19.316  0.00  0.00    +0.000 NA
ATOM     10  H   UNL     1       1.914   2.096  22.681  0.00  0.00    +0.000 HD
ENDROOT
BRANCH   1  15
ATOM     11  F   UNL     1       7.798   5.174  14.058  0.00  0.00    +0.000 F 
ATOM     12  C   UNL     1       6.981   4.833  15.063  0.00  0.00    +0.000 A 
ATOM     13  C   UNL     1       5.674   4.449  14.783  0.00  0.00    +0.000 A 
ATOM     14  C   UNL     1       4.821   4.093  15.829  0.00  0.00    +0.000 A 
ATOM     15  C   UNL     1       5.284   4.130  17.151  0.00  0.00    +0.000 A 
ATOM     16  C   UNL     1       6.605   4.516  17.420  0.00  0.00    +0.000 A 
ATOM     17  C   UNL     1       7.456   4.867  16.371  0.00  0.00    +0.000 A 
ENDBRANCH   1  15
TORSDOF 1
ENDMDL
MODEL 7
REMARK VINA RESULT:      -6.9      0.665      1.928
REMARK  Name = 
REMARK  1 active torsions:
REMARK  status: ('A' for Active; 'I' for Inactive)
REMARK    1  A    between atoms: C_5  and  C_6
REMARK                            x       y       z     vdW  Elec       q    Type
REMARK                         _______ _______ _______ _____ _____    ______ ____
ROOT
ATOM      1  C   UNL     1       4.117   3.803  18.196  0.00  0.00    +0.000 A 
ATOM      2  N   UNL     1       5.425   4.204  18.477  0.00  0.00    +0.000 NA
ATOM      3  C   UNL     1       5.924   4.428  17.301  0.00  0.00    +0.000 A 
ATOM      4  C   UNL     1       7.266   4.870  16.887  0.00  0.00    +0.000 A 
ATOM      5  C   UNL     1       7.443   5.016  15.565  0.00  0.00    +0.000 A 
ATOM      6  N   UNL     1       6.456   4.779  14.633  0.00  0.00    +0.000 N 
ATOM      7  C   UNL     1       5.200   4.351  15.006  0.00  0.00    +0.000 A 
ATOM      8  C   UNL     1       4.893   4.163  16.291  0.00  0.00    +0.000 A 
ATOM      9  N   UNL     1       3.764   3.762  16.935  0.00  0.00    +0.000 NA
ATOM     10  H   UNL     1       6.657   4.909  13.646  0.00  0.00    +0.000 HD
ENDROOT
BRANCH   1  15
ATOM     11  F   UNL     1       0.665   2.524  22.413  0.00  0.00    +0.000 F 
ATOM     12  C   UNL     1       1.492   2.824  21.403  0.00  0.00    +0.000 A 
ATOM     13  C   UNL     1       2.808   2.375  21.440  0.00  0.00    +0.000 A 
ATOM     14  C   UNL     1       3.672   2.687  20.389  0.00  0.00    +0.000 A 
ATOM     15  C   UNL     1       3.211   3.453  19.310  0.00  0.00    +0.000 A 
ATOM     16  C   UNL     1       1.882   3.898  19.285  0.00  0.00    +0.000 A 
ATOM     17  C   UNL     1       1.020   3.580  20.335  0.00  0.00    +0.000 A 
ENDBRANCH   1  15
TORSDOF 1
ENDMDL
MODEL 8
REMARK VINA RESULT:      -6.8      2.381      2.881
REMARK  Name = 
REMARK  1 active torsions:
REMARK  status: ('A' for Active; 'I' for Inactive)
REMARK    1  A    between atoms: C_5  and  C_6
REMARK                            x       y       z     vdW  Elec       q    Type
REMARK                         _______ _______ _______ _____ _____    ______ ____
ROOT
ATOM      1  C   UNL     1       4.735   4.808  18.544  0.00  0.00    +0.000 A 
ATOM      2  N   UNL     1       4.853   5.860  17.632  0.00  0.00    +0.000 NA
ATOM      3  C   UNL     1       6.016   6.361  17.908  0.00  0.00    +0.000 A 
ATOM      4  C   UNL     1       6.745   7.498  17.320  0.00  0.00    +0.000 A 
ATOM      5  C   UNL     1       7.956   7.740  17.846  0.00  0.00    +0.000 A 
ATOM      6  N   UNL     1       8.509   6.994  18.865  0.00  0.00    +0.000 N 
ATOM      7  C   UNL     1       7.831   5.937  19.433  0.00  0.00    +0.000 A 
ATOM      8  C   UNL     1       6.616   5.591  19.005  0.00  0.00    +0.000 A 
ATOM      9  N   UNL     1       5.737   4.617  19.365  0.00  0.00    +0.000 NA
ATOM     10  H   UNL     1       9.431   7.233  19.216  0.00  0.00    +0.000 HD
ENDROOT
BRANCH   1  15
ATOM     11  F   UNL     1       0.096   1.675  18.576  0.00  0.00    +0.000 F 
ATOM     12  C   UNL     1       1.206   2.425  18.562  0.00  0.00    +0.000 A 
ATOM     13  C   UNL     1       2.297   2.020  17.800  0.00  0.00    +0.000 A 
ATOM     14  C   UNL     1       3.455   2.799  17.785  0.00  0.00    +0.000 A 
ATOM     15  C   UNL     1       3.513   3.979  18.539  0.00  0.00    +0.000 A 
ATOM     16  C   UNL     1       2.405   4.377  19.301  0.00  0.00    +0.000 A 
ATOM     17  C   UNL     1       1.248   3.597  19.311  0.00  0.00    +0.000 A 
ENDBRANCH   1  15
TORSDOF 1
ENDMDL
MODEL 9
REMARK VINA RESULT:      -6.8      3.259      6.431
REMARK  Name = 
REMARK  1 active torsions:
REMARK  status: ('A' for Active; 'I' for Inactive)
REMARK    1  A    between atoms: C_5  and  C_6
REMARK                            x       y       z     vdW  Elec       q    Type
REMARK                         _______ _______ _______ _____ _____    ______ ____
ROOT
ATOM      1  C   UNL     1       3.925   4.098  17.436  0.00  0.00    +0.000 A 
ATOM      2  N   UNL     1       3.966   4.687  18.702  0.00  0.00    +0.000 NA
ATOM      3  C   UNL     1       2.898   4.229  19.275  0.00  0.00    +0.000 A 
ATOM      4  C   UNL     1       2.343   4.465  20.619  0.00  0.00    +0.000 A 
ATOM      5  C   UNL     1       1.205   3.809  20.897  0.00  0.00    +0.000 A 
ATOM      6  N   UNL     1       0.575   2.965  20.008  0.00  0.00    +0.000 N 
ATOM      7  C   UNL     1       1.076   2.748  18.742  0.00  0.00    +0.000 A 
ATOM      8  C   UNL     1       2.200   3.340  18.338  0.00  0.00    +0.000 A 
ATOM      9  N   UNL     1       2.912   3.309  17.179  0.00  0.00    +0.000 NA
ATOM     10  H   UNL     1      -0.285   2.500  20.283  0.00  0.00    +0.000 HD
ENDROOT
BRANCH   1  15
ATOM     11  F   UNL     1       8.014   5.240  13.787  0.00  0.00    +0.000 F 
ATOM     12  C   UNL     1       7.036   4.961  14.659  0.00  0.00    +0.000 A 
ATOM     13  C   UNL     1       5.913   4.263  14.227  0.00  0.00    +0.000 A 
ATOM     14  C   UNL     1       4.892   3.972  15.133  0.00  0.00    +0.000 A 
ATOM     15  C   UNL     1       5.002   4.388  16.467  0.00  0.00    +0.000 A 
ATOM     16  C   UNL     1       6.140   5.089  16.889  0.00  0.00    +0.000 A 
ATOM     17  C   UNL     1       7.161   5.375  15.981  0.00  0.00    +0.000 A 
ENDBRANCH   1  15
TORSDOF 1
ENDMDL
