MODEL 1
REMARK VINA RESULT:      -6.1      0.000      0.000
REMARK  Name = 
REMARK  2 active torsions:
REMARK  status: ('A' for Active; 'I' for Inactive)
REMARK    1  A    between atoms: C_2  and  C_11
REMARK    2  A    between atoms: N_3  and  C_4
REMARK                            x       y       z     vdW  Elec       q    Type
REMARK                         _______ _______ _______ _____ _____    ______ ____
ROOT
ATOM      1  O   UNL     1       5.884   4.382  18.277  0.00  0.00    +0.000 OA
ATOM      2  C   UNL     1       5.239   4.596  17.255  0.00  0.00    +0.000 C 
ATOM      3  N   UNL     1       3.886   4.949  17.254  0.00  0.00    +0.000 N 
ATOM      4  H   UNL     1       3.430   4.930  16.348  0.00  0.00    +0.000 HD
ENDROOT
BRANCH   3   5
ATOM      5  C   UNL     1       3.107   5.157  18.416  0.00  0.00    +0.000 A 
ATOM      6  C   UNL     1       2.765   6.435  18.873  0.00  0.00    +0.000 A 
ATOM      7  C   UNL     1       2.069   6.618  20.067  0.00  0.00    +0.000 A 
ATOM      8  C   UNL     1       1.693   5.514  20.821  0.00  0.00    +0.000 A 
ATOM      9  C   UNL     1       1.990   4.234  20.353  0.00  0.00    +0.000 A 
ATOM     10 BR   UNL     1       1.497   2.737  21.402  0.00  0.00    +0.000 Br
ATOM     11  C   UNL     1       2.674   4.044  19.146  0.00  0.00    +0.000 A 
ENDBRANCH   3   5
BRANCH   2  12
ATOM     12  C   UNL     1       5.831   4.467  15.929  0.00  0.00    +0.000 A 
ATOM     13  N   UNL     1       5.298   3.784  14.933  0.00  0.00    +0.000 NA
ATOM     14  C   UNL     1       6.086   3.964  13.810  0.00  0.00    +0.000 A 
ATOM     15 BR   UNL     1       5.587   3.223  12.140  0.00  0.00    +0.000 Br
ATOM     16  C   UNL     1       7.224   4.724  13.976  0.00  0.00    +0.000 A 
ATOM     17  S   UNL     1       7.316   5.268  15.591  0.00  0.00    +0.000 S 
ENDBRANCH   2  12
TORSDOF 2
ENDMDL
MODEL 2
REMARK VINA RESULT:      -6.0      1.325      1.782
REMARK  Name = 
REMARK  2 active torsions:
REMARK  status: ('A' for Active; 'I' for Inactive)
REMARK    1  A    between atoms: C_2  and  C_11
REMARK    2  A    between atoms: N_3  and  C_4
REMARK                            x       y       z     vdW  Elec       q    Type
REMARK                         _______ _______ _______ _____ _____    ______ ____
ROOT
ATOM      1  O   UNL     1       5.867   4.350  18.389  0.00  0.00    +0.000 OA
ATOM      2  C   UNL     1       5.210   4.436  17.355  0.00  0.00    +0.000 C 
ATOM      3  N   UNL     1       3.817   4.550  17.334  0.00  0.00    +0.000 N 
ATOM      4  H   UNL     1       3.383   4.441  16.423  0.00  0.00    +0.000 HD
ENDROOT
BRANCH   3   5
ATOM      5  C   UNL     1       2.997   4.637  18.483  0.00  0.00    +0.000 A 
ATOM      6  C   UNL     1       2.364   3.522  19.043  0.00  0.00    +0.000 A 
ATOM      7  C   UNL     1       1.493   3.645  20.123  0.00  0.00    +0.000 A 
ATOM      8  C   UNL     1       1.249   4.897  20.671  0.00  0.00    +0.000 A 
ATOM      9  C   UNL     1       1.908   6.011  20.151  0.00  0.00    +0.000 A 
ATOM     10 BR   UNL     1       1.549   7.718  20.888  0.00  0.00    +0.000 Br
ATOM     11  C   UNL     1       2.798   5.890  19.076  0.00  0.00    +0.000 A 
ENDBRANCH   3   5
BRANCH   2  12
ATOM     12  C   UNL     1       5.834   4.392  16.039  0.00  0.00    +0.000 A 
ATOM     13  N   UNL     1       5.373   3.703  15.012  0.00  0.00    +0.000 NA
ATOM     14  C   UNL     1       6.165   3.976  13.912  0.00  0.00    +0.000 A 
ATOM     15 BR   UNL     1       5.754   3.252  12.211  0.00  0.00    +0.000 Br
ATOM     16  C   UNL     1       7.239   4.814  14.123  0.00  0.00    +0.000 A 
ATOM     17  S   UNL     1       7.260   5.313  15.755  0.00  0.00    +0.000 S 
ENDBRANCH   2  12
TORSDOF 2
ENDMDL
MODEL 3
REMARK VINA RESULT:      -6.0      3.285      6.858
REMARK  Name = 
REMARK  2 active torsions:
REMARK  status: ('A' for Active; 'I' for Inactive)
REMARK    1  A    between atoms: C_2  and  C_11
REMARK    2  A    between atoms: N_3  and  C_4
REMARK                            x       y       z     vdW  Elec       q    Type
REMARK                         _______ _______ _______ _____ _____    ______ ____
ROOT
ATOM      1  O   UNL     1       3.006   5.384  19.178  0.00  0.00    +0.000 OA
ATOM      2  C   UNL     1       3.188   6.528  18.770  0.00  0.00    +0.000 C 
ATOM      3  N   UNL     1       4.273   6.898  17.970  0.00  0.00    +0.000 N 
ATOM      4  H   UNL     1       4.402   7.896  17.844  0.00  0.00    +0.000 HD
ENDROOT
BRANCH   3   5
ATOM      5  C   UNL     1       5.260   6.008  17.487  0.00  0.00    +0.000 A 
ATOM      6  C   UNL     1       6.383   5.647  18.239  0.00  0.00    +0.000 A 
ATOM      7  C   UNL     1       7.385   4.836  17.709  0.00  0.00    +0.000 A 
ATOM      8  C   UNL     1       7.269   4.360  16.410  0.00  0.00    +0.000 A 
ATOM      9  C   UNL     1       6.133   4.676  15.665  0.00  0.00    +0.000 A 
ATOM     10 BR   UNL     1       5.998   4.045  13.885  0.00  0.00    +0.000 Br
ATOM     11  C   UNL     1       5.116   5.477  16.199  0.00  0.00    +0.000 A 
ENDBRANCH   3   5
BRANCH   2  12
ATOM     12  C   UNL     1       2.291   7.622  19.117  0.00  0.00    +0.000 A 
ATOM     13  N   UNL     1       1.746   7.798  20.307  0.00  0.00    +0.000 NA
ATOM     14  C   UNL     1       1.035   8.984  20.291  0.00  0.00    +0.000 A 
ATOM     15 BR   UNL     1       0.194   9.637  21.857  0.00  0.00    +0.000 Br
ATOM     16  C   UNL     1       1.001   9.661  19.091  0.00  0.00    +0.000 A 
ATOM     17  S   UNL     1       1.912   8.807  17.928  0.00  0.00    +0.000 S 
ENDBRANCH   2  12
TORSDOF 2
ENDMDL
MODEL 4
REMARK VINA RESULT:      -6.0      6.985      7.891
REMARK  Name = 
REMARK  2 active torsions:
REMARK  status: ('A' for Active; 'I' for Inactive)
REMARK    1  A    between atoms: C_2  and  C_11
REMARK    2  A    between atoms: N_3  and  C_4
REMARK                            x       y       z     vdW  Elec       q    Type
REMARK                         _______ _______ _______ _____ _____    ______ ____
ROOT
ATOM      1  O   UNL     1       7.439   9.646  17.314  0.00  0.00    +0.000 OA
ATOM      2  C   UNL     1       7.969   8.744  17.956  0.00  0.00    +0.000 C 
ATOM      3  N   UNL     1       8.951   8.961  18.927  0.00  0.00    +0.000 N 
ATOM      4  H   UNL     1       9.427   8.129  19.260  0.00  0.00    +0.000 HD
ENDROOT
BRANCH   3   5
ATOM      5  C   UNL     1       9.417  10.233  19.333  0.00  0.00    +0.000 A 
ATOM      6  C   UNL     1       9.281  10.701  20.644  0.00  0.00    +0.000 A 
ATOM      7  C   UNL     1       9.670  11.991  21.000  0.00  0.00    +0.000 A 
ATOM      8  C   UNL     1      10.217  12.834  20.042  0.00  0.00    +0.000 A 
ATOM      9  C   UNL     1      10.399  12.364  18.741  0.00  0.00    +0.000 A 
ATOM     10 BR   UNL     1      11.120  13.529  17.436  0.00  0.00    +0.000 Br
ATOM     11  C   UNL     1      10.025  11.063  18.383  0.00  0.00    +0.000 A 
ENDBRANCH   3   5
BRANCH   2  12
ATOM     12  C   UNL     1       7.637   7.342  17.733  0.00  0.00    +0.000 A 
ATOM     13  N   UNL     1       7.145   6.857  16.608  0.00  0.00    +0.000 NA
ATOM     14  C   UNL     1       7.047   5.483  16.731  0.00  0.00    +0.000 A 
ATOM     15 BR   UNL     1       6.478   4.412  15.276  0.00  0.00    +0.000 Br
ATOM     16  C   UNL     1       7.408   4.950  17.950  0.00  0.00    +0.000 A 
ATOM     17  S   UNL     1       7.919   6.203  18.991  0.00  0.00    +0.000 S 
ENDBRANCH   2  12
TORSDOF 2
ENDMDL
MODEL 5
REMARK VINA RESULT:      -5.9      4.475      7.282
REMARK  Name = 
REMARK  2 active torsions:
REMARK  status: ('A' for Active; 'I' for Inactive)
REMARK    1  A    between atoms: C_2  and  C_11
REMARK    2  A    between atoms: N_3  and  C_4
REMARK                            x       y       z     vdW  Elec       q    Type
REMARK                         _______ _______ _______ _____ _____    ______ ____
ROOT
ATOM      1  O   UNL     1       2.024   8.949  17.284  0.00  0.00    +0.000 OA
ATOM      2  C   UNL     1       1.883   8.658  18.469  0.00  0.00    +0.000 C 
ATOM      3  N   UNL     1       2.334   7.460  19.029  0.00  0.00    +0.000 N 
ATOM      4  H   UNL     1       2.007   7.267  19.970  0.00  0.00    +0.000 HD
ENDROOT
BRANCH   3   5
ATOM      5  C   UNL     1       3.052   6.463  18.329  0.00  0.00    +0.000 A 
ATOM      6  C   UNL     1       4.184   6.751  17.558  0.00  0.00    +0.000 A 
ATOM      7  C   UNL     1       4.825   5.766  16.809  0.00  0.00    +0.000 A 
ATOM      8  C   UNL     1       4.343   4.463  16.829  0.00  0.00    +0.000 A 
ATOM      9  C   UNL     1       3.242   4.154  17.628  0.00  0.00    +0.000 A 
ATOM     10 BR   UNL     1       2.576   2.382  17.628  0.00  0.00    +0.000 Br
ATOM     11  C   UNL     1       2.605   5.137  18.396  0.00  0.00    +0.000 A 
ENDBRANCH   3   5
BRANCH   2  12
ATOM     12  C   UNL     1       1.191   9.539  19.401  0.00  0.00    +0.000 A 
ATOM     13  N   UNL     1       0.669   9.155  20.551  0.00  0.00    +0.000 NA
ATOM     14  C   UNL     1       0.182  10.272  21.205  0.00  0.00    +0.000 A 
ATOM     15 BR   UNL     1      -0.551  10.140  22.946  0.00  0.00    +0.000 Br
ATOM     16  C   UNL     1       0.287  11.470  20.531  0.00  0.00    +0.000 A 
ATOM     17  S   UNL     1       1.047  11.213  19.025  0.00  0.00    +0.000 S 
ENDBRANCH   2  12
TORSDOF 2
ENDMDL
MODEL 6
REMARK VINA RESULT:      -5.8      3.186      3.963
REMARK  Name = 
REMARK  2 active torsions:
REMARK  status: ('A' for Active; 'I' for Inactive)
REMARK    1  A    between atoms: C_2  and  C_11
REMARK    2  A    between atoms: N_3  and  C_4
REMARK                            x       y       z     vdW  Elec       q    Type
REMARK                         _______ _______ _______ _____ _____    ______ ____
ROOT
ATOM      1  O   UNL     1       2.147   5.476  18.755  0.00  0.00    +0.000 OA
ATOM      2  C   UNL     1       3.091   6.159  18.368  0.00  0.00    +0.000 C 
ATOM      3  N   UNL     1       3.066   7.555  18.323  0.00  0.00    +0.000 N 
ATOM      4  H   UNL     1       3.837   7.991  17.828  0.00  0.00    +0.000 HD
ENDROOT
BRANCH   3   5
ATOM      5  C   UNL     1       1.988   8.357  18.765  0.00  0.00    +0.000 A 
ATOM      6  C   UNL     1       1.237   9.155  17.894  0.00  0.00    +0.000 A 
ATOM      7  C   UNL     1       0.235  10.002  18.364  0.00  0.00    +0.000 A 
ATOM      8  C   UNL     1      -0.040  10.054  19.724  0.00  0.00    +0.000 A 
ATOM      9  C   UNL     1       0.672   9.231  20.597  0.00  0.00    +0.000 A 
ATOM     10 BR   UNL     1       0.309   9.330  22.453  0.00  0.00    +0.000 Br
ATOM     11  C   UNL     1       1.668   8.366  20.128  0.00  0.00    +0.000 A 
ENDBRANCH   3   5
BRANCH   2  12
ATOM     12  C   UNL     1       4.328   5.559  17.881  0.00  0.00    +0.000 A 
ATOM     13  N   UNL     1       4.608   5.344  16.610  0.00  0.00    +0.000 NA
ATOM     14  C   UNL     1       5.898   4.854  16.524  0.00  0.00    +0.000 A 
ATOM     15 BR   UNL     1       6.705   4.521  14.843  0.00  0.00    +0.000 Br
ATOM     16  C   UNL     1       6.557   4.651  17.718  0.00  0.00    +0.000 A 
ATOM     17  S   UNL     1       5.545   5.112  19.012  0.00  0.00    +0.000 S 
ENDBRANCH   2  12
TORSDOF 2
ENDMDL
MODEL 7
REMARK VINA RESULT:      -5.8      4.268      7.215
REMARK  Name = 
REMARK  2 active torsions:
REMARK  status: ('A' for Active; 'I' for Inactive)
REMARK    1  A    between atoms: C_2  and  C_11
REMARK    2  A    between atoms: N_3  and  C_4
REMARK                            x       y       z     vdW  Elec       q    Type
REMARK                         _______ _______ _______ _____ _____    ______ ____
ROOT
ATOM      1  O   UNL     1       2.799   8.539  17.601  0.00  0.00    +0.000 OA
ATOM      2  C   UNL     1       2.303   8.079  18.625  0.00  0.00    +0.000 C 
ATOM      3  N   UNL     1       2.425   6.740  19.008  0.00  0.00    +0.000 N 
ATOM      4  H   UNL     1       1.831   6.450  19.777  0.00  0.00    +0.000 HD
ENDROOT
BRANCH   3   5
ATOM      5  C   UNL     1       3.172   5.766  18.306  0.00  0.00    +0.000 A 
ATOM      6  C   UNL     1       2.581   4.637  17.727  0.00  0.00    +0.000 A 
ATOM      7  C   UNL     1       3.348   3.647  17.115  0.00  0.00    +0.000 A 
ATOM      8  C   UNL     1       4.729   3.780  17.064  0.00  0.00    +0.000 A 
ATOM      9  C   UNL     1       5.326   4.922  17.599  0.00  0.00    +0.000 A 
ATOM     10 BR   UNL     1       7.212   5.080  17.548  0.00  0.00    +0.000 Br
ATOM     11  C   UNL     1       4.558   5.927  18.199  0.00  0.00    +0.000 A 
ENDBRANCH   3   5
BRANCH   2  12
ATOM     12  C   UNL     1       1.502   8.896  19.528  0.00  0.00    +0.000 A 
ATOM     13  N   UNL     1       1.176   8.554  20.760  0.00  0.00    +0.000 NA
ATOM     14  C   UNL     1       0.497   9.610  21.341  0.00  0.00    +0.000 A 
ATOM     15 BR   UNL     1      -0.045   9.541  23.155  0.00  0.00    +0.000 Br
ATOM     16  C   UNL     1       0.269  10.707  20.539  0.00  0.00    +0.000 A 
ATOM     17  S   UNL     1       0.946  10.436  18.996  0.00  0.00    +0.000 S 
ENDBRANCH   2  12
TORSDOF 2
ENDMDL
MODEL 8
REMARK VINA RESULT:      -5.8      7.006      7.644
REMARK  Name = 
REMARK  2 active torsions:
REMARK  status: ('A' for Active; 'I' for Inactive)
REMARK    1  A    between atoms: C_2  and  C_11
REMARK    2  A    between atoms: N_3  and  C_4
REMARK                            x       y       z     vdW  Elec       q    Type
REMARK                         _______ _______ _______ _____ _____    ______ ____
ROOT
ATOM      1  O   UNL     1       7.535   9.745  17.447  0.00  0.00    +0.000 OA
ATOM      2  C   UNL     1       8.053   8.810  18.051  0.00  0.00    +0.000 C 
ATOM      3  N   UNL     1       9.035   8.975  19.033  0.00  0.00    +0.000 N 
ATOM      4  H   UNL     1       9.501   8.125  19.331  0.00  0.00    +0.000 HD
ENDROOT
BRANCH   3   5
ATOM      5  C   UNL     1       9.513  10.223  19.494  0.00  0.00    +0.000 A 
ATOM      6  C   UNL     1      10.527  10.930  18.837  0.00  0.00    +0.000 A 
ATOM      7  C   UNL     1      11.042  12.116  19.357  0.00  0.00    +0.000 A 
ATOM      8  C   UNL     1      10.535  12.623  20.547  0.00  0.00    +0.000 A 
ATOM      9  C   UNL     1       9.494  11.951  21.188  0.00  0.00    +0.000 A 
ATOM     10 BR   UNL     1       8.829  12.635  22.823  0.00  0.00    +0.000 Br
ATOM     11  C   UNL     1       8.962  10.767  20.660  0.00  0.00    +0.000 A 
ENDBRANCH   3   5
BRANCH   2  12
ATOM     12  C   UNL     1       7.708   7.423  17.767  0.00  0.00    +0.000 A 
ATOM     13  N   UNL     1       7.250   6.985  16.609  0.00  0.00    +0.000 NA
ATOM     14  C   UNL     1       7.125   5.610  16.680  0.00  0.00    +0.000 A 
ATOM     15 BR   UNL     1       6.595   4.599  15.169  0.00  0.00    +0.000 Br
ATOM     16  C   UNL     1       7.432   5.029  17.892  0.00  0.00    +0.000 A 
ATOM     17  S   UNL     1       7.923   6.236  18.994  0.00  0.00    +0.000 S 
ENDBRANCH   2  12
TORSDOF 2
ENDMDL
MODEL 9
REMARK VINA RESULT:      -5.7      4.677      7.206
REMARK  Name = 
REMARK  2 active torsions:
REMARK  status: ('A' for Active; 'I' for Inactive)
REMARK    1  A    between atoms: C_2  and  C_11
REMARK    2  A    between atoms: N_3  and  C_4
REMARK                            x       y       z     vdW  Elec       q    Type
REMARK                         _______ _______ _______ _____ _____    ______ ____
ROOT
ATOM      1  O   UNL     1       2.339   8.468  17.311  0.00  0.00    +0.000 OA
ATOM      2  C   UNL     1       2.126   8.171  18.483  0.00  0.00    +0.000 C 
ATOM      3  N   UNL     1       2.439   6.925  19.033  0.00  0.00    +0.000 N 
ATOM      4  H   UNL     1       2.060   6.748  19.958  0.00  0.00    +0.000 HD
ENDROOT
BRANCH   3   5
ATOM      5  C   UNL     1       3.084   5.876  18.339  0.00  0.00    +0.000 A 
ATOM      6  C   UNL     1       2.390   4.773  17.828  0.00  0.00    +0.000 A 
ATOM      7  C   UNL     1       3.058   3.710  17.223  0.00  0.00    +0.000 A 
ATOM      8  C   UNL     1       4.441   3.742  17.108  0.00  0.00    +0.000 A 
ATOM      9  C   UNL     1       5.140   4.856  17.574  0.00  0.00    +0.000 A 
ATOM     10 BR   UNL     1       7.028   4.877  17.438  0.00  0.00    +0.000 Br
ATOM     11  C   UNL     1       4.472   5.934  18.168  0.00  0.00    +0.000 A 
ENDBRANCH   3   5
BRANCH   2  12
ATOM     12  C   UNL     1       1.487   9.099  19.409  0.00  0.00    +0.000 A 
ATOM     13  N   UNL     1       1.137  10.336  19.109  0.00  0.00    +0.000 NA
ATOM     14  C   UNL     1       0.477  10.878  20.197  0.00  0.00    +0.000 A 
ATOM     15 BR   UNL     1      -0.278  12.613  20.114  0.00  0.00    +0.000 Br
ATOM     16  C   UNL     1       0.382  10.079  21.316  0.00  0.00    +0.000 A 
ATOM     17  S   UNL     1       1.122   8.572  21.006  0.00  0.00    +0.000 S 
ENDBRANCH   2  12
TORSDOF 2
ENDMDL
