MODEL 1
REMARK VINA RESULT:      -9.3      0.000      0.000
REMARK  Name = 
REMARK  5 active torsions:
REMARK  status: ('A' for Active; 'I' for Inactive)
REMARK    1  A    between atoms: C_1  and  N_2
REMARK    2  A    between atoms: C_8  and  C_9
REMARK    3  A    between atoms: C_12  and  C_13
REMARK    4  A    between atoms: N_15  and  C_16
REMARK    5  A    between atoms: C_26  and  C_27
REMARK                            x       y       z     vdW  Elec       q    Type
REMARK                         _______ _______ _______ _____ _____    ______ ____
ROOT
ATOM      1  C   UNL     1      -0.242  15.195  20.810  0.00  0.00    +0.000 C 
ATOM      2  N   UNL     1       1.016  15.404  20.115  0.00  0.00    +0.000 N 
ATOM      3  C   UNL     1       1.583  14.478  19.251  0.00  0.00    +0.000 A 
ATOM      4  N   UNL     1       0.867  13.355  18.892  0.00  0.00    +0.000 N 
ATOM      5  C   UNL     1      -0.416  13.391  18.176  0.00  0.00    +0.000 C 
ATOM      6  C   UNL     1      -1.283  12.214  18.666  0.00  0.00    +0.000 C 
ATOM      7  O   UNL     1      -0.609  10.951  18.536  0.00  0.00    +0.000 OA
ATOM      8  C   UNL     1       0.660  10.958  19.234  0.00  0.00    +0.000 C 
ATOM      9  C   UNL     1       1.565  12.076  18.668  0.00  0.00    +0.000 C 
ATOM     10  N   UNL     1       2.807  14.605  18.818  0.00  0.00    +0.000 NA
ATOM     11  C   UNL     1       3.560  15.679  19.224  0.00  0.00    +0.000 A 
ATOM     12  C   UNL     1       3.074  16.659  19.993  0.00  0.00    +0.000 A 
ATOM     13  C   UNL     1       1.710  16.533  20.504  0.00  0.00    +0.000 A 
ATOM     14  O   UNL     1       1.275  17.394  21.267  0.00  0.00    +0.000 OA
ENDROOT
BRANCH  11  15
ATOM     15  C   UNL     1       4.974  15.740  18.767  0.00  0.00    +0.000 A 
ATOM     16  C   UNL     1       5.523  14.674  18.041  0.00  0.00    +0.000 A 
ATOM     17  C   UNL     1       6.851  14.740  17.633  0.00  0.00    +0.000 A 
ATOM     18  N   UNL     1       7.667  15.783  17.893  0.00  0.00    +0.000 NA
ATOM     19  C   UNL     1       7.134  16.793  18.614  0.00  0.00    +0.000 A 
ATOM     20  C   UNL     1       5.825  16.810  19.069  0.00  0.00    +0.000 A 
ATOM     21  F   UNL     1       5.412  17.854  19.802  0.00  0.00    +0.000 F 
ENDBRANCH  11  15
BRANCH   8  22
ATOM     22  C   UNL     1       1.316   9.599  19.136  0.00  0.00    +0.000 A 
ATOM     23  C   UNL     1       2.030   9.221  17.989  0.00  0.00    +0.000 A 
ATOM     24  C   UNL     1       2.638   7.967  17.918  0.00  0.00    +0.000 A 
ATOM     25  C   UNL     1       2.548   7.069  18.986  0.00  0.00    +0.000 A 
ATOM     26  C   UNL     1       1.864   7.447  20.147  0.00  0.00    +0.000 A 
ATOM     27  C   UNL     1       1.251   8.705  20.221  0.00  0.00    +0.000 A 
BRANCH  25  28
ATOM     28  C   UNL     1       3.223   5.748  18.850  0.00  0.00    +0.000 C 
ATOM     29  O   UNL     1       2.790   4.770  19.452  0.00  0.00    +0.000 OA
ATOM     30  N   UNL     1       4.350   5.709  18.054  0.00  0.00    +0.000 N 
ATOM     31  H   UNL     1       4.780   6.588  17.803  0.00  0.00    +0.000 HD
BRANCH  30  32
ATOM     32  C   UNL     1       5.158   4.497  17.932  0.00  0.00    +0.000 C 
ATOM     33  C   UNL     1       4.873   3.784  16.605  0.00  0.00    +0.000 C 
ATOM     34  C   UNL     1       5.401   4.561  15.400  0.00  0.00    +0.000 C 
ATOM     35  C   UNL     1       6.887   4.877  15.543  0.00  0.00    +0.000 C 
ATOM     36  C   UNL     1       7.209   5.570  16.865  0.00  0.00    +0.000 C 
ATOM     37  C   UNL     1       6.656   4.803  18.067  0.00  0.00    +0.000 C 
ENDBRANCH  30  32
ENDBRANCH  25  28
ENDBRANCH   8  22
TORSDOF 4
ENDMDL
MODEL 2
REMARK VINA RESULT:      -9.2      0.882      1.070
REMARK  Name = 
REMARK  5 active torsions:
REMARK  status: ('A' for Active; 'I' for Inactive)
REMARK    1  A    between atoms: C_1  and  N_2
REMARK    2  A    between atoms: C_8  and  C_9
REMARK    3  A    between atoms: C_12  and  C_13
REMARK    4  A    between atoms: N_15  and  C_16
REMARK    5  A    between atoms: C_26  and  C_27
REMARK                            x       y       z     vdW  Elec       q    Type
REMARK                         _______ _______ _______ _____ _____    ______ ____
ROOT
ATOM      1  C   UNL     1      -0.423  14.984  21.071  0.00  0.00    +0.000 C 
ATOM      2  N   UNL     1       0.904  15.231  20.536  0.00  0.00    +0.000 N 
ATOM      3  C   UNL     1       1.558  14.367  19.668  0.00  0.00    +0.000 A 
ATOM      4  N   UNL     1       0.881  13.285  19.146  0.00  0.00    +0.000 N 
ATOM      5  C   UNL     1      -0.316  13.394  18.299  0.00  0.00    +0.000 C 
ATOM      6  C   UNL     1      -1.237  12.194  18.598  0.00  0.00    +0.000 C 
ATOM      7  O   UNL     1      -0.558  10.935  18.442  0.00  0.00    +0.000 OA
ATOM      8  C   UNL     1       0.626  10.871  19.273  0.00  0.00    +0.000 C 
ATOM      9  C   UNL     1       1.593  12.017  18.899  0.00  0.00    +0.000 C 
ATOM     10  N   UNL     1       2.823  14.511  19.383  0.00  0.00    +0.000 NA
ATOM     11  C   UNL     1       3.532  15.540  19.951  0.00  0.00    +0.000 A 
ATOM     12  C   UNL     1       2.969  16.463  20.738  0.00  0.00    +0.000 A 
ATOM     13  C   UNL     1       1.557  16.316  21.086  0.00  0.00    +0.000 A 
ATOM     14  O   UNL     1       1.045  17.121  21.862  0.00  0.00    +0.000 OA
ENDROOT
BRANCH  11  15
ATOM     15  C   UNL     1       4.988  15.617  19.658  0.00  0.00    +0.000 A 
ATOM     16  C   UNL     1       5.898  15.884  20.690  0.00  0.00    +0.000 A 
ATOM     17  C   UNL     1       7.255  15.966  20.397  0.00  0.00    +0.000 A 
ATOM     18  N   UNL     1       7.769  15.804  19.160  0.00  0.00    +0.000 NA
ATOM     19  C   UNL     1       6.880  15.570  18.170  0.00  0.00    +0.000 A 
ATOM     20  C   UNL     1       5.512  15.480  18.367  0.00  0.00    +0.000 A 
ATOM     21  F   UNL     1       4.720  15.275  17.303  0.00  0.00    +0.000 F 
ENDBRANCH  11  15
BRANCH   8  22
ATOM     22  C   UNL     1       1.282   9.516  19.140  0.00  0.00    +0.000 A 
ATOM     23  C   UNL     1       1.897   9.123  17.942  0.00  0.00    +0.000 A 
ATOM     24  C   UNL     1       2.507   7.873  17.838  0.00  0.00    +0.000 A 
ATOM     25  C   UNL     1       2.518   6.992  18.925  0.00  0.00    +0.000 A 
ATOM     26  C   UNL     1       1.934   7.385  20.135  0.00  0.00    +0.000 A 
ATOM     27  C   UNL     1       1.319   8.640  20.242  0.00  0.00    +0.000 A 
BRANCH  25  28
ATOM     28  C   UNL     1       3.190   5.674  18.752  0.00  0.00    +0.000 C 
ATOM     29  O   UNL     1       2.668   4.654  19.193  0.00  0.00    +0.000 OA
ATOM     30  N   UNL     1       4.413   5.682  18.112  0.00  0.00    +0.000 N 
ATOM     31  H   UNL     1       4.883   6.570  18.007  0.00  0.00    +0.000 HD
BRANCH  30  32
ATOM     32  C   UNL     1       5.215   4.468  17.981  0.00  0.00    +0.000 C 
ATOM     33  C   UNL     1       4.878   3.730  16.681  0.00  0.00    +0.000 C 
ATOM     34  C   UNL     1       5.357   4.483  15.441  0.00  0.00    +0.000 C 
ATOM     35  C   UNL     1       6.847   4.801  15.517  0.00  0.00    +0.000 C 
ATOM     36  C   UNL     1       7.222   5.519  16.812  0.00  0.00    +0.000 C 
ATOM     37  C   UNL     1       6.717   4.776  18.050  0.00  0.00    +0.000 C 
ENDBRANCH  30  32
ENDBRANCH  25  28
ENDBRANCH   8  22
TORSDOF 4
ENDMDL
MODEL 3
REMARK VINA RESULT:      -9.1      1.068      1.211
REMARK  Name = 
REMARK  5 active torsions:
REMARK  status: ('A' for Active; 'I' for Inactive)
REMARK    1  A    between atoms: C_1  and  N_2
REMARK    2  A    between atoms: C_8  and  C_9
REMARK    3  A    between atoms: C_12  and  C_13
REMARK    4  A    between atoms: N_15  and  C_16
REMARK    5  A    between atoms: C_26  and  C_27
REMARK                            x       y       z     vdW  Elec       q    Type
REMARK                         _______ _______ _______ _____ _____    ______ ____
ROOT
ATOM      1  C   UNL     1      -0.901  14.779  21.035  0.00  0.00    +0.000 C 
ATOM      2  N   UNL     1       0.442  15.105  20.592  0.00  0.00    +0.000 N 
ATOM      3  C   UNL     1       1.199  14.290  19.761  0.00  0.00    +0.000 A 
ATOM      4  N   UNL     1       0.619  13.180  19.184  0.00  0.00    +0.000 N 
ATOM      5  C   UNL     1      -0.524  13.234  18.262  0.00  0.00    +0.000 C 
ATOM      6  C   UNL     1      -1.395  11.981  18.487  0.00  0.00    +0.000 C 
ATOM      7  O   UNL     1      -0.638  10.764  18.364  0.00  0.00    +0.000 OA
ATOM      8  C   UNL     1       0.491  10.754  19.271  0.00  0.00    +0.000 C 
ATOM      9  C   UNL     1       1.415  11.957  18.973  0.00  0.00    +0.000 C 
ATOM     10  N   UNL     1       2.470  14.508  19.561  0.00  0.00    +0.000 NA
ATOM     11  C   UNL     1       3.081  15.567  20.185  0.00  0.00    +0.000 A 
ATOM     12  C   UNL     1       2.417  16.447  20.941  0.00  0.00    +0.000 A 
ATOM     13  C   UNL     1       0.996  16.218  21.194  0.00  0.00    +0.000 A 
ATOM     14  O   UNL     1       0.390  16.982  21.942  0.00  0.00    +0.000 OA
ENDROOT
BRANCH  11  15
ATOM     15  C   UNL     1       4.547  15.728  19.989  0.00  0.00    +0.000 A 
ATOM     16  C   UNL     1       5.031  16.572  18.980  0.00  0.00    +0.000 A 
ATOM     17  C   UNL     1       6.404  16.701  18.801  0.00  0.00    +0.000 A 
ATOM     18  N   UNL     1       7.324  16.057  19.548  0.00  0.00    +0.000 NA
ATOM     19  C   UNL     1       6.846  15.229  20.502  0.00  0.00    +0.000 A 
ATOM     20  C   UNL     1       5.496  15.031  20.747  0.00  0.00    +0.000 A 
ATOM     21  F   UNL     1       5.135  14.161  21.701  0.00  0.00    +0.000 F 
ENDBRANCH  11  15
BRANCH   8  22
ATOM     22  C   UNL     1       1.230   9.439  19.169  0.00  0.00    +0.000 A 
ATOM     23  C   UNL     1       1.911   9.080  17.996  0.00  0.00    +0.000 A 
ATOM     24  C   UNL     1       2.596   7.868  17.920  0.00  0.00    +0.000 A 
ATOM     25  C   UNL     1       2.616   6.991  19.011  0.00  0.00    +0.000 A 
ATOM     26  C   UNL     1       1.965   7.352  20.196  0.00  0.00    +0.000 A 
ATOM     27  C   UNL     1       1.276   8.569  20.274  0.00  0.00    +0.000 A 
BRANCH  25  28
ATOM     28  C   UNL     1       3.370   5.713  18.868  0.00  0.00    +0.000 C 
ATOM     29  O   UNL     1       3.049   4.732  19.532  0.00  0.00    +0.000 OA
ATOM     30  N   UNL     1       4.437   5.719  17.993  0.00  0.00    +0.000 N 
ATOM     31  H   UNL     1       4.787   6.615  17.683  0.00  0.00    +0.000 HD
BRANCH  30  32
ATOM     32  C   UNL     1       5.316   4.560  17.852  0.00  0.00    +0.000 C 
ATOM     33  C   UNL     1       5.005   3.796  16.560  0.00  0.00    +0.000 C 
ATOM     34  C   UNL     1       5.412   4.574  15.310  0.00  0.00    +0.000 C 
ATOM     35  C   UNL     1       6.879   4.990  15.359  0.00  0.00    +0.000 C 
ATOM     36  C   UNL     1       7.228   5.736  16.645  0.00  0.00    +0.000 C 
ATOM     37  C   UNL     1       6.795   4.966  17.894  0.00  0.00    +0.000 C 
ENDBRANCH  30  32
ENDBRANCH  25  28
ENDBRANCH   8  22
TORSDOF 4
ENDMDL
MODEL 4
REMARK VINA RESULT:      -9.0      1.083      1.547
REMARK  Name = 
REMARK  5 active torsions:
REMARK  status: ('A' for Active; 'I' for Inactive)
REMARK    1  A    between atoms: C_1  and  N_2
REMARK    2  A    between atoms: C_8  and  C_9
REMARK    3  A    between atoms: C_12  and  C_13
REMARK    4  A    between atoms: N_15  and  C_16
REMARK    5  A    between atoms: C_26  and  C_27
REMARK                            x       y       z     vdW  Elec       q    Type
REMARK                         _______ _______ _______ _____ _____    ______ ____
ROOT
ATOM      1  C   UNL     1      -1.415  14.524  21.015  0.00  0.00    +0.000 C 
ATOM      2  N   UNL     1      -0.092  14.958  20.603  0.00  0.00    +0.000 N 
ATOM      3  C   UNL     1       0.745  14.211  19.786  0.00  0.00    +0.000 A 
ATOM      4  N   UNL     1       0.269  13.061  19.193  0.00  0.00    +0.000 N 
ATOM      5  C   UNL     1      -0.854  13.029  18.245  0.00  0.00    +0.000 C 
ATOM      6  C   UNL     1      -1.627  11.710  18.445  0.00  0.00    +0.000 C 
ATOM      7  O   UNL     1      -0.773  10.558  18.335  0.00  0.00    +0.000 OA
ATOM      8  C   UNL     1       0.333  10.633  19.267  0.00  0.00    +0.000 C 
ATOM      9  C   UNL     1       1.165  11.907  18.994  0.00  0.00    +0.000 C 
ATOM     10  N   UNL     1       1.999  14.530  19.616  0.00  0.00    +0.000 NA
ATOM     11  C   UNL     1       2.510  15.631  20.258  0.00  0.00    +0.000 A 
ATOM     12  C   UNL     1       1.761  16.451  21.002  0.00  0.00    +0.000 A 
ATOM     13  C   UNL     1       0.358  16.108  21.222  0.00  0.00    +0.000 A 
ATOM     14  O   UNL     1      -0.324  16.817  21.959  0.00  0.00    +0.000 OA
ENDROOT
BRANCH  11  15
ATOM     15  C   UNL     1       3.962  15.910  20.095  0.00  0.00    +0.000 A 
ATOM     16  C   UNL     1       4.859  15.578  21.121  0.00  0.00    +0.000 A 
ATOM     17  C   UNL     1       6.211  15.858  20.959  0.00  0.00    +0.000 A 
ATOM     18  N   UNL     1       6.734  16.438  19.859  0.00  0.00    +0.000 NA
ATOM     19  C   UNL     1       5.857  16.774  18.888  0.00  0.00    +0.000 A 
ATOM     20  C   UNL     1       4.493  16.542  18.965  0.00  0.00    +0.000 A 
ATOM     21  F   UNL     1       3.713  16.945  17.951  0.00  0.00    +0.000 F 
ENDBRANCH  11  15
BRANCH   8  22
ATOM     22  C   UNL     1       1.176   9.381  19.176  0.00  0.00    +0.000 A 
ATOM     23  C   UNL     1       1.281   8.498  20.261  0.00  0.00    +0.000 A 
ATOM     24  C   UNL     1       2.054   7.342  20.159  0.00  0.00    +0.000 A 
ATOM     25  C   UNL     1       2.737   7.043  18.974  0.00  0.00    +0.000 A 
ATOM     26  C   UNL     1       2.616   7.901  17.876  0.00  0.00    +0.000 A 
ATOM     27  C   UNL     1       1.840   9.064  17.976  0.00  0.00    +0.000 A 
BRANCH  25  28
ATOM     28  C   UNL     1       3.543   5.791  18.927  0.00  0.00    +0.000 C 
ATOM     29  O   UNL     1       3.616   5.068  19.917  0.00  0.00    +0.000 OA
ATOM     30  N   UNL     1       4.205   5.525  17.745  0.00  0.00    +0.000 N 
ATOM     31  H   UNL     1       4.298   6.278  17.079  0.00  0.00    +0.000 HD
BRANCH  30  32
ATOM     32  C   UNL     1       5.111   4.386  17.617  0.00  0.00    +0.000 C 
ATOM     33  C   UNL     1       4.961   3.724  16.243  0.00  0.00    +0.000 C 
ATOM     34  C   UNL     1       5.496   4.600  15.111  0.00  0.00    +0.000 C 
ATOM     35  C   UNL     1       6.942   5.020  15.361  0.00  0.00    +0.000 C 
ATOM     36  C   UNL     1       7.130   5.665  16.732  0.00  0.00    +0.000 C 
ATOM     37  C   UNL     1       6.569   4.797  17.860  0.00  0.00    +0.000 C 
ENDBRANCH  30  32
ENDBRANCH  25  28
ENDBRANCH   8  22
TORSDOF 4
ENDMDL
MODEL 5
REMARK VINA RESULT:      -9.0      3.382      8.262
REMARK  Name = 
REMARK  5 active torsions:
REMARK  status: ('A' for Active; 'I' for Inactive)
REMARK    1  A    between atoms: C_1  and  N_2
REMARK    2  A    between atoms: C_8  and  C_9
REMARK    3  A    between atoms: C_12  and  C_13
REMARK    4  A    between atoms: N_15  and  C_16
REMARK    5  A    between atoms: C_26  and  C_27
REMARK                            x       y       z     vdW  Elec       q    Type
REMARK                         _______ _______ _______ _____ _____    ______ ____
ROOT
ATOM      1  C   UNL     1      -1.212  13.917  19.438  0.00  0.00    +0.000 C 
ATOM      2  N   UNL     1      -0.620  12.613  19.679  0.00  0.00    +0.000 N 
ATOM      3  C   UNL     1       0.694  12.426  20.083  0.00  0.00    +0.000 A 
ATOM      4  N   UNL     1       1.462  13.518  20.430  0.00  0.00    +0.000 N 
ATOM      5  C   UNL     1       1.143  14.429  21.539  0.00  0.00    +0.000 C 
ATOM      6  C   UNL     1       1.598  15.851  21.150  0.00  0.00    +0.000 C 
ATOM      7  O   UNL     1       2.986  15.894  20.776  0.00  0.00    +0.000 OA
ATOM      8  C   UNL     1       3.269  14.970  19.698  0.00  0.00    +0.000 C 
ATOM      9  C   UNL     1       2.906  13.531  20.130  0.00  0.00    +0.000 C 
ATOM     10  N   UNL     1       1.250  11.246  20.080  0.00  0.00    +0.000 NA
ATOM     11  C   UNL     1       0.523  10.157  19.667  0.00  0.00    +0.000 A 
ATOM     12  C   UNL     1      -0.769  10.230  19.333  0.00  0.00    +0.000 A 
ATOM     13  C   UNL     1      -1.412  11.542  19.313  0.00  0.00    +0.000 A 
ATOM     14  O   UNL     1      -2.581  11.631  18.943  0.00  0.00    +0.000 OA
ENDROOT
BRANCH  11  15
ATOM     15  C   UNL     1       1.222   8.845  19.606  0.00  0.00    +0.000 A 
ATOM     16  C   UNL     1       1.222   7.998  20.722  0.00  0.00    +0.000 A 
ATOM     17  C   UNL     1       1.892   6.781  20.653  0.00  0.00    +0.000 A 
ATOM     18  N   UNL     1       2.558   6.349  19.562  0.00  0.00    +0.000 NA
ATOM     19  C   UNL     1       2.570   7.185  18.500  0.00  0.00    +0.000 A 
ATOM     20  C   UNL     1       1.939   8.418  18.481  0.00  0.00    +0.000 A 
ATOM     21  F   UNL     1       2.043   9.178  17.381  0.00  0.00    +0.000 F 
ENDBRANCH  11  15
BRANCH   8  22
ATOM     22  C   UNL     1       4.718  15.083  19.281  0.00  0.00    +0.000 A 
ATOM     23  C   UNL     1       5.681  15.618  20.149  0.00  0.00    +0.000 A 
ATOM     24  C   UNL     1       7.016  15.707  19.754  0.00  0.00    +0.000 A 
ATOM     25  C   UNL     1       7.416  15.264  18.489  0.00  0.00    +0.000 A 
ATOM     26  C   UNL     1       6.469  14.701  17.626  0.00  0.00    +0.000 A 
ATOM     27  C   UNL     1       5.127  14.611  18.020  0.00  0.00    +0.000 A 
BRANCH  25  28
ATOM     28  C   UNL     1       8.857  15.382  18.129  0.00  0.00    +0.000 C 
ATOM     29  O   UNL     1       9.240  16.306  17.416  0.00  0.00    +0.000 OA
ATOM     30  N   UNL     1       9.697  14.397  18.608  0.00  0.00    +0.000 N 
ATOM     31  H   UNL     1       9.275  13.552  18.966  0.00  0.00    +0.000 HD
BRANCH  30  32
ATOM     32  C   UNL     1      11.108  14.347  18.231  0.00  0.00    +0.000 C 
ATOM     33  C   UNL     1      11.991  14.108  19.461  0.00  0.00    +0.000 C 
ATOM     34  C   UNL     1      11.832  12.699  20.029  0.00  0.00    +0.000 C 
ATOM     35  C   UNL     1      12.076  11.633  18.965  0.00  0.00    +0.000 C 
ATOM     36  C   UNL     1      11.226  11.854  17.716  0.00  0.00    +0.000 C 
ATOM     37  C   UNL     1      11.368  13.274  17.165  0.00  0.00    +0.000 C 
ENDBRANCH  30  32
ENDBRANCH  25  28
ENDBRANCH   8  22
TORSDOF 4
ENDMDL
MODEL 6
REMARK VINA RESULT:      -8.9      5.446      7.220
REMARK  Name = 
REMARK  5 active torsions:
REMARK  status: ('A' for Active; 'I' for Inactive)
REMARK    1  A    between atoms: C_1  and  N_2
REMARK    2  A    between atoms: C_8  and  C_9
REMARK    3  A    between atoms: C_12  and  C_13
REMARK    4  A    between atoms: N_15  and  C_16
REMARK    5  A    between atoms: C_26  and  C_27
REMARK                            x       y       z     vdW  Elec       q    Type
REMARK                         _______ _______ _______ _____ _____    ______ ____
ROOT
ATOM      1  C   UNL     1       9.047  14.924  19.190  0.00  0.00    +0.000 C 
ATOM      2  N   UNL     1       8.906  14.396  20.536  0.00  0.00    +0.000 N 
ATOM      3  C   UNL     1       9.049  13.053  20.855  0.00  0.00    +0.000 A 
ATOM      4  N   UNL     1       9.499  12.169  19.897  0.00  0.00    +0.000 N 
ATOM      5  C   UNL     1      10.814  12.260  19.246  0.00  0.00    +0.000 C 
ATOM      6  C   UNL     1      10.675  11.769  17.791  0.00  0.00    +0.000 C 
ATOM      7  O   UNL     1      10.107  10.449  17.715  0.00  0.00    +0.000 OA
ATOM      8  C   UNL     1       8.824  10.391  18.384  0.00  0.00    +0.000 C 
ATOM      9  C   UNL     1       8.988  10.786  19.870  0.00  0.00    +0.000 C 
ATOM     10  N   UNL     1       8.705  12.587  22.025  0.00  0.00    +0.000 NA
ATOM     11  C   UNL     1       8.186  13.440  22.967  0.00  0.00    +0.000 A 
ATOM     12  C   UNL     1       8.082  14.759  22.774  0.00  0.00    +0.000 A 
ATOM     13  C   UNL     1       8.446  15.305  21.468  0.00  0.00    +0.000 A 
ATOM     14  O   UNL     1       8.291  16.506  21.257  0.00  0.00    +0.000 OA
ENDROOT
BRANCH  11  15
ATOM     15  C   UNL     1       7.735  12.850  24.255  0.00  0.00    +0.000 A 
ATOM     16  C   UNL     1       8.391  13.185  25.448  0.00  0.00    +0.000 A 
ATOM     17  C   UNL     1       7.966  12.614  26.642  0.00  0.00    +0.000 A 
ATOM     18  N   UNL     1       6.942  11.740  26.737  0.00  0.00    +0.000 NA
ATOM     19  C   UNL     1       6.333  11.407  25.578  0.00  0.00    +0.000 A 
ATOM     20  C   UNL     1       6.693  11.918  24.342  0.00  0.00    +0.000 A 
ATOM     21  F   UNL     1       6.036  11.493  23.252  0.00  0.00    +0.000 F 
ENDBRANCH  11  15
BRANCH   8  22
ATOM     22  C   UNL     1       8.221   9.013  18.233  0.00  0.00    +0.000 A 
ATOM     23  C   UNL     1       7.185   8.772  17.317  0.00  0.00    +0.000 A 
ATOM     24  C   UNL     1       6.645   7.494  17.182  0.00  0.00    +0.000 A 
ATOM     25  C   UNL     1       7.127   6.431  17.954  0.00  0.00    +0.000 A 
ATOM     26  C   UNL     1       8.179   6.652  18.849  0.00  0.00    +0.000 A 
ATOM     27  C   UNL     1       8.723   7.936  18.988  0.00  0.00    +0.000 A 
BRANCH  25  28
ATOM     28  C   UNL     1       6.511   5.088  17.758  0.00  0.00    +0.000 C 
ATOM     29  O   UNL     1       7.102   4.228  17.111  0.00  0.00    +0.000 OA
ATOM     30  N   UNL     1       5.260   4.895  18.308  0.00  0.00    +0.000 N 
ATOM     31  H   UNL     1       4.743   5.712  18.601  0.00  0.00    +0.000 HD
BRANCH  30  32
ATOM     32  C   UNL     1       4.512   3.659  18.090  0.00  0.00    +0.000 C 
ATOM     33  C   UNL     1       4.069   3.047  19.424  0.00  0.00    +0.000 C 
ATOM     34  C   UNL     1       2.989   3.877  20.116  0.00  0.00    +0.000 C 
ATOM     35  C   UNL     1       1.792   4.116  19.201  0.00  0.00    +0.000 C 
ATOM     36  C   UNL     1       2.201   4.706  17.853  0.00  0.00    +0.000 C 
ATOM     37  C   UNL     1       3.301   3.888  17.175  0.00  0.00    +0.000 C 
ENDBRANCH  30  32
ENDBRANCH  25  28
ENDBRANCH   8  22
TORSDOF 4
ENDMDL
MODEL 7
REMARK VINA RESULT:      -8.8      1.395      1.675
REMARK  Name = 
REMARK  5 active torsions:
REMARK  status: ('A' for Active; 'I' for Inactive)
REMARK    1  A    between atoms: C_1  and  N_2
REMARK    2  A    between atoms: C_8  and  C_9
REMARK    3  A    between atoms: C_12  and  C_13
REMARK    4  A    between atoms: N_15  and  C_16
REMARK    5  A    between atoms: C_26  and  C_27
REMARK                            x       y       z     vdW  Elec       q    Type
REMARK                         _______ _______ _______ _____ _____    ______ ____
ROOT
ATOM      1  C   UNL     1      -0.298  14.473  22.353  0.00  0.00    +0.000 C 
ATOM      2  N   UNL     1       0.936  14.832  21.675  0.00  0.00    +0.000 N 
ATOM      3  C   UNL     1       1.478  14.104  20.626  0.00  0.00    +0.000 A 
ATOM      4  N   UNL     1       0.758  13.067  20.071  0.00  0.00    +0.000 N 
ATOM      5  C   UNL     1      -0.549  13.230  19.418  0.00  0.00    +0.000 C 
ATOM      6  C   UNL     1      -1.393  11.969  19.689  0.00  0.00    +0.000 C 
ATOM      7  O   UNL     1      -0.716  10.765  19.287  0.00  0.00    +0.000 OA
ATOM      8  C   UNL     1       0.574  10.648  19.932  0.00  0.00    +0.000 C 
ATOM      9  C   UNL     1       1.455  11.867  19.574  0.00  0.00    +0.000 C 
ATOM     10  N   UNL     1       2.687  14.330  20.189  0.00  0.00    +0.000 NA
ATOM     11  C   UNL     1       3.447  15.310  20.778  0.00  0.00    +0.000 A 
ATOM     12  C   UNL     1       2.981  16.110  21.742  0.00  0.00    +0.000 A 
ATOM     13  C   UNL     1       1.636  15.868  22.260  0.00  0.00    +0.000 A 
ATOM     14  O   UNL     1       1.221  16.554  23.193  0.00  0.00    +0.000 OA
ENDROOT
BRANCH  11  15
ATOM     15  C   UNL     1       4.845  15.478  20.299  0.00  0.00    +0.000 A 
ATOM     16  C   UNL     1       5.113  16.291  19.189  0.00  0.00    +0.000 A 
ATOM     17  C   UNL     1       6.424  16.427  18.746  0.00  0.00    +0.000 A 
ATOM     18  N   UNL     1       7.481  15.817  19.322  0.00  0.00    +0.000 NA
ATOM     19  C   UNL     1       7.207  15.017  20.375  0.00  0.00    +0.000 A 
ATOM     20  C   UNL     1       5.933  14.815  20.881  0.00  0.00    +0.000 A 
ATOM     21  F   UNL     1       5.775  13.975  21.914  0.00  0.00    +0.000 F 
ENDBRANCH  11  15
BRANCH   8  22
ATOM     22  C   UNL     1       1.234   9.344  19.544  0.00  0.00    +0.000 A 
ATOM     23  C   UNL     1       1.404   8.311  20.478  0.00  0.00    +0.000 A 
ATOM     24  C   UNL     1       2.006   7.111  20.102  0.00  0.00    +0.000 A 
ATOM     25  C   UNL     1       2.448   6.915  18.789  0.00  0.00    +0.000 A 
ATOM     26  C   UNL     1       2.258   7.927  17.841  0.00  0.00    +0.000 A 
ATOM     27  C   UNL     1       1.654   9.135  18.217  0.00  0.00    +0.000 A 
BRANCH  25  28
ATOM     28  C   UNL     1       3.079   5.609  18.449  0.00  0.00    +0.000 C 
ATOM     29  O   UNL     1       2.458   4.563  18.620  0.00  0.00    +0.000 OA
ATOM     30  N   UNL     1       4.375   5.651  17.976  0.00  0.00    +0.000 N 
ATOM     31  H   UNL     1       4.893   6.509  18.101  0.00  0.00    +0.000 HD
BRANCH  30  32
ATOM     32  C   UNL     1       5.132   4.430  17.713  0.00  0.00    +0.000 C 
ATOM     33  C   UNL     1       4.881   3.929  16.287  0.00  0.00    +0.000 C 
ATOM     34  C   UNL     1       5.501   4.843  15.230  0.00  0.00    +0.000 C 
ATOM     35  C   UNL     1       6.991   5.059  15.479  0.00  0.00    +0.000 C 
ATOM     36  C   UNL     1       7.278   5.538  16.900  0.00  0.00    +0.000 C 
ATOM     37  C   UNL     1       6.634   4.636  17.954  0.00  0.00    +0.000 C 
ENDBRANCH  30  32
ENDBRANCH  25  28
ENDBRANCH   8  22
TORSDOF 4
ENDMDL
MODEL 8
REMARK VINA RESULT:      -8.8      1.721      2.443
REMARK  Name = 
REMARK  5 active torsions:
REMARK  status: ('A' for Active; 'I' for Inactive)
REMARK    1  A    between atoms: C_1  and  N_2
REMARK    2  A    between atoms: C_8  and  C_9
REMARK    3  A    between atoms: C_12  and  C_13
REMARK    4  A    between atoms: N_15  and  C_16
REMARK    5  A    between atoms: C_26  and  C_27
REMARK                            x       y       z     vdW  Elec       q    Type
REMARK                         _______ _______ _______ _____ _____    ______ ____
ROOT
ATOM      1  C   UNL     1      -0.007  15.521  21.083  0.00  0.00    +0.000 C 
ATOM      2  N   UNL     1       1.235  15.709  20.355  0.00  0.00    +0.000 N 
ATOM      3  C   UNL     1       1.736  14.796  19.437  0.00  0.00    +0.000 A 
ATOM      4  N   UNL     1       0.965  13.717  19.059  0.00  0.00    +0.000 N 
ATOM      5  C   UNL     1      -0.338  13.831  18.389  0.00  0.00    +0.000 C 
ATOM      6  C   UNL     1      -1.236  12.670  18.862  0.00  0.00    +0.000 C 
ATOM      7  O   UNL     1      -0.616  11.388  18.660  0.00  0.00    +0.000 OA
ATOM      8  C   UNL     1       0.673  11.318  19.315  0.00  0.00    +0.000 C 
ATOM      9  C   UNL     1       1.604  12.422  18.762  0.00  0.00    +0.000 C 
ATOM     10  N   UNL     1       2.950  14.893  18.968  0.00  0.00    +0.000 NA
ATOM     11  C   UNL     1       3.758  15.921  19.389  0.00  0.00    +0.000 A 
ATOM     12  C   UNL     1       3.336  16.887  20.211  0.00  0.00    +0.000 A 
ATOM     13  C   UNL     1       1.986  16.794  20.763  0.00  0.00    +0.000 A 
ATOM     14  O   UNL     1       1.610  17.639  21.573  0.00  0.00    +0.000 OA
ENDROOT
BRANCH  11  15
ATOM     15  C   UNL     1       5.158  15.945  18.887  0.00  0.00    +0.000 A 
ATOM     16  C   UNL     1       5.672  14.843  18.190  0.00  0.00    +0.000 A 
ATOM     17  C   UNL     1       6.987  14.876  17.740  0.00  0.00    +0.000 A 
ATOM     18  N   UNL     1       7.823  15.918  17.931  0.00  0.00    +0.000 NA
ATOM     19  C   UNL     1       7.323  16.964  18.624  0.00  0.00    +0.000 A 
ATOM     20  C   UNL     1       6.029  17.016  19.118  0.00  0.00    +0.000 A 
ATOM     21  F   UNL     1       5.650  18.095  19.819  0.00  0.00    +0.000 F 
ENDBRANCH  11  15
BRANCH   8  22
ATOM     22  C   UNL     1       1.271   9.940  19.142  0.00  0.00    +0.000 A 
ATOM     23  C   UNL     1       1.883   9.562  17.938  0.00  0.00    +0.000 A 
ATOM     24  C   UNL     1       2.439   8.290  17.798  0.00  0.00    +0.000 A 
ATOM     25  C   UNL     1       2.397   7.373  18.853  0.00  0.00    +0.000 A 
ATOM     26  C   UNL     1       1.815   7.749  20.069  0.00  0.00    +0.000 A 
ATOM     27  C   UNL     1       1.255   9.026  20.213  0.00  0.00    +0.000 A 
BRANCH  25  28
ATOM     28  C   UNL     1       3.013   6.033  18.641  0.00  0.00    +0.000 C 
ATOM     29  O   UNL     1       3.562   5.769  17.575  0.00  0.00    +0.000 OA
ATOM     30  N   UNL     1       2.898   5.128  19.678  0.00  0.00    +0.000 N 
ATOM     31  H   UNL     1       2.227   5.329  20.406  0.00  0.00    +0.000 HD
BRANCH  30  32
ATOM     32  C   UNL     1       3.366   3.751  19.545  0.00  0.00    +0.000 C 
ATOM     33  C   UNL     1       3.017   2.934  20.794  0.00  0.00    +0.000 C 
ATOM     34  C   UNL     1       1.517   2.679  20.924  0.00  0.00    +0.000 C 
ATOM     35  C   UNL     1       0.947   2.027  19.668  0.00  0.00    +0.000 C 
ATOM     36  C   UNL     1       1.295   2.805  18.401  0.00  0.00    +0.000 C 
ATOM     37  C   UNL     1       2.795   3.081  18.288  0.00  0.00    +0.000 C 
ENDBRANCH  30  32
ENDBRANCH  25  28
ENDBRANCH   8  22
TORSDOF 4
ENDMDL
MODEL 9
REMARK VINA RESULT:      -8.7      4.554      7.544
REMARK  Name = 
REMARK  5 active torsions:
REMARK  status: ('A' for Active; 'I' for Inactive)
REMARK    1  A    between atoms: C_1  and  N_2
REMARK    2  A    between atoms: C_8  and  C_9
REMARK    3  A    between atoms: C_12  and  C_13
REMARK    4  A    between atoms: N_15  and  C_16
REMARK    5  A    between atoms: C_26  and  C_27
REMARK                            x       y       z     vdW  Elec       q    Type
REMARK                         _______ _______ _______ _____ _____    ______ ____
ROOT
ATOM      1  C   UNL     1      -1.795  16.329  20.349  0.00  0.00    +0.000 C 
ATOM      2  N   UNL     1      -2.836  15.394  20.739  0.00  0.00    +0.000 N 
ATOM      3  C   UNL     1      -2.589  14.086  21.133  0.00  0.00    +0.000 A 
ATOM      4  N   UNL     1      -1.290  13.666  21.323  0.00  0.00    +0.000 N 
ATOM      5  C   UNL     1      -0.374  14.247  22.315  0.00  0.00    +0.000 C 
ATOM      6  C   UNL     1       1.057  14.209  21.742  0.00  0.00    +0.000 C 
ATOM      7  O   UNL     1       1.445  12.886  21.334  0.00  0.00    +0.000 OA
ATOM      8  C   UNL     1       0.511  12.337  20.374  0.00  0.00    +0.000 C 
ATOM      9  C   UNL     1      -0.906  12.281  20.991  0.00  0.00    +0.000 C 
ATOM     10  N   UNL     1      -3.554  13.217  21.265  0.00  0.00    +0.000 NA
ATOM     11  C   UNL     1      -4.847  13.599  21.009  0.00  0.00    +0.000 A 
ATOM     12  C   UNL     1      -5.187  14.854  20.698  0.00  0.00    +0.000 A 
ATOM     13  C   UNL     1      -4.125  15.843  20.528  0.00  0.00    +0.000 A 
ATOM     14  O   UNL     1      -4.419  16.984  20.177  0.00  0.00    +0.000 OA
ENDROOT
BRANCH  11  15
ATOM     15  C   UNL     1      -5.903  12.554  21.096  0.00  0.00    +0.000 A 
ATOM     16  C   UNL     1      -6.044  11.612  20.068  0.00  0.00    +0.000 A 
ATOM     17  C   UNL     1      -7.044  10.650  20.159  0.00  0.00    +0.000 A 
ATOM     18  N   UNL     1      -7.909  10.558  21.190  0.00  0.00    +0.000 NA
ATOM     19  C   UNL     1      -7.778  11.486  22.163  0.00  0.00    +0.000 A 
ATOM     20  C   UNL     1      -6.818  12.485  22.154  0.00  0.00    +0.000 A 
ATOM     21  F   UNL     1      -6.801  13.372  23.160  0.00  0.00    +0.000 F 
ENDBRANCH  11  15
BRANCH   8  22
ATOM     22  C   UNL     1       0.977  10.975  19.913  0.00  0.00    +0.000 A 
ATOM     23  C   UNL     1       1.503  10.786  18.627  0.00  0.00    +0.000 A 
ATOM     24  C   UNL     1       1.938   9.525  18.220  0.00  0.00    +0.000 A 
ATOM     25  C   UNL     1       1.859   8.429  19.086  0.00  0.00    +0.000 A 
ATOM     26  C   UNL     1       1.365   8.612  20.382  0.00  0.00    +0.000 A 
ATOM     27  C   UNL     1       0.926   9.878  20.793  0.00  0.00    +0.000 A 
BRANCH  25  28
ATOM     28  C   UNL     1       2.346   7.110  18.593  0.00  0.00    +0.000 C 
ATOM     29  O   UNL     1       2.751   6.995  17.440  0.00  0.00    +0.000 OA
ATOM     30  N   UNL     1       2.280   6.055  19.481  0.00  0.00    +0.000 N 
ATOM     31  H   UNL     1       1.710   6.171  20.308  0.00  0.00    +0.000 HD
BRANCH  30  32
ATOM     32  C   UNL     1       2.625   4.694  19.077  0.00  0.00    +0.000 C 
ATOM     33  C   UNL     1       3.360   3.961  20.205  0.00  0.00    +0.000 C 
ATOM     34  C   UNL     1       2.448   3.649  21.390  0.00  0.00    +0.000 C 
ATOM     35  C   UNL     1       1.207   2.876  20.955  0.00  0.00    +0.000 C 
ATOM     36  C   UNL     1       0.461   3.568  19.816  0.00  0.00    +0.000 C 
ATOM     37  C   UNL     1       1.383   3.904  18.643  0.00  0.00    +0.000 C 
ENDBRANCH  30  32
ENDBRANCH  25  28
ENDBRANCH   8  22
TORSDOF 4
ENDMDL
