MODEL 1
REMARK VINA RESULT:      -8.0      0.000      0.000
REMARK  Name = 
REMARK  7 active torsions:
REMARK  status: ('A' for Active; 'I' for Inactive)
REMARK    1  A    between atoms: C_1  and  S_2
REMARK    2  A    between atoms: S_2  and  C_3
REMARK    3  A    between atoms: C_6  and  C_7
REMARK    4  A    between atoms: N_9  and  C_10
REMARK    5  A    between atoms: C_13  and  C_14
REMARK    6  A    between atoms: C_14  and  C_15
REMARK    7  A    between atoms: C_19  and  C_20
REMARK                            x       y       z     vdW  Elec       q    Type
REMARK                         _______ _______ _______ _____ _____    ______ ____
ROOT
ATOM      1  C   UNL     1       5.548   5.432  16.783  0.00  0.00    +0.000 A 
ATOM      2  N   UNL     1       5.429   6.712  16.401  0.00  0.00    +0.000 NA
ATOM      3  C   UNL     1       4.384   7.392  16.913  0.00  0.00    +0.000 A 
ATOM      4  C   UNL     1       3.446   6.841  17.759  0.00  0.00    +0.000 A 
ATOM      5  C   UNL     1       3.621   5.497  18.075  0.00  0.00    +0.000 A 
ATOM      6  N   UNL     1       4.677   4.797  17.579  0.00  0.00    +0.000 NA
ENDROOT
BRANCH   5   7
ATOM      7  C   UNL     1       2.736   4.677  18.944  0.00  0.00    +0.000 A 
ATOM      8  C   UNL     1       1.564   4.057  18.471  0.00  0.00    +0.000 A 
ATOM      9  C   UNL     1       0.739   3.308  19.319  0.00  0.00    +0.000 A 
ATOM     10  C   UNL     1       1.083   3.132  20.654  0.00  0.00    +0.000 A 
ATOM     11  C   UNL     1       2.251   3.703  21.145  0.00  0.00    +0.000 A 
ATOM     12  C   UNL     1       3.064   4.466  20.300  0.00  0.00    +0.000 A 
ENDBRANCH   5   7
BRANCH   4  13
ATOM     13  C   UNL     1       2.481   7.715  18.446  0.00  0.00    +0.000 C 
ATOM     14  O   UNL     1       2.319   7.507  19.642  0.00  0.00    +0.000 OA
ATOM     15  N   UNL     1       1.854   8.699  17.689  0.00  0.00    +0.000 N 
ATOM     16  H   UNL     1       2.041   8.750  16.695  0.00  0.00    +0.000 HD
BRANCH  15  17
ATOM     17  C   UNL     1       0.876   9.605  18.182  0.00  0.00    +0.000 A 
ATOM     18  C   UNL     1       1.171  10.610  19.102  0.00  0.00    +0.000 A 
ATOM     19  C   UNL     1       0.179  11.463  19.607  0.00  0.00    +0.000 A 
ATOM     20  C   UNL     1      -1.144  11.330  19.185  0.00  0.00    +0.000 A 
ATOM     21  C   UNL     1      -1.443  10.339  18.237  0.00  0.00    +0.000 A 
ATOM     22  C   UNL     1      -0.443   9.487  17.735  0.00  0.00    +0.000 A 
BRANCH  20  23
ATOM     23  C   UNL     1      -2.247  12.200  19.700  0.00  0.00    +0.000 C 
ATOM     24  C   UNL     1      -2.042  13.103  20.893  0.00  0.00    +0.000 C 
ATOM     25  O   UNL     1      -3.337  12.178  19.125  0.00  0.00    +0.000 OA
ENDBRANCH  20  23
ENDBRANCH  15  17
ENDBRANCH   4  13
BRANCH   1  27
ATOM     26  C   UNL     1       6.653   4.431  14.484  0.00  0.00    +0.000 C 
ATOM     27  S   UNL     1       7.004   4.567  16.254  0.00  0.00    +0.000 S 
ENDBRANCH   1  27
TORSDOF 5
ENDMDL
MODEL 2
REMARK VINA RESULT:      -8.0      2.127      2.504
REMARK  Name = 
REMARK  7 active torsions:
REMARK  status: ('A' for Active; 'I' for Inactive)
REMARK    1  A    between atoms: C_1  and  S_2
REMARK    2  A    between atoms: S_2  and  C_3
REMARK    3  A    between atoms: C_6  and  C_7
REMARK    4  A    between atoms: N_9  and  C_10
REMARK    5  A    between atoms: C_13  and  C_14
REMARK    6  A    between atoms: C_14  and  C_15
REMARK    7  A    between atoms: C_19  and  C_20
REMARK                            x       y       z     vdW  Elec       q    Type
REMARK                         _______ _______ _______ _____ _____    ______ ____
ROOT
ATOM      1  C   UNL     1       5.575   4.850  15.161  0.00  0.00    +0.000 A 
ATOM      2  N   UNL     1       5.684   6.181  15.285  0.00  0.00    +0.000 NA
ATOM      3  C   UNL     1       4.960   6.750  16.269  0.00  0.00    +0.000 A 
ATOM      4  C   UNL     1       4.117   6.052  17.107  0.00  0.00    +0.000 A 
ATOM      5  C   UNL     1       4.032   4.681  16.887  0.00  0.00    +0.000 A 
ATOM      6  N   UNL     1       4.765   4.086  15.907  0.00  0.00    +0.000 NA
ENDROOT
BRANCH   5   7
ATOM      7  C   UNL     1       3.180   3.722  17.640  0.00  0.00    +0.000 A 
ATOM      8  C   UNL     1       1.792   3.894  17.795  0.00  0.00    +0.000 A 
ATOM      9  C   UNL     1       1.019   2.985  18.528  0.00  0.00    +0.000 A 
ATOM     10  C   UNL     1       1.610   1.862  19.096  0.00  0.00    +0.000 A 
ATOM     11  C   UNL     1       2.973   1.645  18.932  0.00  0.00    +0.000 A 
ATOM     12  C   UNL     1       3.746   2.565  18.215  0.00  0.00    +0.000 A 
ENDBRANCH   5   7
BRANCH   4  13
ATOM     13  C   UNL     1       3.551   6.719  18.292  0.00  0.00    +0.000 C 
ATOM     14  O   UNL     1       4.039   6.407  19.371  0.00  0.00    +0.000 OA
ATOM     15  N   UNL     1       2.533   7.644  18.083  0.00  0.00    +0.000 N 
ATOM     16  H   UNL     1       2.186   7.791  17.144  0.00  0.00    +0.000 HD
BRANCH  15  17
ATOM     17  C   UNL     1       1.856   8.353  19.112  0.00  0.00    +0.000 A 
ATOM     18  C   UNL     1       1.234   9.583  18.902  0.00  0.00    +0.000 A 
ATOM     19  C   UNL     1       0.611  10.283  19.945  0.00  0.00    +0.000 A 
ATOM     20  C   UNL     1       0.590   9.751  21.234  0.00  0.00    +0.000 A 
ATOM     21  C   UNL     1       1.188   8.499  21.448  0.00  0.00    +0.000 A 
ATOM     22  C   UNL     1       1.811   7.803  20.396  0.00  0.00    +0.000 A 
BRANCH  20  23
ATOM     23  C   UNL     1      -0.047  10.459  22.388  0.00  0.00    +0.000 C 
ATOM     24  C   UNL     1      -0.712  11.804  22.214  0.00  0.00    +0.000 C 
ATOM     25  O   UNL     1      -0.029   9.921  23.497  0.00  0.00    +0.000 OA
ENDBRANCH  20  23
ENDBRANCH  15  17
ENDBRANCH   4  13
BRANCH   1  27
ATOM     26  C   UNL     1       7.694   5.464  13.538  0.00  0.00    +0.000 C 
ATOM     27  S   UNL     1       6.642   4.061  13.984  0.00  0.00    +0.000 S 
ENDBRANCH   1  27
TORSDOF 5
ENDMDL
MODEL 3
REMARK VINA RESULT:      -7.9      2.096      2.549
REMARK  Name = 
REMARK  7 active torsions:
REMARK  status: ('A' for Active; 'I' for Inactive)
REMARK    1  A    between atoms: C_1  and  S_2
REMARK    2  A    between atoms: S_2  and  C_3
REMARK    3  A    between atoms: C_6  and  C_7
REMARK    4  A    between atoms: N_9  and  C_10
REMARK    5  A    between atoms: C_13  and  C_14
REMARK    6  A    between atoms: C_14  and  C_15
REMARK    7  A    between atoms: C_19  and  C_20
REMARK                            x       y       z     vdW  Elec       q    Type
REMARK                         _______ _______ _______ _____ _____    ______ ____
ROOT
ATOM      1  C   UNL     1       5.463   4.797  15.172  0.00  0.00    +0.000 A 
ATOM      2  N   UNL     1       5.589   6.127  15.291  0.00  0.00    +0.000 NA
ATOM      3  C   UNL     1       4.907   6.702  16.301  0.00  0.00    +0.000 A 
ATOM      4  C   UNL     1       4.089   6.012  17.171  0.00  0.00    +0.000 A 
ATOM      5  C   UNL     1       3.984   4.641  16.954  0.00  0.00    +0.000 A 
ATOM      6  N   UNL     1       4.675   4.040  15.948  0.00  0.00    +0.000 NA
ENDROOT
BRANCH   5   7
ATOM      7  C   UNL     1       3.152   3.690  17.738  0.00  0.00    +0.000 A 
ATOM      8  C   UNL     1       3.698   2.604  18.447  0.00  0.00    +0.000 A 
ATOM      9  C   UNL     1       2.887   1.712  19.160  0.00  0.00    +0.000 A 
ATOM     10  C   UNL     1       1.511   1.905  19.209  0.00  0.00    +0.000 A 
ATOM     11  C   UNL     1       0.943   2.988  18.548  0.00  0.00    +0.000 A 
ATOM     12  C   UNL     1       1.754   3.866  17.822  0.00  0.00    +0.000 A 
ENDBRANCH   5   7
BRANCH   4  13
ATOM     13  C   UNL     1       3.574   6.684  18.375  0.00  0.00    +0.000 C 
ATOM     14  O   UNL     1       4.149   6.425  19.425  0.00  0.00    +0.000 OA
ATOM     15  N   UNL     1       2.501   7.554  18.216  0.00  0.00    +0.000 N 
ATOM     16  H   UNL     1       2.083   7.659  17.299  0.00  0.00    +0.000 HD
BRANCH  15  17
ATOM     17  C   UNL     1       1.862   8.259  19.272  0.00  0.00    +0.000 A 
ATOM     18  C   UNL     1       1.728   7.738  20.558  0.00  0.00    +0.000 A 
ATOM     19  C   UNL     1       1.054   8.437  21.570  0.00  0.00    +0.000 A 
ATOM     20  C   UNL     1       0.504   9.691  21.312  0.00  0.00    +0.000 A 
ATOM     21  C   UNL     1       0.659  10.235  20.027  0.00  0.00    +0.000 A 
ATOM     22  C   UNL     1       1.337   9.529  19.017  0.00  0.00    +0.000 A 
BRANCH  20  23
ATOM     23  C   UNL     1      -0.239  10.475  22.348  0.00  0.00    +0.000 C 
ATOM     24  C   UNL     1      -0.849  11.819  22.027  0.00  0.00    +0.000 C 
ATOM     25  O   UNL     1      -0.356  10.002  23.479  0.00  0.00    +0.000 OA
ENDBRANCH  20  23
ENDBRANCH  15  17
ENDBRANCH   4  13
BRANCH   1  27
ATOM     26  C   UNL     1       7.662   5.327  13.627  0.00  0.00    +0.000 C 
ATOM     27  S   UNL     1       6.479   3.998  13.956  0.00  0.00    +0.000 S 
ENDBRANCH   1  27
TORSDOF 5
ENDMDL
MODEL 4
REMARK VINA RESULT:      -7.9      1.807      2.019
REMARK  Name = 
REMARK  7 active torsions:
REMARK  status: ('A' for Active; 'I' for Inactive)
REMARK    1  A    between atoms: C_1  and  S_2
REMARK    2  A    between atoms: S_2  and  C_3
REMARK    3  A    between atoms: C_6  and  C_7
REMARK    4  A    between atoms: N_9  and  C_10
REMARK    5  A    between atoms: C_13  and  C_14
REMARK    6  A    between atoms: C_14  and  C_15
REMARK    7  A    between atoms: C_19  and  C_20
REMARK                            x       y       z     vdW  Elec       q    Type
REMARK                         _______ _______ _______ _____ _____    ______ ____
ROOT
ATOM      1  C   UNL     1       5.504   5.450  17.020  0.00  0.00    +0.000 A 
ATOM      2  N   UNL     1       5.381   6.712  16.584  0.00  0.00    +0.000 NA
ATOM      3  C   UNL     1       4.281   7.378  16.988  0.00  0.00    +0.000 A 
ATOM      4  C   UNL     1       3.294   6.829  17.778  0.00  0.00    +0.000 A 
ATOM      5  C   UNL     1       3.480   5.502  18.155  0.00  0.00    +0.000 A 
ATOM      6  N   UNL     1       4.590   4.817  17.769  0.00  0.00    +0.000 NA
ENDROOT
BRANCH   5   7
ATOM      7  C   UNL     1       2.551   4.686  18.982  0.00  0.00    +0.000 A 
ATOM      8  C   UNL     1       1.519   3.907  18.427  0.00  0.00    +0.000 A 
ATOM      9  C   UNL     1       0.646   3.166  19.232  0.00  0.00    +0.000 A 
ATOM     10  C   UNL     1       0.804   3.159  20.613  0.00  0.00    +0.000 A 
ATOM     11  C   UNL     1       1.835   3.891  21.191  0.00  0.00    +0.000 A 
ATOM     12  C   UNL     1       2.694   4.645  20.385  0.00  0.00    +0.000 A 
ENDBRANCH   5   7
BRANCH   4  13
ATOM     13  C   UNL     1       2.255   7.697  18.355  0.00  0.00    +0.000 C 
ATOM     14  O   UNL     1       1.391   8.094  17.582  0.00  0.00    +0.000 OA
ATOM     15  N   UNL     1       2.337   7.980  19.715  0.00  0.00    +0.000 N 
ATOM     16  H   UNL     1       3.122   7.624  20.246  0.00  0.00    +0.000 HD
BRANCH  15  17
ATOM     17  C   UNL     1       1.439   8.822  20.425  0.00  0.00    +0.000 A 
ATOM     18  C   UNL     1       1.127  10.117  20.012  0.00  0.00    +0.000 A 
ATOM     19  C   UNL     1       0.272  10.943  20.756  0.00  0.00    +0.000 A 
ATOM     20  C   UNL     1      -0.302  10.478  21.938  0.00  0.00    +0.000 A 
ATOM     21  C   UNL     1      -0.015   9.165  22.346  0.00  0.00    +0.000 A 
ATOM     22  C   UNL     1       0.843   8.342  21.595  0.00  0.00    +0.000 A 
BRANCH  20  23
ATOM     23  C   UNL     1      -1.208  11.319  22.780  0.00  0.00    +0.000 C 
ATOM     24  C   UNL     1      -1.159  12.827  22.721  0.00  0.00    +0.000 C 
ATOM     25  O   UNL     1      -2.012  10.759  23.528  0.00  0.00    +0.000 OA
ENDBRANCH  20  23
ENDBRANCH  15  17
ENDBRANCH   4  13
BRANCH   1  27
ATOM     26  C   UNL     1       6.769   4.316  14.871  0.00  0.00    +0.000 C 
ATOM     27  S   UNL     1       7.019   4.610  16.639  0.00  0.00    +0.000 S 
ENDBRANCH   1  27
TORSDOF 5
ENDMDL
MODEL 5
REMARK VINA RESULT:      -7.9      0.548      1.157
REMARK  Name = 
REMARK  7 active torsions:
REMARK  status: ('A' for Active; 'I' for Inactive)
REMARK    1  A    between atoms: C_1  and  S_2
REMARK    2  A    between atoms: S_2  and  C_3
REMARK    3  A    between atoms: C_6  and  C_7
REMARK    4  A    between atoms: N_9  and  C_10
REMARK    5  A    between atoms: C_13  and  C_14
REMARK    6  A    between atoms: C_14  and  C_15
REMARK    7  A    between atoms: C_19  and  C_20
REMARK                            x       y       z     vdW  Elec       q    Type
REMARK                         _______ _______ _______ _____ _____    ______ ____
ROOT
ATOM      1  C   UNL     1       5.413   5.372  16.800  0.00  0.00    +0.000 A 
ATOM      2  N   UNL     1       5.279   6.639  16.380  0.00  0.00    +0.000 NA
ATOM      3  C   UNL     1       4.251   7.335  16.905  0.00  0.00    +0.000 A 
ATOM      4  C   UNL     1       3.343   6.811  17.800  0.00  0.00    +0.000 A 
ATOM      5  C   UNL     1       3.531   5.478  18.154  0.00  0.00    +0.000 A 
ATOM      6  N   UNL     1       4.571   4.763  17.646  0.00  0.00    +0.000 NA
ENDROOT
BRANCH   5   7
ATOM      7  C   UNL     1       2.677   4.687  19.080  0.00  0.00    +0.000 A 
ATOM      8  C   UNL     1       2.955   4.560  20.453  0.00  0.00    +0.000 A 
ATOM      9  C   UNL     1       2.144   3.791  21.297  0.00  0.00    +0.000 A 
ATOM     10  C   UNL     1       1.015   3.155  20.793  0.00  0.00    +0.000 A 
ATOM     11  C   UNL     1       0.693   3.288  19.447  0.00  0.00    +0.000 A 
ATOM     12  C   UNL     1       1.516   4.043  18.603  0.00  0.00    +0.000 A 
ENDBRANCH   5   7
BRANCH   4  13
ATOM     13  C   UNL     1       2.401   7.707  18.490  0.00  0.00    +0.000 C 
ATOM     14  O   UNL     1       2.246   7.509  19.689  0.00  0.00    +0.000 OA
ATOM     15  N   UNL     1       1.785   8.698  17.733  0.00  0.00    +0.000 N 
ATOM     16  H   UNL     1       1.964   8.740  16.737  0.00  0.00    +0.000 HD
BRANCH  15  17
ATOM     17  C   UNL     1       0.829   9.625  18.230  0.00  0.00    +0.000 A 
ATOM     18  C   UNL     1       1.137  10.593  19.184  0.00  0.00    +0.000 A 
ATOM     19  C   UNL     1       0.165  11.467  19.690  0.00  0.00    +0.000 A 
ATOM     20  C   UNL     1      -1.151  11.394  19.235  0.00  0.00    +0.000 A 
ATOM     21  C   UNL     1      -1.464  10.440  18.253  0.00  0.00    +0.000 A 
ATOM     22  C   UNL     1      -0.482   9.567  17.749  0.00  0.00    +0.000 A 
BRANCH  20  23
ATOM     23  C   UNL     1      -2.234  12.289  19.749  0.00  0.00    +0.000 C 
ATOM     24  C   UNL     1      -3.664  12.138  19.285  0.00  0.00    +0.000 C 
ATOM     25  O   UNL     1      -1.944  13.158  20.573  0.00  0.00    +0.000 OA
ENDBRANCH  20  23
ENDBRANCH  15  17
ENDBRANCH   4  13
BRANCH   1  27
ATOM     26  C   UNL     1       6.336   4.084  14.564  0.00  0.00    +0.000 C 
ATOM     27  S   UNL     1       6.852   4.490  16.251  0.00  0.00    +0.000 S 
ENDBRANCH   1  27
TORSDOF 5
ENDMDL
MODEL 6
REMARK VINA RESULT:      -7.8      1.663      1.892
REMARK  Name = 
REMARK  7 active torsions:
REMARK  status: ('A' for Active; 'I' for Inactive)
REMARK    1  A    between atoms: C_1  and  S_2
REMARK    2  A    between atoms: S_2  and  C_3
REMARK    3  A    between atoms: C_6  and  C_7
REMARK    4  A    between atoms: N_9  and  C_10
REMARK    5  A    between atoms: C_13  and  C_14
REMARK    6  A    between atoms: C_14  and  C_15
REMARK    7  A    between atoms: C_19  and  C_20
REMARK                            x       y       z     vdW  Elec       q    Type
REMARK                         _______ _______ _______ _____ _____    ______ ____
ROOT
ATOM      1  C   UNL     1       5.524   5.394  16.054  0.00  0.00    +0.000 A 
ATOM      2  N   UNL     1       5.429   6.731  16.108  0.00  0.00    +0.000 NA
ATOM      3  C   UNL     1       4.500   7.230  16.947  0.00  0.00    +0.000 A 
ATOM      4  C   UNL     1       3.651   6.454  17.706  0.00  0.00    +0.000 A 
ATOM      5  C   UNL     1       3.789   5.076  17.563  0.00  0.00    +0.000 A 
ATOM      6  N   UNL     1       4.730   4.553  16.731  0.00  0.00    +0.000 NA
ENDROOT
BRANCH   5   7
ATOM      7  C   UNL     1       2.979   4.037  18.253  0.00  0.00    +0.000 A 
ATOM      8  C   UNL     1       1.648   3.747  17.900  0.00  0.00    +0.000 A 
ATOM      9  C   UNL     1       0.904   2.777  18.582  0.00  0.00    +0.000 A 
ATOM     10  C   UNL     1       1.484   2.048  19.614  0.00  0.00    +0.000 A 
ATOM     11  C   UNL     1       2.808   2.285  19.965  0.00  0.00    +0.000 A 
ATOM     12  C   UNL     1       3.543   3.268  19.293  0.00  0.00    +0.000 A 
ENDBRANCH   5   7
BRANCH   4  13
ATOM     13  C   UNL     1       2.836   7.081  18.759  0.00  0.00    +0.000 C 
ATOM     14  O   UNL     1       2.785   6.487  19.829  0.00  0.00    +0.000 OA
ATOM     15  N   UNL     1       2.210   8.286  18.455  0.00  0.00    +0.000 N 
ATOM     16  H   UNL     1       2.295   8.662  17.519  0.00  0.00    +0.000 HD
BRANCH  15  17
ATOM     17  C   UNL     1       1.365   9.009  19.339  0.00  0.00    +0.000 A 
ATOM     18  C   UNL     1       0.391   9.902  18.895  0.00  0.00    +0.000 A 
ATOM     19  C   UNL     1      -0.401  10.636  19.790  0.00  0.00    +0.000 A 
ATOM     20  C   UNL     1      -0.236  10.479  21.166  0.00  0.00    +0.000 A 
ATOM     21  C   UNL     1       0.722   9.559  21.621  0.00  0.00    +0.000 A 
ATOM     22  C   UNL     1       1.512   8.826  20.717  0.00  0.00    +0.000 A 
BRANCH  20  23
ATOM     23  C   UNL     1      -1.041  11.245  22.167  0.00  0.00    +0.000 C 
ATOM     24  C   UNL     1      -1.959  12.368  21.744  0.00  0.00    +0.000 C 
ATOM     25  O   UNL     1      -0.951  10.941  23.359  0.00  0.00    +0.000 OA
ENDBRANCH  20  23
ENDBRANCH  15  17
ENDBRANCH   4  13
BRANCH   1  27
ATOM     26  C   UNL     1       5.891   3.986  13.734  0.00  0.00    +0.000 C 
ATOM     27  S   UNL     1       6.847   4.719  15.084  0.00  0.00    +0.000 S 
ENDBRANCH   1  27
TORSDOF 5
ENDMDL
MODEL 7
REMARK VINA RESULT:      -7.8      0.815      1.352
REMARK  Name = 
REMARK  7 active torsions:
REMARK  status: ('A' for Active; 'I' for Inactive)
REMARK    1  A    between atoms: C_1  and  S_2
REMARK    2  A    between atoms: S_2  and  C_3
REMARK    3  A    between atoms: C_6  and  C_7
REMARK    4  A    between atoms: N_9  and  C_10
REMARK    5  A    between atoms: C_13  and  C_14
REMARK    6  A    between atoms: C_14  and  C_15
REMARK    7  A    between atoms: C_19  and  C_20
REMARK                            x       y       z     vdW  Elec       q    Type
REMARK                         _______ _______ _______ _____ _____    ______ ____
ROOT
ATOM      1  C   UNL     1       5.420   5.501  16.876  0.00  0.00    +0.000 A 
ATOM      2  N   UNL     1       5.288   6.778  16.487  0.00  0.00    +0.000 NA
ATOM      3  C   UNL     1       4.240   7.453  17.000  0.00  0.00    +0.000 A 
ATOM      4  C   UNL     1       3.310   6.898  17.854  0.00  0.00    +0.000 A 
ATOM      5  C   UNL     1       3.498   5.557  18.176  0.00  0.00    +0.000 A 
ATOM      6  N   UNL     1       4.558   4.863  17.680  0.00  0.00    +0.000 NA
ENDROOT
BRANCH   5   7
ATOM      7  C   UNL     1       2.623   4.735  19.054  0.00  0.00    +0.000 A 
ATOM      8  C   UNL     1       1.505   4.031  18.572  0.00  0.00    +0.000 A 
ATOM      9  C   UNL     1       0.686   3.282  19.427  0.00  0.00    +0.000 A 
ATOM     10  C   UNL     1       0.987   3.191  20.781  0.00  0.00    +0.000 A 
ATOM     11  C   UNL     1       2.105   3.847  21.283  0.00  0.00    +0.000 A 
ATOM     12  C   UNL     1       2.910   4.610  20.430  0.00  0.00    +0.000 A 
ENDBRANCH   5   7
BRANCH   4  13
ATOM     13  C   UNL     1       2.342   7.769  18.540  0.00  0.00    +0.000 C 
ATOM     14  O   UNL     1       2.158   7.540  19.730  0.00  0.00    +0.000 OA
ATOM     15  N   UNL     1       1.735   8.771  17.791  0.00  0.00    +0.000 N 
ATOM     16  H   UNL     1       1.940   8.839  16.801  0.00  0.00    +0.000 HD
BRANCH  15  17
ATOM     17  C   UNL     1       0.758   9.677  18.284  0.00  0.00    +0.000 A 
ATOM     18  C   UNL     1      -0.572   9.659  17.865  0.00  0.00    +0.000 A 
ATOM     19  C   UNL     1      -1.506  10.593  18.335  0.00  0.00    +0.000 A 
ATOM     20  C   UNL     1      -1.124  11.568  19.255  0.00  0.00    +0.000 A 
ATOM     21  C   UNL     1       0.206  11.575  19.704  0.00  0.00    +0.000 A 
ATOM     22  C   UNL     1       1.138  10.635  19.228  0.00  0.00    +0.000 A 
BRANCH  20  23
ATOM     23  C   UNL     1      -2.073  12.599  19.780  0.00  0.00    +0.000 C 
ATOM     24  C   UNL     1      -3.568  12.386  19.734  0.00  0.00    +0.000 C 
ATOM     25  O   UNL     1      -1.615  13.636  20.264  0.00  0.00    +0.000 OA
ENDBRANCH  20  23
ENDBRANCH  15  17
ENDBRANCH   4  13
BRANCH   1  27
ATOM     26  C   UNL     1       7.790   4.597  17.909  0.00  0.00    +0.000 C 
ATOM     27  S   UNL     1       6.880   4.645  16.346  0.00  0.00    +0.000 S 
ENDBRANCH   1  27
TORSDOF 5
ENDMDL
MODEL 8
REMARK VINA RESULT:      -7.7      1.820      2.291
REMARK  Name = 
REMARK  7 active torsions:
REMARK  status: ('A' for Active; 'I' for Inactive)
REMARK    1  A    between atoms: C_1  and  S_2
REMARK    2  A    between atoms: S_2  and  C_3
REMARK    3  A    between atoms: C_6  and  C_7
REMARK    4  A    between atoms: N_9  and  C_10
REMARK    5  A    between atoms: C_13  and  C_14
REMARK    6  A    between atoms: C_14  and  C_15
REMARK    7  A    between atoms: C_19  and  C_20
REMARK                            x       y       z     vdW  Elec       q    Type
REMARK                         _______ _______ _______ _____ _____    ______ ____
ROOT
ATOM      1  C   UNL     1       5.445   5.451  16.945  0.00  0.00    +0.000 A 
ATOM      2  N   UNL     1       5.337   6.725  16.540  0.00  0.00    +0.000 NA
ATOM      3  C   UNL     1       4.242   7.393  16.954  0.00  0.00    +0.000 A 
ATOM      4  C   UNL     1       3.246   6.834  17.726  0.00  0.00    +0.000 A 
ATOM      5  C   UNL     1       3.416   5.497  18.072  0.00  0.00    +0.000 A 
ATOM      6  N   UNL     1       4.521   4.810  17.674  0.00  0.00    +0.000 NA
ENDROOT
BRANCH   5   7
ATOM      7  C   UNL     1       2.474   4.671  18.874  0.00  0.00    +0.000 A 
ATOM      8  C   UNL     1       2.419   4.725  20.279  0.00  0.00    +0.000 A 
ATOM      9  C   UNL     1       1.537   3.920  21.009  0.00  0.00    +0.000 A 
ATOM     10  C   UNL     1       0.662   3.064  20.349  0.00  0.00    +0.000 A 
ATOM     11  C   UNL     1       0.667   3.012  18.960  0.00  0.00    +0.000 A 
ATOM     12  C   UNL     1       1.563   3.804  18.234  0.00  0.00    +0.000 A 
ENDBRANCH   5   7
BRANCH   4  13
ATOM     13  C   UNL     1       2.213   7.699  18.320  0.00  0.00    +0.000 C 
ATOM     14  O   UNL     1       1.361   8.129  17.551  0.00  0.00    +0.000 OA
ATOM     15  N   UNL     1       2.286   7.942  19.687  0.00  0.00    +0.000 N 
ATOM     16  H   UNL     1       3.063   7.561  20.214  0.00  0.00    +0.000 HD
BRANCH  15  17
ATOM     17  C   UNL     1       1.394   8.775  20.414  0.00  0.00    +0.000 A 
ATOM     18  C   UNL     1       0.650   8.321  21.503  0.00  0.00    +0.000 A 
ATOM     19  C   UNL     1      -0.257   9.153  22.175  0.00  0.00    +0.000 A 
ATOM     20  C   UNL     1      -0.430  10.476  21.771  0.00  0.00    +0.000 A 
ATOM     21  C   UNL     1       0.337  10.949  20.694  0.00  0.00    +0.000 A 
ATOM     22  C   UNL     1       1.245  10.109  20.025  0.00  0.00    +0.000 A 
BRANCH  20  23
ATOM     23  C   UNL     1      -1.393  11.405  22.441  0.00  0.00    +0.000 C 
ATOM     24  C   UNL     1      -1.684  12.775  21.876  0.00  0.00    +0.000 C 
ATOM     25  O   UNL     1      -1.962  11.030  23.468  0.00  0.00    +0.000 OA
ENDBRANCH  20  23
ENDBRANCH  15  17
ENDBRANCH   4  13
BRANCH   1  27
ATOM     26  C   UNL     1       7.804   4.739  18.142  0.00  0.00    +0.000 C 
ATOM     27  S   UNL     1       6.953   4.605  16.550  0.00  0.00    +0.000 S 
ENDBRANCH   1  27
TORSDOF 5
ENDMDL
MODEL 9
REMARK VINA RESULT:      -7.7      2.168      2.716
REMARK  Name = 
REMARK  7 active torsions:
REMARK  status: ('A' for Active; 'I' for Inactive)
REMARK    1  A    between atoms: C_1  and  S_2
REMARK    2  A    between atoms: S_2  and  C_3
REMARK    3  A    between atoms: C_6  and  C_7
REMARK    4  A    between atoms: N_9  and  C_10
REMARK    5  A    between atoms: C_13  and  C_14
REMARK    6  A    between atoms: C_14  and  C_15
REMARK    7  A    between atoms: C_19  and  C_20
REMARK                            x       y       z     vdW  Elec       q    Type
REMARK                         _______ _______ _______ _____ _____    ______ ____
ROOT
ATOM      1  C   UNL     1       5.604   4.557  14.848  0.00  0.00    +0.000 A 
ATOM      2  N   UNL     1       5.719   5.892  14.794  0.00  0.00    +0.000 NA
ATOM      3  C   UNL     1       5.111   6.584  15.778  0.00  0.00    +0.000 A 
ATOM      4  C   UNL     1       4.374   6.002  16.787  0.00  0.00    +0.000 A 
ATOM      5  C   UNL     1       4.272   4.614  16.748  0.00  0.00    +0.000 A 
ATOM      6  N   UNL     1       4.890   3.897  15.771  0.00  0.00    +0.000 NA
ENDROOT
BRANCH   5   7
ATOM      7  C   UNL     1       3.519   3.763  17.707  0.00  0.00    +0.000 A 
ATOM      8  C   UNL     1       4.131   3.112  18.794  0.00  0.00    +0.000 A 
ATOM      9  C   UNL     1       3.399   2.299  19.668  0.00  0.00    +0.000 A 
ATOM     10  C   UNL     1       2.028   2.143  19.496  0.00  0.00    +0.000 A 
ATOM     11  C   UNL     1       1.387   2.799  18.452  0.00  0.00    +0.000 A 
ATOM     12  C   UNL     1       2.124   3.596  17.569  0.00  0.00    +0.000 A 
ENDBRANCH   5   7
BRANCH   4  13
ATOM     13  C   UNL     1       3.947   6.814  17.938  0.00  0.00    +0.000 C 
ATOM     14  O   UNL     1       4.788   7.002  18.809  0.00  0.00    +0.000 OA
ATOM     15  N   UNL     1       2.644   7.301  17.932  0.00  0.00    +0.000 N 
ATOM     16  H   UNL     1       2.026   7.045  17.172  0.00  0.00    +0.000 HD
BRANCH  15  17
ATOM     17  C   UNL     1       2.059   8.072  18.973  0.00  0.00    +0.000 A 
ATOM     18  C   UNL     1       1.889   7.589  20.270  0.00  0.00    +0.000 A 
ATOM     19  C   UNL     1       1.268   8.355  21.267  0.00  0.00    +0.000 A 
ATOM     20  C   UNL     1       0.811   9.641  20.983  0.00  0.00    +0.000 A 
ATOM     21  C   UNL     1       1.005  10.145  19.687  0.00  0.00    +0.000 A 
ATOM     22  C   UNL     1       1.628   9.371  18.692  0.00  0.00    +0.000 A 
BRANCH  20  23
ATOM     23  C   UNL     1       0.128  10.498  22.002  0.00  0.00    +0.000 C 
ATOM     24  C   UNL     1      -0.649   9.890  23.145  0.00  0.00    +0.000 C 
ATOM     25  O   UNL     1       0.215  11.723  21.901  0.00  0.00    +0.000 OA
ENDBRANCH  20  23
ENDBRANCH  15  17
ENDBRANCH   4  13
BRANCH   1  27
ATOM     26  C   UNL     1       5.310   3.522  12.329  0.00  0.00    +0.000 C 
ATOM     27  S   UNL     1       6.531   3.620  13.661  0.00  0.00    +0.000 S 
ENDBRANCH   1  27
TORSDOF 5
ENDMDL
