MODEL 1
REMARK VINA RESULT:      -7.6      0.000      0.000
REMARK  Name = 
REMARK  4 active torsions:
REMARK  status: ('A' for Active; 'I' for Inactive)
REMARK    1  A    between atoms: C_1  and  C_2
REMARK    2  A    between atoms: C_5  and  C_6
REMARK    3  A    between atoms: N_11  and  C_12
REMARK    4  A    between atoms: C_13  and  C_14
REMARK                            x       y       z     vdW  Elec       q    Type
REMARK                         _______ _______ _______ _____ _____    ______ ____
ROOT
ATOM      1  C   UNL     1       0.645  10.078  20.596  0.00  0.00    +0.000 A 
ATOM      2  N   UNL     1       0.901  10.220  19.306  0.00  0.00    +0.000 NA
ATOM      3  C   UNL     1       1.599   9.126  18.852  0.00  0.00    +0.000 A 
ATOM      4  N   UNL     1       2.049   8.998  17.534  0.00  0.00    +0.000 NA
ATOM      5  C   UNL     1       2.651   7.875  17.286  0.00  0.00    +0.000 A 
ATOM      6  N   UNL     1       2.892   6.832  18.173  0.00  0.00    +0.000 N 
ATOM      7  C   UNL     1       2.542   6.948  19.520  0.00  0.00    +0.000 A 
ATOM      8  O   UNL     1       2.832   6.124  20.384  0.00  0.00    +0.000 OA
ATOM      9  C   UNL     1       1.827   8.155  19.784  0.00  0.00    +0.000 A 
ATOM     10  S   UNL     1       1.139   8.559  21.269  0.00  0.00    +0.000 S 
ENDROOT
BRANCH   6  11
ATOM     11  C   UNL     1       3.541   5.642  17.718  0.00  0.00    +0.000 A 
ATOM     12  C   UNL     1       2.810   4.441  17.554  0.00  0.00    +0.000 A 
ATOM     13  C   UNL     1       1.330   4.298  17.814  0.00  0.00    +0.000 C 
ATOM     14  C   UNL     1       3.478   3.287  17.101  0.00  0.00    +0.000 A 
ATOM     15  C   UNL     1       4.834   3.314  16.793  0.00  0.00    +0.000 A 
ATOM     16  C   UNL     1       5.557   4.491  16.951  0.00  0.00    +0.000 A 
ATOM     17  C   UNL     1       4.923   5.646  17.419  0.00  0.00    +0.000 A 
ATOM     18 CL   UNL     1       5.936   7.021  17.712  0.00  0.00    +0.000 Cl
ENDBRANCH   6  11
BRANCH   1  23
ATOM     19  C   UNL     1      -2.010  14.015  23.913  0.00  0.00    +0.000 C 
ATOM     20  C   UNL     1      -1.324  12.984  23.069  0.00  0.00    +0.000 A 
ATOM     21  C   UNL     1      -1.569  11.618  23.242  0.00  0.00    +0.000 A 
ATOM     22  C   UNL     1      -0.926  10.675  22.434  0.00  0.00    +0.000 A 
ATOM     23  C   UNL     1      -0.018  11.080  21.445  0.00  0.00    +0.000 A 
ATOM     24  C   UNL     1       0.216  12.455  21.279  0.00  0.00    +0.000 A 
ATOM     25  C   UNL     1      -0.425  13.396  22.083  0.00  0.00    +0.000 A 
ENDBRANCH   1  23
TORSDOF 2
ENDMDL
MODEL 2
REMARK VINA RESULT:      -7.6      2.092      2.795
REMARK  Name = 
REMARK  4 active torsions:
REMARK  status: ('A' for Active; 'I' for Inactive)
REMARK    1  A    between atoms: C_1  and  C_2
REMARK    2  A    between atoms: C_5  and  C_6
REMARK    3  A    between atoms: N_11  and  C_12
REMARK    4  A    between atoms: C_13  and  C_14
REMARK                            x       y       z     vdW  Elec       q    Type
REMARK                         _______ _______ _______ _____ _____    ______ ____
ROOT
ATOM      1  C   UNL     1       1.043   8.887  20.513  0.00  0.00    +0.000 A 
ATOM      2  N   UNL     1       1.503   7.768  21.046  0.00  0.00    +0.000 NA
ATOM      3  C   UNL     1       2.280   7.105  20.127  0.00  0.00    +0.000 A 
ATOM      4  N   UNL     1       2.880   5.867  20.382  0.00  0.00    +0.000 NA
ATOM      5  C   UNL     1       3.611   5.421  19.407  0.00  0.00    +0.000 A 
ATOM      6  N   UNL     1       3.838   6.026  18.176  0.00  0.00    +0.000 N 
ATOM      7  C   UNL     1       3.192   7.218  17.839  0.00  0.00    +0.000 A 
ATOM      8  O   UNL     1       3.246   7.745  16.731  0.00  0.00    +0.000 OA
ATOM      9  C   UNL     1       2.435   7.741  18.930  0.00  0.00    +0.000 A 
ATOM     10  S   UNL     1       1.637   9.227  18.920  0.00  0.00    +0.000 S 
ENDROOT
BRANCH   6  11
ATOM     11  C   UNL     1       4.708   5.407  17.225  0.00  0.00    +0.000 A 
ATOM     12  C   UNL     1       5.959   5.990  16.909  0.00  0.00    +0.000 A 
ATOM     13  C   UNL     1       6.492   7.260  17.526  0.00  0.00    +0.000 C 
ATOM     14  C   UNL     1       6.794   5.355  15.970  0.00  0.00    +0.000 A 
ATOM     15  C   UNL     1       6.421   4.157  15.367  0.00  0.00    +0.000 A 
ATOM     16  C   UNL     1       5.194   3.581  15.675  0.00  0.00    +0.000 A 
ATOM     17  C   UNL     1       4.337   4.201  16.588  0.00  0.00    +0.000 A 
ATOM     18 CL   UNL     1       2.776   3.478  16.800  0.00  0.00    +0.000 Cl
ENDBRANCH   6  11
BRANCH   1  23
ATOM     19  C   UNL     1      -2.648  12.530  23.094  0.00  0.00    +0.000 C 
ATOM     20  C   UNL     1      -1.683  11.586  22.442  0.00  0.00    +0.000 A 
ATOM     21  C   UNL     1      -1.076  10.550  23.161  0.00  0.00    +0.000 A 
ATOM     22  C   UNL     1      -0.189   9.674  22.528  0.00  0.00    +0.000 A 
ATOM     23  C   UNL     1       0.115   9.822  21.168  0.00  0.00    +0.000 A 
ATOM     24  C   UNL     1      -0.505  10.862  20.456  0.00  0.00    +0.000 A 
ATOM     25  C   UNL     1      -1.390  11.736  21.085  0.00  0.00    +0.000 A 
ENDBRANCH   1  23
TORSDOF 2
ENDMDL
MODEL 3
REMARK VINA RESULT:      -7.6      1.763      2.343
REMARK  Name = 
REMARK  4 active torsions:
REMARK  status: ('A' for Active; 'I' for Inactive)
REMARK    1  A    between atoms: C_1  and  C_2
REMARK    2  A    between atoms: C_5  and  C_6
REMARK    3  A    between atoms: N_11  and  C_12
REMARK    4  A    between atoms: C_13  and  C_14
REMARK                            x       y       z     vdW  Elec       q    Type
REMARK                         _______ _______ _______ _____ _____    ______ ____
ROOT
ATOM      1  C   UNL     1       1.034   8.860  20.540  0.00  0.00    +0.000 A 
ATOM      2  N   UNL     1       1.488   7.734  21.064  0.00  0.00    +0.000 NA
ATOM      3  C   UNL     1       2.269   7.078  20.142  0.00  0.00    +0.000 A 
ATOM      4  N   UNL     1       2.863   5.836  20.387  0.00  0.00    +0.000 NA
ATOM      5  C   UNL     1       3.599   5.399  19.411  0.00  0.00    +0.000 A 
ATOM      6  N   UNL     1       3.835   6.017  18.189  0.00  0.00    +0.000 N 
ATOM      7  C   UNL     1       3.195   7.214  17.861  0.00  0.00    +0.000 A 
ATOM      8  O   UNL     1       3.258   7.754  16.759  0.00  0.00    +0.000 OA
ATOM      9  C   UNL     1       2.434   7.728  18.953  0.00  0.00    +0.000 A 
ATOM     10  S   UNL     1       1.639   9.216  18.955  0.00  0.00    +0.000 S 
ENDROOT
BRANCH   6  11
ATOM     11  C   UNL     1       4.709   5.406  17.236  0.00  0.00    +0.000 A 
ATOM     12  C   UNL     1       4.361   4.177  16.623  0.00  0.00    +0.000 A 
ATOM     13  C   UNL     1       3.081   3.423  16.887  0.00  0.00    +0.000 C 
ATOM     14  C   UNL     1       5.242   3.604  15.687  0.00  0.00    +0.000 A 
ATOM     15  C   UNL     1       6.433   4.233  15.338  0.00  0.00    +0.000 A 
ATOM     16  C   UNL     1       6.779   5.440  15.936  0.00  0.00    +0.000 A 
ATOM     17  C   UNL     1       5.933   6.021  16.884  0.00  0.00    +0.000 A 
ATOM     18 CL   UNL     1       6.516   7.451  17.669  0.00  0.00    +0.000 Cl
ENDBRANCH   6  11
BRANCH   1  23
ATOM     19  C   UNL     1      -2.585  12.560  23.140  0.00  0.00    +0.000 C 
ATOM     20  C   UNL     1      -1.658  11.605  22.451  0.00  0.00    +0.000 A 
ATOM     21  C   UNL     1      -1.308  11.769  21.107  0.00  0.00    +0.000 A 
ATOM     22  C   UNL     1      -0.431  10.872  20.488  0.00  0.00    +0.000 A 
ATOM     23  C   UNL     1       0.105   9.791  21.200  0.00  0.00    +0.000 A 
ATOM     24  C   UNL     1      -0.249   9.640  22.550  0.00  0.00    +0.000 A 
ATOM     25  C   UNL     1      -1.123  10.533  23.168  0.00  0.00    +0.000 A 
ENDBRANCH   1  23
TORSDOF 2
ENDMDL
MODEL 4
REMARK VINA RESULT:      -7.5      1.136      2.041
REMARK  Name = 
REMARK  4 active torsions:
REMARK  status: ('A' for Active; 'I' for Inactive)
REMARK    1  A    between atoms: C_1  and  C_2
REMARK    2  A    between atoms: C_5  and  C_6
REMARK    3  A    between atoms: N_11  and  C_12
REMARK    4  A    between atoms: C_13  and  C_14
REMARK                            x       y       z     vdW  Elec       q    Type
REMARK                         _______ _______ _______ _____ _____    ______ ____
ROOT
ATOM      1  C   UNL     1       0.631  10.055  20.571  0.00  0.00    +0.000 A 
ATOM      2  N   UNL     1       0.922  10.223  19.292  0.00  0.00    +0.000 NA
ATOM      3  C   UNL     1       1.635   9.141  18.836  0.00  0.00    +0.000 A 
ATOM      4  N   UNL     1       2.122   9.039  17.528  0.00  0.00    +0.000 NA
ATOM      5  C   UNL     1       2.734   7.923  17.276  0.00  0.00    +0.000 A 
ATOM      6  N   UNL     1       2.953   6.863  18.148  0.00  0.00    +0.000 N 
ATOM      7  C   UNL     1       2.566   6.952  19.487  0.00  0.00    +0.000 A 
ATOM      8  O   UNL     1       2.834   6.112  20.342  0.00  0.00    +0.000 OA
ATOM      9  C   UNL     1       1.840   8.151  19.754  0.00  0.00    +0.000 A 
ATOM     10  S   UNL     1       1.110   8.525  21.227  0.00  0.00    +0.000 S 
ENDROOT
BRANCH   6  11
ATOM     11  C   UNL     1       3.619   5.684  17.688  0.00  0.00    +0.000 A 
ATOM     12  C   UNL     1       4.997   5.715  17.365  0.00  0.00    +0.000 A 
ATOM     13  C   UNL     1       5.876   6.936  17.481  0.00  0.00    +0.000 C 
ATOM     14  C   UNL     1       5.623   4.536  16.918  0.00  0.00    +0.000 A 
ATOM     15  C   UNL     1       4.918   3.341  16.810  0.00  0.00    +0.000 A 
ATOM     16  C   UNL     1       3.565   3.306  17.126  0.00  0.00    +0.000 A 
ATOM     17  C   UNL     1       2.914   4.466  17.553  0.00  0.00    +0.000 A 
ATOM     18 CL   UNL     1       1.201   4.350  17.791  0.00  0.00    +0.000 Cl
ENDBRANCH   6  11
BRANCH   1  23
ATOM     19  C   UNL     1      -2.036  13.937  23.943  0.00  0.00    +0.000 C 
ATOM     20  C   UNL     1      -1.347  12.945  23.056  0.00  0.00    +0.000 A 
ATOM     21  C   UNL     1      -0.481  13.355  22.037  0.00  0.00    +0.000 A 
ATOM     22  C   UNL     1       0.160  12.410  21.229  0.00  0.00    +0.000 A 
ATOM     23  C   UNL     1      -0.059  11.039  21.421  0.00  0.00    +0.000 A 
ATOM     24  C   UNL     1      -0.925  10.640  22.451  0.00  0.00    +0.000 A 
ATOM     25  C   UNL     1      -1.565  11.580  23.257  0.00  0.00    +0.000 A 
ENDBRANCH   1  23
TORSDOF 2
ENDMDL
MODEL 5
REMARK VINA RESULT:      -6.9      2.797      8.918
REMARK  Name = 
REMARK  4 active torsions:
REMARK  status: ('A' for Active; 'I' for Inactive)
REMARK    1  A    between atoms: C_1  and  C_2
REMARK    2  A    between atoms: C_5  and  C_6
REMARK    3  A    between atoms: N_11  and  C_12
REMARK    4  A    between atoms: C_13  and  C_14
REMARK                            x       y       z     vdW  Elec       q    Type
REMARK                         _______ _______ _______ _____ _____    ______ ____
ROOT
ATOM      1  C   UNL     1       1.472   8.484  19.944  0.00  0.00    +0.000 A 
ATOM      2  N   UNL     1       1.169   9.433  19.074  0.00  0.00    +0.000 NA
ATOM      3  C   UNL     1       0.559  10.478  19.725  0.00  0.00    +0.000 A 
ATOM      4  N   UNL     1       0.086  11.619  19.068  0.00  0.00    +0.000 NA
ATOM      5  C   UNL     1      -0.419  12.515  19.859  0.00  0.00    +0.000 A 
ATOM      6  N   UNL     1      -0.542  12.448  21.243  0.00  0.00    +0.000 N 
ATOM      7  C   UNL     1      -0.168  11.295  21.936  0.00  0.00    +0.000 A 
ATOM      8  O   UNL     1      -0.359  11.116  23.136  0.00  0.00    +0.000 OA
ATOM      9  C   UNL     1       0.444  10.333  21.078  0.00  0.00    +0.000 A 
ATOM     10  S   UNL     1       1.134   8.884  21.597  0.00  0.00    +0.000 S 
ENDROOT
BRANCH   6  11
ATOM     11  C   UNL     1      -1.095  13.551  21.966  0.00  0.00    +0.000 A 
ATOM     12  C   UNL     1      -2.482  13.602  22.252  0.00  0.00    +0.000 A 
ATOM     13  C   UNL     1      -3.476  12.538  21.856  0.00  0.00    +0.000 C 
ATOM     14  C   UNL     1      -2.994  14.700  22.968  0.00  0.00    +0.000 A 
ATOM     15  C   UNL     1      -2.161  15.720  23.417  0.00  0.00    +0.000 A 
ATOM     16  C   UNL     1      -0.800  15.675  23.140  0.00  0.00    +0.000 A 
ATOM     17  C   UNL     1      -0.268  14.607  22.412  0.00  0.00    +0.000 A 
ATOM     18 CL   UNL     1       1.413  14.710  22.001  0.00  0.00    +0.000 Cl
ENDBRANCH   6  11
BRANCH   1  23
ATOM     19  C   UNL     1       3.771   3.345  18.583  0.00  0.00    +0.000 C 
ATOM     20  C   UNL     1       3.190   4.683  18.926  0.00  0.00    +0.000 A 
ATOM     21  C   UNL     1       3.317   5.777  18.063  0.00  0.00    +0.000 A 
ATOM     22  C   UNL     1       2.756   7.014  18.399  0.00  0.00    +0.000 A 
ATOM     23  C   UNL     1       2.066   7.181  19.607  0.00  0.00    +0.000 A 
ATOM     24  C   UNL     1       1.940   6.074  20.463  0.00  0.00    +0.000 A 
ATOM     25  C   UNL     1       2.499   4.841  20.129  0.00  0.00    +0.000 A 
ENDBRANCH   1  23
TORSDOF 2
ENDMDL
MODEL 6
REMARK VINA RESULT:      -6.9      3.592      9.708
REMARK  Name = 
REMARK  4 active torsions:
REMARK  status: ('A' for Active; 'I' for Inactive)
REMARK    1  A    between atoms: C_1  and  C_2
REMARK    2  A    between atoms: C_5  and  C_6
REMARK    3  A    between atoms: N_11  and  C_12
REMARK    4  A    between atoms: C_13  and  C_14
REMARK                            x       y       z     vdW  Elec       q    Type
REMARK                         _______ _______ _______ _____ _____    ______ ____
ROOT
ATOM      1  C   UNL     1       0.636   9.985  19.905  0.00  0.00    +0.000 A 
ATOM      2  N   UNL     1       0.287  11.077  19.247  0.00  0.00    +0.000 NA
ATOM      3  C   UNL     1      -0.565  11.828  20.021  0.00  0.00    +0.000 A 
ATOM      4  N   UNL     1      -1.140  13.027  19.586  0.00  0.00    +0.000 NA
ATOM      5  C   UNL     1      -1.881  13.613  20.475  0.00  0.00    +0.000 A 
ATOM      6  N   UNL     1      -2.159  13.175  21.765  0.00  0.00    +0.000 N 
ATOM      7  C   UNL     1      -1.683  11.942  22.216  0.00  0.00    +0.000 A 
ATOM      8  O   UNL     1      -1.986  11.435  23.293  0.00  0.00    +0.000 OA
ATOM      9  C   UNL     1      -0.818  11.324  21.264  0.00  0.00    +0.000 A 
ATOM     10  S   UNL     1       0.037   9.895  21.529  0.00  0.00    +0.000 S 
ENDROOT
BRANCH   6  11
ATOM     11  C   UNL     1      -2.974  13.971  22.631  0.00  0.00    +0.000 A 
ATOM     12  C   UNL     1      -2.382  14.892  23.530  0.00  0.00    +0.000 A 
ATOM     13  C   UNL     1      -0.898  15.133  23.654  0.00  0.00    +0.000 C 
ATOM     14  C   UNL     1      -3.212  15.662  24.366  0.00  0.00    +0.000 A 
ATOM     15  C   UNL     1      -4.598  15.550  24.309  0.00  0.00    +0.000 A 
ATOM     16  C   UNL     1      -5.183  14.648  23.427  0.00  0.00    +0.000 A 
ATOM     17  C   UNL     1      -4.382  13.856  22.600  0.00  0.00    +0.000 A 
ATOM     18 CL   UNL     1      -5.199  12.669  21.637  0.00  0.00    +0.000 Cl
ENDBRANCH   6  11
BRANCH   1  23
ATOM     19  C   UNL     1       3.908   5.712  17.763  0.00  0.00    +0.000 C 
ATOM     20  C   UNL     1       3.071   6.830  18.307  0.00  0.00    +0.000 A 
ATOM     21  C   UNL     1       2.792   7.970  17.545  0.00  0.00    +0.000 A 
ATOM     22  C   UNL     1       1.998   8.995  18.070  0.00  0.00    +0.000 A 
ATOM     23  C   UNL     1       1.478   8.903  19.368  0.00  0.00    +0.000 A 
ATOM     24  C   UNL     1       1.761   7.752  20.121  0.00  0.00    +0.000 A 
ATOM     25  C   UNL     1       2.552   6.729  19.599  0.00  0.00    +0.000 A 
ENDBRANCH   1  23
TORSDOF 2
ENDMDL
MODEL 7
REMARK VINA RESULT:      -6.9      3.671      9.599
REMARK  Name = 
REMARK  4 active torsions:
REMARK  status: ('A' for Active; 'I' for Inactive)
REMARK    1  A    between atoms: C_1  and  C_2
REMARK    2  A    between atoms: C_5  and  C_6
REMARK    3  A    between atoms: N_11  and  C_12
REMARK    4  A    between atoms: C_13  and  C_14
REMARK                            x       y       z     vdW  Elec       q    Type
REMARK                         _______ _______ _______ _____ _____    ______ ____
ROOT
ATOM      1  C   UNL     1       0.691   9.559  20.219  0.00  0.00    +0.000 A 
ATOM      2  N   UNL     1       0.349   9.496  21.495  0.00  0.00    +0.000 NA
ATOM      3  C   UNL     1      -0.400  10.600  21.826  0.00  0.00    +0.000 A 
ATOM      4  N   UNL     1      -0.881  10.841  23.117  0.00  0.00    +0.000 NA
ATOM      5  C   UNL     1      -1.604  11.913  23.222  0.00  0.00    +0.000 A 
ATOM      6  N   UNL     1      -1.926  12.817  22.216  0.00  0.00    +0.000 N 
ATOM      7  C   UNL     1      -1.399  12.670  20.931  0.00  0.00    +0.000 A 
ATOM      8  O   UNL     1      -1.538  13.490  20.028  0.00  0.00    +0.000 OA
ATOM      9  C   UNL     1      -0.652  11.461  20.796  0.00  0.00    +0.000 A 
ATOM     10  S   UNL     1       0.014  10.899  19.353  0.00  0.00    +0.000 S 
ENDROOT
BRANCH   6  11
ATOM     11  C   UNL     1      -2.773  13.934  22.502  0.00  0.00    +0.000 A 
ATOM     12  C   UNL     1      -4.166  13.863  22.254  0.00  0.00    +0.000 A 
ATOM     13  C   UNL     1      -4.876  12.652  21.701  0.00  0.00    +0.000 C 
ATOM     14  C   UNL     1      -4.972  14.979  22.549  0.00  0.00    +0.000 A 
ATOM     15  C   UNL     1      -4.428  16.136  23.099  0.00  0.00    +0.000 A 
ATOM     16  C   UNL     1      -3.062  16.210  23.345  0.00  0.00    +0.000 A 
ATOM     17  C   UNL     1      -2.235  15.125  23.042  0.00  0.00    +0.000 A 
ATOM     18 CL   UNL     1      -0.533  15.364  23.257  0.00  0.00    +0.000 Cl
ENDBRANCH   6  11
BRANCH   1  23
ATOM     19  C   UNL     1       4.059   5.745  17.451  0.00  0.00    +0.000 C 
ATOM     20  C   UNL     1       3.197   6.746  18.158  0.00  0.00    +0.000 A 
ATOM     21  C   UNL     1       2.819   7.946  17.546  0.00  0.00    +0.000 A 
ATOM     22  C   UNL     1       2.003   8.860  18.222  0.00  0.00    +0.000 A 
ATOM     23  C   UNL     1       1.557   8.593  19.523  0.00  0.00    +0.000 A 
ATOM     24  C   UNL     1       1.938   7.383  20.125  0.00  0.00    +0.000 A 
ATOM     25  C   UNL     1       2.751   6.472  19.453  0.00  0.00    +0.000 A 
ENDBRANCH   1  23
TORSDOF 2
ENDMDL
MODEL 8
REMARK VINA RESULT:      -6.8      4.271     10.208
REMARK  Name = 
REMARK  4 active torsions:
REMARK  status: ('A' for Active; 'I' for Inactive)
REMARK    1  A    between atoms: C_1  and  C_2
REMARK    2  A    between atoms: C_5  and  C_6
REMARK    3  A    between atoms: N_11  and  C_12
REMARK    4  A    between atoms: C_13  and  C_14
REMARK                            x       y       z     vdW  Elec       q    Type
REMARK                         _______ _______ _______ _____ _____    ______ ____
ROOT
ATOM      1  C   UNL     1       0.176  10.480  20.509  0.00  0.00    +0.000 A 
ATOM      2  N   UNL     1       0.484  11.082  21.645  0.00  0.00    +0.000 NA
ATOM      3  C   UNL     1      -0.480  12.013  21.950  0.00  0.00    +0.000 A 
ATOM      4  N   UNL     1      -0.417  12.842  23.075  0.00  0.00    +0.000 NA
ATOM      5  C   UNL     1      -1.442  13.625  23.215  0.00  0.00    +0.000 A 
ATOM      6  N   UNL     1      -2.550  13.724  22.381  0.00  0.00    +0.000 N 
ATOM      7  C   UNL     1      -2.619  12.983  21.198  0.00  0.00    +0.000 A 
ATOM      8  O   UNL     1      -3.503  13.108  20.354  0.00  0.00    +0.000 OA
ATOM      9  C   UNL     1      -1.523  12.078  21.071  0.00  0.00    +0.000 A 
ATOM     10  S   UNL     1      -1.355  10.940  19.838  0.00  0.00    +0.000 S 
ENDROOT
BRANCH   6  11
ATOM     11  C   UNL     1      -3.614  14.621  22.708  0.00  0.00    +0.000 A 
ATOM     12  C   UNL     1      -3.606  15.954  22.227  0.00  0.00    +0.000 A 
ATOM     13  C   UNL     1      -2.531  16.538  21.345  0.00  0.00    +0.000 C 
ATOM     14  C   UNL     1      -4.670  16.811  22.565  0.00  0.00    +0.000 A 
ATOM     15  C   UNL     1      -5.736  16.366  23.342  0.00  0.00    +0.000 A 
ATOM     16  C   UNL     1      -5.749  15.059  23.815  0.00  0.00    +0.000 A 
ATOM     17  C   UNL     1      -4.695  14.193  23.512  0.00  0.00    +0.000 A 
ATOM     18 CL   UNL     1      -4.737  12.631  24.261  0.00  0.00    +0.000 Cl
ENDBRANCH   6  11
BRANCH   1  23
ATOM     19  C   UNL     1       3.412   6.519  17.791  0.00  0.00    +0.000 C 
ATOM     20  C   UNL     1       2.583   7.557  18.484  0.00  0.00    +0.000 A 
ATOM     21  C   UNL     1       2.167   8.719  17.825  0.00  0.00    +0.000 A 
ATOM     22  C   UNL     1       1.383   9.668  18.489  0.00  0.00    +0.000 A 
ATOM     23  C   UNL     1       1.009   9.477  19.826  0.00  0.00    +0.000 A 
ATOM     24  C   UNL     1       1.428   8.305  20.475  0.00  0.00    +0.000 A 
ATOM     25  C   UNL     1       2.208   7.358  19.815  0.00  0.00    +0.000 A 
ENDBRANCH   1  23
TORSDOF 2
ENDMDL
MODEL 9
REMARK VINA RESULT:      -6.8      3.285      9.402
REMARK  Name = 
REMARK  4 active torsions:
REMARK  status: ('A' for Active; 'I' for Inactive)
REMARK    1  A    between atoms: C_1  and  C_2
REMARK    2  A    between atoms: C_5  and  C_6
REMARK    3  A    between atoms: N_11  and  C_12
REMARK    4  A    between atoms: C_13  and  C_14
REMARK                            x       y       z     vdW  Elec       q    Type
REMARK                         _______ _______ _______ _____ _____    ______ ____
ROOT
ATOM      1  C   UNL     1       0.920   9.768  19.784  0.00  0.00    +0.000 A 
ATOM      2  N   UNL     1       0.374  10.730  19.060  0.00  0.00    +0.000 NA
ATOM      3  C   UNL     1      -0.368  11.554  19.872  0.00  0.00    +0.000 A 
ATOM      4  N   UNL     1      -1.100  12.646  19.393  0.00  0.00    +0.000 NA
ATOM      5  C   UNL     1      -1.700  13.328  20.318  0.00  0.00    +0.000 A 
ATOM      6  N   UNL     1      -1.697  13.083  21.687  0.00  0.00    +0.000 N 
ATOM      7  C   UNL     1      -1.056  11.955  22.206  0.00  0.00    +0.000 A 
ATOM      8  O   UNL     1      -1.113  11.607  23.382  0.00  0.00    +0.000 OA
ATOM      9  C   UNL     1      -0.345  11.236  21.200  0.00  0.00    +0.000 A 
ATOM     10  S   UNL     1       0.646   9.903  21.491  0.00  0.00    +0.000 S 
ENDROOT
BRANCH   6  11
ATOM     11  C   UNL     1      -2.389  13.966  22.574  0.00  0.00    +0.000 A 
ATOM     12  C   UNL     1      -3.775  13.803  22.816  0.00  0.00    +0.000 A 
ATOM     13  C   UNL     1      -4.628  12.719  22.203  0.00  0.00    +0.000 C 
ATOM     14  C   UNL     1      -4.426  14.686  23.697  0.00  0.00    +0.000 A 
ATOM     15  C   UNL     1      -3.728  15.699  24.349  0.00  0.00    +0.000 A 
ATOM     16  C   UNL     1      -2.367  15.862  24.115  0.00  0.00    +0.000 A 
ATOM     17  C   UNL     1      -1.701  15.012  23.229  0.00  0.00    +0.000 A 
ATOM     18 CL   UNL     1      -0.040  15.383  22.902  0.00  0.00    +0.000 Cl
ENDBRANCH   6  11
BRANCH   1  23
ATOM     19  C   UNL     1       4.032   5.370  17.657  0.00  0.00    +0.000 C 
ATOM     20  C   UNL     1       3.237   6.520  18.197  0.00  0.00    +0.000 A 
ATOM     21  C   UNL     1       3.024   7.679  17.443  0.00  0.00    +0.000 A 
ATOM     22  C   UNL     1       2.268   8.734  17.964  0.00  0.00    +0.000 A 
ATOM     23  C   UNL     1       1.721   8.654  19.252  0.00  0.00    +0.000 A 
ATOM     24  C   UNL     1       1.937   7.484  19.997  0.00  0.00    +0.000 A 
ATOM     25  C   UNL     1       2.690   6.431  19.479  0.00  0.00    +0.000 A 
ENDBRANCH   1  23
TORSDOF 2
ENDMDL
