MODEL 1
REMARK VINA RESULT:      -6.9      0.000      0.000
REMARK  Name = 
REMARK  4 active torsions:
REMARK  status: ('A' for Active; 'I' for Inactive)
REMARK    1  A    between atoms: O_1  and  C_2
REMARK    2  A    between atoms: C_2  and  C_3
REMARK    3  A    between atoms: C_2  and  C_9
REMARK    4  A    between atoms: C_3  and  N_4
REMARK                            x       y       z     vdW  Elec       q    Type
REMARK                         _______ _______ _______ _____ _____    ______ ____
ROOT
ATOM      1  C   UNL     1       6.317   5.326  18.546  0.00  0.00    +0.000 C 
ENDROOT
BRANCH   1   2
ATOM      2  C   UNL     1       4.888   4.790  18.679  0.00  0.00    +0.000 A 
ATOM      3  C   UNL     1       4.731   3.519  19.282  0.00  0.00    +0.000 A 
ATOM      4  C   UNL     1       3.480   2.910  19.419  0.00  0.00    +0.000 A 
ATOM      5  C   UNL     1       2.346   3.569  18.973  0.00  0.00    +0.000 A 
ATOM      6 CL   UNL     1       0.805   2.823  19.122  0.00  0.00    +0.000 Cl
ATOM      7  C   UNL     1       2.453   4.836  18.415  0.00  0.00    +0.000 A 
ATOM      8  C   UNL     1       3.709   5.454  18.289  0.00  0.00    +0.000 A 
ATOM      9 CL   UNL     1       3.664   7.060  17.663  0.00  0.00    +0.000 Cl
ENDBRANCH   1   2
BRANCH   1  10
ATOM     10  O   UNL     1       6.912   5.374  19.860  0.00  0.00    +0.000 OA
ATOM     11  H   UNL     1       6.467   4.729  20.433  0.00  0.00    +0.000 HD
ENDBRANCH   1  10
BRANCH   1  12
ATOM     12  C   UNL     1       7.327   4.624  17.620  0.00  0.00    +0.000 C 
BRANCH  12  13
ATOM     13  N   UNL     1       6.958   4.530  16.226  0.00  0.00    +0.000 N 
ATOM     14  C   UNL     1       6.089   3.686  15.599  0.00  0.00    +0.000 A 
ATOM     15  N   UNL     1       6.078   3.933  14.308  0.00  0.00    +0.000 NA
ATOM     16  C   UNL     1       6.988   4.942  14.191  0.00  0.00    +0.000 A 
ATOM     17  N   UNL     1       7.562   5.332  15.329  0.00  0.00    +0.000 NA
ENDBRANCH  12  13
ENDBRANCH   1  12
TORSDOF 4
ENDMDL
MODEL 2
REMARK VINA RESULT:      -6.6      3.818      5.606
REMARK  Name = 
REMARK  4 active torsions:
REMARK  status: ('A' for Active; 'I' for Inactive)
REMARK    1  A    between atoms: O_1  and  C_2
REMARK    2  A    between atoms: C_2  and  C_3
REMARK    3  A    between atoms: C_2  and  C_9
REMARK    4  A    between atoms: C_3  and  N_4
REMARK                            x       y       z     vdW  Elec       q    Type
REMARK                         _______ _______ _______ _____ _____    ______ ____
ROOT
ATOM      1  C   UNL     1       5.038   4.237  19.296  0.00  0.00    +0.000 C 
ENDROOT
BRANCH   1   2
ATOM      2  C   UNL     1       5.628   4.480  17.903  0.00  0.00    +0.000 A 
ATOM      3  C   UNL     1       4.878   4.015  16.796  0.00  0.00    +0.000 A 
ATOM      4  C   UNL     1       5.336   4.142  15.482  0.00  0.00    +0.000 A 
ATOM      5  C   UNL     1       6.553   4.758  15.238  0.00  0.00    +0.000 A 
ATOM      6 CL   UNL     1       7.133   4.906  13.627  0.00  0.00    +0.000 Cl
ATOM      7  C   UNL     1       7.299   5.266  16.293  0.00  0.00    +0.000 A 
ATOM      8  C   UNL     1       6.832   5.149  17.614  0.00  0.00    +0.000 A 
ATOM      9 CL   UNL     1       7.827   5.910  18.800  0.00  0.00    +0.000 Cl
ENDBRANCH   1   2
BRANCH   1  10
ATOM     10  O   UNL     1       4.076   5.276  19.573  0.00  0.00    +0.000 OA
ATOM     11  H   UNL     1       4.526   6.136  19.559  0.00  0.00    +0.000 HD
ENDBRANCH   1  10
BRANCH   1  12
ATOM     12  C   UNL     1       4.360   2.895  19.629  0.00  0.00    +0.000 C 
BRANCH  12  13
ATOM     13  N   UNL     1       3.012   2.969  20.145  0.00  0.00    +0.000 N 
ATOM     14  C   UNL     1       2.532   2.710  21.395  0.00  0.00    +0.000 A 
ATOM     15  N   UNL     1       1.228   2.881  21.417  0.00  0.00    +0.000 NA
ATOM     16  C   UNL     1       0.952   3.232  20.128  0.00  0.00    +0.000 A 
ATOM     17  N   UNL     1       2.004   3.287  19.311  0.00  0.00    +0.000 NA
ENDBRANCH  12  13
ENDBRANCH   1  12
TORSDOF 4
ENDMDL
MODEL 3
REMARK VINA RESULT:      -6.6      3.734      5.595
REMARK  Name = 
REMARK  4 active torsions:
REMARK  status: ('A' for Active; 'I' for Inactive)
REMARK    1  A    between atoms: O_1  and  C_2
REMARK    2  A    between atoms: C_2  and  C_3
REMARK    3  A    between atoms: C_2  and  C_9
REMARK    4  A    between atoms: C_3  and  N_4
REMARK                            x       y       z     vdW  Elec       q    Type
REMARK                         _______ _______ _______ _____ _____    ______ ____
ROOT
ATOM      1  C   UNL     1       4.041   3.110  17.412  0.00  0.00    +0.000 C 
ENDROOT
BRANCH   1   2
ATOM      2  C   UNL     1       5.109   4.200  17.538  0.00  0.00    +0.000 A 
ATOM      3  C   UNL     1       5.531   4.539  18.846  0.00  0.00    +0.000 A 
ATOM      4  C   UNL     1       6.468   5.548  19.088  0.00  0.00    +0.000 A 
ATOM      5  C   UNL     1       7.026   6.233  18.020  0.00  0.00    +0.000 A 
ATOM      6 CL   UNL     1       8.168   7.486  18.306  0.00  0.00    +0.000 Cl
ATOM      7  C   UNL     1       6.671   5.901  16.720  0.00  0.00    +0.000 A 
ATOM      8  C   UNL     1       5.738   4.878  16.476  0.00  0.00    +0.000 A 
ATOM      9 CL   UNL     1       5.473   4.525  14.810  0.00  0.00    +0.000 Cl
ENDBRANCH   1   2
BRANCH   1  10
ATOM     10  O   UNL     1       4.270   2.123  18.439  0.00  0.00    +0.000 OA
ATOM     11  H   UNL     1       5.208   2.138  18.689  0.00  0.00    +0.000 HD
ENDBRANCH   1  10
BRANCH   1  12
ATOM     12  C   UNL     1       2.546   3.477  17.464  0.00  0.00    +0.000 C 
BRANCH  12  13
ATOM     13  N   UNL     1       1.965   3.606  18.781  0.00  0.00    +0.000 N 
ATOM     14  C   UNL     1       1.842   4.699  19.586  0.00  0.00    +0.000 A 
ATOM     15  N   UNL     1       1.269   4.358  20.719  0.00  0.00    +0.000 NA
ATOM     16  C   UNL     1       1.076   3.017  20.563  0.00  0.00    +0.000 A 
ATOM     17  N   UNL     1       1.496   2.508  19.404  0.00  0.00    +0.000 NA
ENDBRANCH  12  13
ENDBRANCH   1  12
TORSDOF 4
ENDMDL
MODEL 4
REMARK VINA RESULT:      -6.5      2.133      2.687
REMARK  Name = 
REMARK  4 active torsions:
REMARK  status: ('A' for Active; 'I' for Inactive)
REMARK    1  A    between atoms: O_1  and  C_2
REMARK    2  A    between atoms: C_2  and  C_3
REMARK    3  A    between atoms: C_2  and  C_9
REMARK    4  A    between atoms: C_3  and  N_4
REMARK                            x       y       z     vdW  Elec       q    Type
REMARK                         _______ _______ _______ _____ _____    ______ ____
ROOT
ATOM      1  C   UNL     1       3.816   6.574  17.518  0.00  0.00    +0.000 C 
ENDROOT
BRANCH   1   2
ATOM      2  C   UNL     1       3.230   5.554  18.500  0.00  0.00    +0.000 A 
ATOM      3  C   UNL     1       2.518   6.066  19.611  0.00  0.00    +0.000 A 
ATOM      4  C   UNL     1       1.977   5.235  20.595  0.00  0.00    +0.000 A 
ATOM      5  C   UNL     1       2.115   3.861  20.481  0.00  0.00    +0.000 A 
ATOM      6 CL   UNL     1       1.466   2.828  21.693  0.00  0.00    +0.000 Cl
ATOM      7  C   UNL     1       2.768   3.317  19.384  0.00  0.00    +0.000 A 
ATOM      8  C   UNL     1       3.302   4.152  18.388  0.00  0.00    +0.000 A 
ATOM      9 CL   UNL     1       4.000   3.323  17.047  0.00  0.00    +0.000 Cl
ENDBRANCH   1   2
BRANCH   1  10
ATOM     10  O   UNL     1       3.130   7.830  17.699  0.00  0.00    +0.000 OA
ATOM     11  H   UNL     1       2.640   7.806  18.537  0.00  0.00    +0.000 HD
ENDBRANCH   1  10
BRANCH   1  12
ATOM     12  C   UNL     1       5.325   6.879  17.524  0.00  0.00    +0.000 C 
BRANCH  12  13
ATOM     13  N   UNL     1       6.169   5.946  16.814  0.00  0.00    +0.000 N 
ATOM     14  C   UNL     1       7.183   5.155  17.267  0.00  0.00    +0.000 A 
ATOM     15  N   UNL     1       7.702   4.477  16.267  0.00  0.00    +0.000 NA
ATOM     16  C   UNL     1       6.971   4.912  15.202  0.00  0.00    +0.000 A 
ATOM     17  N   UNL     1       6.033   5.817  15.481  0.00  0.00    +0.000 NA
ENDBRANCH  12  13
ENDBRANCH   1  12
TORSDOF 4
ENDMDL
MODEL 5
REMARK VINA RESULT:      -6.4      1.545      1.628
REMARK  Name = 
REMARK  4 active torsions:
REMARK  status: ('A' for Active; 'I' for Inactive)
REMARK    1  A    between atoms: O_1  and  C_2
REMARK    2  A    between atoms: C_2  and  C_3
REMARK    3  A    between atoms: C_2  and  C_9
REMARK    4  A    between atoms: C_3  and  N_4
REMARK                            x       y       z     vdW  Elec       q    Type
REMARK                         _______ _______ _______ _____ _____    ______ ____
ROOT
ATOM      1  C   UNL     1       5.488   5.130  17.153  0.00  0.00    +0.000 C 
ENDROOT
BRANCH   1   2
ATOM      2  C   UNL     1       4.172   4.481  17.593  0.00  0.00    +0.000 A 
ATOM      3  C   UNL     1       4.132   3.066  17.623  0.00  0.00    +0.000 A 
ATOM      4  C   UNL     1       2.974   2.362  17.967  0.00  0.00    +0.000 A 
ATOM      5  C   UNL     1       1.827   3.059  18.311  0.00  0.00    +0.000 A 
ATOM      6 CL   UNL     1       0.393   2.204  18.721  0.00  0.00    +0.000 Cl
ATOM      7  C   UNL     1       1.838   4.447  18.336  0.00  0.00    +0.000 A 
ATOM      8  C   UNL     1       3.006   5.155  18.002  0.00  0.00    +0.000 A 
ATOM      9 CL   UNL     1       2.885   6.866  18.170  0.00  0.00    +0.000 Cl
ENDBRANCH   1   2
BRANCH   1  10
ATOM     10  O   UNL     1       6.511   4.114  17.115  0.00  0.00    +0.000 OA
ATOM     11  H   UNL     1       7.157   4.340  16.426  0.00  0.00    +0.000 HD
ENDBRANCH   1  10
BRANCH   1  12
ATOM     12  C   UNL     1       5.567   5.899  15.821  0.00  0.00    +0.000 C 
BRANCH  12  13
ATOM     13  N   UNL     1       6.094   5.169  14.692  0.00  0.00    +0.000 N 
ATOM     14  C   UNL     1       5.534   4.171  13.949  0.00  0.00    +0.000 A 
ATOM     15  N   UNL     1       6.381   3.773  13.026  0.00  0.00    +0.000 NA
ATOM     16  C   UNL     1       7.470   4.558  13.262  0.00  0.00    +0.000 A 
ATOM     17  N   UNL     1       7.350   5.416  14.275  0.00  0.00    +0.000 NA
ENDBRANCH  12  13
ENDBRANCH   1  12
TORSDOF 4
ENDMDL
MODEL 6
REMARK VINA RESULT:      -6.3      3.835      5.751
REMARK  Name = 
REMARK  4 active torsions:
REMARK  status: ('A' for Active; 'I' for Inactive)
REMARK    1  A    between atoms: O_1  and  C_2
REMARK    2  A    between atoms: C_2  and  C_3
REMARK    3  A    between atoms: C_2  and  C_9
REMARK    4  A    between atoms: C_3  and  N_4
REMARK                            x       y       z     vdW  Elec       q    Type
REMARK                         _______ _______ _______ _____ _____    ______ ____
ROOT
ATOM      1  C   UNL     1       2.521   3.671  17.452  0.00  0.00    +0.000 C 
ENDROOT
BRANCH   1   2
ATOM      2  C   UNL     1       3.742   4.596  17.404  0.00  0.00    +0.000 A 
ATOM      3  C   UNL     1       4.973   4.017  17.013  0.00  0.00    +0.000 A 
ATOM      4  C   UNL     1       6.161   4.751  16.974  0.00  0.00    +0.000 A 
ATOM      5  C   UNL     1       6.145   6.096  17.306  0.00  0.00    +0.000 A 
ATOM      6 CL   UNL     1       7.603   7.007  17.276  0.00  0.00    +0.000 Cl
ATOM      7  C   UNL     1       4.950   6.712  17.653  0.00  0.00    +0.000 A 
ATOM      8  C   UNL     1       3.752   5.976  17.681  0.00  0.00    +0.000 A 
ATOM      9 CL   UNL     1       2.344   6.903  18.040  0.00  0.00    +0.000 Cl
ENDBRANCH   1   2
BRANCH   1  10
ATOM     10  O   UNL     1       2.977   2.323  17.689  0.00  0.00    +0.000 OA
ATOM     11  H   UNL     1       3.481   2.300  18.519  0.00  0.00    +0.000 HD
ENDBRANCH   1  10
BRANCH   1  12
ATOM     12  C   UNL     1       1.380   3.942  18.450  0.00  0.00    +0.000 C 
BRANCH  12  13
ATOM     13  N   UNL     1       1.646   3.614  19.831  0.00  0.00    +0.000 N 
ATOM     14  C   UNL     1       2.169   4.376  20.833  0.00  0.00    +0.000 A 
ATOM     15  N   UNL     1       2.263   3.664  21.935  0.00  0.00    +0.000 NA
ATOM     16  C   UNL     1       1.794   2.446  21.542  0.00  0.00    +0.000 A 
ATOM     17  N   UNL     1       1.418   2.359  20.266  0.00  0.00    +0.000 NA
ENDBRANCH  12  13
ENDBRANCH   1  12
TORSDOF 4
ENDMDL
MODEL 7
REMARK VINA RESULT:      -6.3      2.380      3.308
REMARK  Name = 
REMARK  4 active torsions:
REMARK  status: ('A' for Active; 'I' for Inactive)
REMARK    1  A    between atoms: O_1  and  C_2
REMARK    2  A    between atoms: C_2  and  C_3
REMARK    3  A    between atoms: C_2  and  C_9
REMARK    4  A    between atoms: C_3  and  N_4
REMARK                            x       y       z     vdW  Elec       q    Type
REMARK                         _______ _______ _______ _____ _____    ______ ____
ROOT
ATOM      1  C   UNL     1       5.346   4.330  16.353  0.00  0.00    +0.000 C 
ENDROOT
BRANCH   1   2
ATOM      2  C   UNL     1       4.311   4.595  17.451  0.00  0.00    +0.000 A 
ATOM      3  C   UNL     1       4.037   5.948  17.764  0.00  0.00    +0.000 A 
ATOM      4  C   UNL     1       3.145   6.311  18.777  0.00  0.00    +0.000 A 
ATOM      5  C   UNL     1       2.483   5.326  19.492  0.00  0.00    +0.000 A 
ATOM      6 CL   UNL     1       1.395   5.761  20.749  0.00  0.00    +0.000 Cl
ATOM      7  C   UNL     1       2.691   3.988  19.186  0.00  0.00    +0.000 A 
ATOM      8  C   UNL     1       3.580   3.622  18.160  0.00  0.00    +0.000 A 
ATOM      9 CL   UNL     1       3.658   1.930  17.842  0.00  0.00    +0.000 Cl
ENDBRANCH   1   2
BRANCH   1  10
ATOM     10  O   UNL     1       5.112   5.254  15.270  0.00  0.00    +0.000 OA
ATOM     11  H   UNL     1       4.450   5.908  15.549  0.00  0.00    +0.000 HD
ENDBRANCH   1  10
BRANCH   1  12
ATOM     12  C   UNL     1       6.851   4.384  16.674  0.00  0.00    +0.000 C 
BRANCH  12  13
ATOM     13  N   UNL     1       7.329   5.598  17.293  0.00  0.00    +0.000 N 
ATOM     14  C   UNL     1       7.740   5.833  18.572  0.00  0.00    +0.000 A 
ATOM     15  N   UNL     1       8.071   7.098  18.711  0.00  0.00    +0.000 NA
ATOM     16  C   UNL     1       7.821   7.608  17.471  0.00  0.00    +0.000 A 
ATOM     17  N   UNL     1       7.356   6.738  16.575  0.00  0.00    +0.000 NA
ENDBRANCH  12  13
ENDBRANCH   1  12
TORSDOF 4
ENDMDL
MODEL 8
REMARK VINA RESULT:      -6.3      2.066      2.878
REMARK  Name = 
REMARK  4 active torsions:
REMARK  status: ('A' for Active; 'I' for Inactive)
REMARK    1  A    between atoms: O_1  and  C_2
REMARK    2  A    between atoms: C_2  and  C_3
REMARK    3  A    between atoms: C_2  and  C_9
REMARK    4  A    between atoms: C_3  and  N_4
REMARK                            x       y       z     vdW  Elec       q    Type
REMARK                         _______ _______ _______ _____ _____    ______ ____
ROOT
ATOM      1  C   UNL     1       5.266   4.344  15.926  0.00  0.00    +0.000 C 
ENDROOT
BRANCH   1   2
ATOM      2  C   UNL     1       4.185   4.348  17.012  0.00  0.00    +0.000 A 
ATOM      3  C   UNL     1       3.739   3.088  17.479  0.00  0.00    +0.000 A 
ATOM      4  C   UNL     1       2.727   2.966  18.436  0.00  0.00    +0.000 A 
ATOM      5  C   UNL     1       2.148   4.106  18.969  0.00  0.00    +0.000 A 
ATOM      6 CL   UNL     1       0.893   3.969  20.135  0.00  0.00    +0.000 Cl
ATOM      7  C   UNL     1       2.588   5.361  18.568  0.00  0.00    +0.000 A 
ATOM      8  C   UNL     1       3.613   5.484  17.615  0.00  0.00    +0.000 A 
ATOM      9 CL   UNL     1       4.109   7.104  17.293  0.00  0.00    +0.000 Cl
ENDBRANCH   1   2
BRANCH   1  10
ATOM     10  O   UNL     1       5.096   5.519  15.107  0.00  0.00    +0.000 OA
ATOM     11  H   UNL     1       5.206   6.310  15.660  0.00  0.00    +0.000 HD
ENDBRANCH   1  10
BRANCH   1  12
ATOM     12  C   UNL     1       6.755   4.275  16.312  0.00  0.00    +0.000 C 
BRANCH  12  13
ATOM     13  N   UNL     1       7.186   5.172  17.360  0.00  0.00    +0.000 N 
ATOM     14  C   UNL     1       7.471   6.505  17.317  0.00  0.00    +0.000 A 
ATOM     15  N   UNL     1       7.855   6.918  18.505  0.00  0.00    +0.000 NA
ATOM     16  C   UNL     1       7.807   5.776  19.247  0.00  0.00    +0.000 A 
ATOM     17  N   UNL     1       7.419   4.681  18.592  0.00  0.00    +0.000 NA
ENDBRANCH  12  13
ENDBRANCH   1  12
TORSDOF 4
ENDMDL
MODEL 9
REMARK VINA RESULT:      -6.2      3.405      5.399
REMARK  Name = 
REMARK  4 active torsions:
REMARK  status: ('A' for Active; 'I' for Inactive)
REMARK    1  A    between atoms: O_1  and  C_2
REMARK    2  A    between atoms: C_2  and  C_3
REMARK    3  A    between atoms: C_2  and  C_9
REMARK    4  A    between atoms: C_3  and  N_4
REMARK                            x       y       z     vdW  Elec       q    Type
REMARK                         _______ _______ _______ _____ _____    ______ ____
ROOT
ATOM      1  C   UNL     1       5.397   4.572  19.080  0.00  0.00    +0.000 C 
ENDROOT
BRANCH   1   2
ATOM      2  C   UNL     1       5.698   4.480  17.581  0.00  0.00    +0.000 A 
ATOM      3  C   UNL     1       7.009   4.816  17.166  0.00  0.00    +0.000 A 
ATOM      4  C   UNL     1       7.387   4.811  15.821  0.00  0.00    +0.000 A 
ATOM      5  C   UNL     1       6.466   4.448  14.852  0.00  0.00    +0.000 A 
ATOM      6 CL   UNL     1       6.916   4.453  13.193  0.00  0.00    +0.000 Cl
ATOM      7  C   UNL     1       5.182   4.070  15.222  0.00  0.00    +0.000 A 
ATOM      8  C   UNL     1       4.804   4.064  16.576  0.00  0.00    +0.000 A 
ATOM      9 CL   UNL     1       3.209   3.483  16.877  0.00  0.00    +0.000 Cl
ENDBRANCH   1   2
BRANCH   1  10
ATOM     10  O   UNL     1       6.553   5.120  19.747  0.00  0.00    +0.000 OA
ATOM     11  H   UNL     1       6.305   5.379  20.650  0.00  0.00    +0.000 HD
ENDBRANCH   1  10
BRANCH   1  12
ATOM     12  C   UNL     1       4.172   5.360  19.581  0.00  0.00    +0.000 C 
BRANCH  12  13
ATOM     13  N   UNL     1       3.044   4.575  20.025  0.00  0.00    +0.000 N 
ATOM     14  C   UNL     1       1.746   4.938  20.234  0.00  0.00    +0.000 A 
ATOM     15  N   UNL     1       1.057   3.904  20.666  0.00  0.00    +0.000 NA
ATOM     16  C   UNL     1       2.001   2.922  20.726  0.00  0.00    +0.000 A 
ATOM     17  N   UNL     1       3.230   3.284  20.358  0.00  0.00    +0.000 NA
ENDBRANCH  12  13
ENDBRANCH   1  12
TORSDOF 4
ENDMDL
