MODEL 1
REMARK VINA RESULT:      -7.7      0.000      0.000
REMARK  Name = 
REMARK  9 active torsions:
REMARK  status: ('A' for Active; 'I' for Inactive)
REMARK    1  A    between atoms: C_1  and  C_2
REMARK    2  A    between atoms: C_5  and  N_6
REMARK    3  A    between atoms: N_9  and  C_10
REMARK    4  A    between atoms: C_10  and  C_11
REMARK    5  A    between atoms: C_11  and  O_12
REMARK    6  A    between atoms: O_12  and  C_13
REMARK    7  A    between atoms: C_17  and  C_18
REMARK    8  A    between atoms: N_19  and  N_20
REMARK    9  A    between atoms: C_23  and  C_24
REMARK                            x       y       z     vdW  Elec       q    Type
REMARK                         _______ _______ _______ _____ _____    ______ ____
ROOT
ATOM      1  C   UNL     1       2.152   3.330  18.642  0.00  0.00    +0.000 A 
ATOM      2  C   UNL     1       2.515   2.420  19.639  0.00  0.00    +0.000 A 
ATOM      3  C   UNL     1       2.411   2.764  20.988  0.00  0.00    +0.000 A 
ATOM      4  C   UNL     1       1.925   4.020  21.343  0.00  0.00    +0.000 A 
ATOM      5  C   UNL     1       1.527   4.920  20.347  0.00  0.00    +0.000 A 
ATOM      6  C   UNL     1       1.631   4.577  18.997  0.00  0.00    +0.000 A 
ENDROOT
BRANCH   5   7
ATOM      7  C   UNL     1       0.969   6.237  20.717  0.00  0.00    +0.000 C 
ATOM      8  N   UNL     1       1.739   7.272  20.778  0.00  0.00    +0.000 NA
BRANCH   8   9
ATOM      9  N   UNL     1       1.165   8.438  21.186  0.00  0.00    +0.000 N 
ATOM     10  C   UNL     1       1.103   9.522  20.365  0.00  0.00    +0.000 A 
ATOM     11  N   UNL     1       1.041  10.761  20.809  0.00  0.00    +0.000 NA
ATOM     12  C   UNL     1       1.002  11.653  19.746  0.00  0.00    +0.000 A 
ATOM     13  C   UNL     1       1.023  11.072  18.495  0.00  0.00    +0.000 A 
ATOM     14  S   UNL     1       1.101   9.373  18.641  0.00  0.00    +0.000 S 
ATOM     15  H   UNL     1       1.190   8.675  22.175  0.00  0.00    +0.000 HD
BRANCH  12  16
ATOM     16  C   UNL     1       0.959  13.094  19.960  0.00  0.00    +0.000 A 
ATOM     17  C   UNL     1       0.341  13.921  19.012  0.00  0.00    +0.000 A 
ATOM     18  C   UNL     1       0.292  15.305  19.203  0.00  0.00    +0.000 A 
ATOM     19  C   UNL     1       0.866  15.875  20.339  0.00  0.00    +0.000 A 
ATOM     20  C   UNL     1       1.486  15.062  21.286  0.00  0.00    +0.000 A 
ATOM     21  C   UNL     1       1.531  13.679  21.098  0.00  0.00    +0.000 A 
ENDBRANCH  12  16
ENDBRANCH   8   9
ENDBRANCH   5   7
BRANCH   1  22
ATOM     22  O   UNL     1       2.331   2.896  17.353  0.00  0.00    +0.000 OA
BRANCH  22  23
ATOM     23  C   UNL     1       3.694   2.779  16.932  0.00  0.00    +0.000 C 
BRANCH  23  24
ATOM     24  C   UNL     1       4.161   4.135  16.412  0.00  0.00    +0.000 C 
BRANCH  24  30
ATOM     25  C   UNL     1       6.378   4.119  14.249  0.00  0.00    +0.000 C 
ATOM     26  C   UNL     1       6.582   4.358  15.702  0.00  0.00    +0.000 A 
ATOM     27  N   UNL     1       7.759   4.570  16.264  0.00  0.00    +0.000 NA
ATOM     28  C   UNL     1       7.529   4.687  17.609  0.00  0.00    +0.000 A 
ATOM     29  C   UNL     1       6.190   4.576  17.858  0.00  0.00    +0.000 A 
ATOM     30  N   UNL     1       5.574   4.372  16.651  0.00  0.00    +0.000 N 
BRANCH  29  31
ATOM     31  N   UNL     1       5.522   4.631  19.102  0.00  0.00    +0.000 N 
ATOM     32  O   UNL     1       4.999   5.709  19.399  0.00  0.00    +0.000 OA
ATOM     33  O   UNL     1       5.511   3.596  19.774  0.00  0.00    +0.000 OA
ENDBRANCH  29  31
ENDBRANCH  24  30
ENDBRANCH  23  24
ENDBRANCH  22  23
ENDBRANCH   1  22
TORSDOF 8
ENDMDL
MODEL 2
REMARK VINA RESULT:      -7.6      5.438      6.979
REMARK  Name = 
REMARK  9 active torsions:
REMARK  status: ('A' for Active; 'I' for Inactive)
REMARK    1  A    between atoms: C_1  and  C_2
REMARK    2  A    between atoms: C_5  and  N_6
REMARK    3  A    between atoms: N_9  and  C_10
REMARK    4  A    between atoms: C_10  and  C_11
REMARK    5  A    between atoms: C_11  and  O_12
REMARK    6  A    between atoms: O_12  and  C_13
REMARK    7  A    between atoms: C_17  and  C_18
REMARK    8  A    between atoms: N_19  and  N_20
REMARK    9  A    between atoms: C_23  and  C_24
REMARK                            x       y       z     vdW  Elec       q    Type
REMARK                         _______ _______ _______ _____ _____    ______ ____
ROOT
ATOM      1  C   UNL     1       5.774   4.976  17.233  0.00  0.00    +0.000 A 
ATOM      2  C   UNL     1       6.006   4.459  18.511  0.00  0.00    +0.000 A 
ATOM      3  C   UNL     1       6.904   5.083  19.379  0.00  0.00    +0.000 A 
ATOM      4  C   UNL     1       7.562   6.242  18.973  0.00  0.00    +0.000 A 
ATOM      5  C   UNL     1       7.303   6.782  17.707  0.00  0.00    +0.000 A 
ATOM      6  C   UNL     1       6.406   6.157  16.838  0.00  0.00    +0.000 A 
ENDROOT
BRANCH   5   7
ATOM      7  C   UNL     1       7.965   8.034  17.286  0.00  0.00    +0.000 C 
ATOM      8  N   UNL     1       8.326   8.905  18.169  0.00  0.00    +0.000 NA
BRANCH   8   9
ATOM      9  N   UNL     1       8.874  10.060  17.700  0.00  0.00    +0.000 N 
ATOM     10  C   UNL     1       9.200  11.081  18.538  0.00  0.00    +0.000 A 
ATOM     11  N   UNL     1       9.247  12.341  18.157  0.00  0.00    +0.000 NA
ATOM     12  C   UNL     1       9.593  13.157  19.226  0.00  0.00    +0.000 A 
ATOM     13  C   UNL     1       9.818  12.495  20.415  0.00  0.00    +0.000 A 
ATOM     14  S   UNL     1       9.587  10.817  20.204  0.00  0.00    +0.000 S 
ATOM     15  H   UNL     1       8.639  10.363  16.757  0.00  0.00    +0.000 HD
BRANCH  12  16
ATOM     16  C   UNL     1       9.689  14.604  19.083  0.00  0.00    +0.000 A 
ATOM     17  C   UNL     1       8.747  15.292  18.306  0.00  0.00    +0.000 A 
ATOM     18  C   UNL     1       8.826  16.679  18.160  0.00  0.00    +0.000 A 
ATOM     19  C   UNL     1       9.850  17.391  18.785  0.00  0.00    +0.000 A 
ATOM     20  C   UNL     1      10.794  16.717  19.557  0.00  0.00    +0.000 A 
ATOM     21  C   UNL     1      10.713  15.331  19.706  0.00  0.00    +0.000 A 
ENDBRANCH  12  16
ENDBRANCH   8   9
ENDBRANCH   5   7
BRANCH   1  22
ATOM     22  O   UNL     1       4.901   4.259  16.457  0.00  0.00    +0.000 OA
BRANCH  22  23
ATOM     23  C   UNL     1       3.894   3.538  17.175  0.00  0.00    +0.000 C 
BRANCH  23  24
ATOM     24  C   UNL     1       2.635   4.397  17.242  0.00  0.00    +0.000 C 
BRANCH  24  30
ATOM     25  C   UNL     1       3.012   7.031  18.827  0.00  0.00    +0.000 C 
ATOM     26  C   UNL     1       2.356   5.797  19.335  0.00  0.00    +0.000 A 
ATOM     27  N   UNL     1       1.868   5.660  20.555  0.00  0.00    +0.000 NA
ATOM     28  C   UNL     1       1.406   4.374  20.644  0.00  0.00    +0.000 A 
ATOM     29  C   UNL     1       1.589   3.736  19.449  0.00  0.00    +0.000 A 
ATOM     30  N   UNL     1       2.188   4.633  18.603  0.00  0.00    +0.000 N 
BRANCH  29  31
ATOM     31  N   UNL     1       1.262   2.405  19.107  0.00  0.00    +0.000 N 
ATOM     32  O   UNL     1       1.986   1.522  19.574  0.00  0.00    +0.000 OA
ATOM     33  O   UNL     1       0.276   2.243  18.381  0.00  0.00    +0.000 OA
ENDBRANCH  29  31
ENDBRANCH  24  30
ENDBRANCH  23  24
ENDBRANCH  22  23
ENDBRANCH   1  22
TORSDOF 8
ENDMDL
MODEL 3
REMARK VINA RESULT:      -7.5      1.832      2.419
REMARK  Name = 
REMARK  9 active torsions:
REMARK  status: ('A' for Active; 'I' for Inactive)
REMARK    1  A    between atoms: C_1  and  C_2
REMARK    2  A    between atoms: C_5  and  N_6
REMARK    3  A    between atoms: N_9  and  C_10
REMARK    4  A    between atoms: C_10  and  C_11
REMARK    5  A    between atoms: C_11  and  O_12
REMARK    6  A    between atoms: O_12  and  C_13
REMARK    7  A    between atoms: C_17  and  C_18
REMARK    8  A    between atoms: N_19  and  N_20
REMARK    9  A    between atoms: C_23  and  C_24
REMARK                            x       y       z     vdW  Elec       q    Type
REMARK                         _______ _______ _______ _____ _____    ______ ____
ROOT
ATOM      1  C   UNL     1       1.904   4.417  18.301  0.00  0.00    +0.000 A 
ATOM      2  C   UNL     1       1.462   3.507  19.266  0.00  0.00    +0.000 A 
ATOM      3  C   UNL     1       1.205   3.925  20.573  0.00  0.00    +0.000 A 
ATOM      4  C   UNL     1       1.374   5.265  20.914  0.00  0.00    +0.000 A 
ATOM      5  C   UNL     1       1.782   6.185  19.939  0.00  0.00    +0.000 A 
ATOM      6  C   UNL     1       2.041   5.767  18.632  0.00  0.00    +0.000 A 
ENDROOT
BRANCH   5   7
ATOM      7  C   UNL     1       1.922   7.615  20.283  0.00  0.00    +0.000 C 
ATOM      8  N   UNL     1       1.136   8.152  21.156  0.00  0.00    +0.000 NA
BRANCH   8   9
ATOM      9  N   UNL     1       1.287   9.488  21.374  0.00  0.00    +0.000 N 
ATOM     10  C   UNL     1       0.847  10.408  20.473  0.00  0.00    +0.000 A 
ATOM     11  N   UNL     1       1.370  11.610  20.355  0.00  0.00    +0.000 NA
ATOM     12  C   UNL     1       0.729  12.320  19.348  0.00  0.00    +0.000 A 
ATOM     13  C   UNL     1      -0.292  11.641  18.716  0.00  0.00    +0.000 A 
ATOM     14  S   UNL     1      -0.457  10.079  19.384  0.00  0.00    +0.000 S 
ATOM     15  H   UNL     1       2.080   9.805  21.928  0.00  0.00    +0.000 HD
BRANCH  12  16
ATOM     16  C   UNL     1       1.133  13.673  18.991  0.00  0.00    +0.000 A 
ATOM     17  C   UNL     1       2.398  13.899  18.433  0.00  0.00    +0.000 A 
ATOM     18  C   UNL     1       2.800  15.192  18.085  0.00  0.00    +0.000 A 
ATOM     19  C   UNL     1       1.942  16.271  18.297  0.00  0.00    +0.000 A 
ATOM     20  C   UNL     1       0.682  16.059  18.853  0.00  0.00    +0.000 A 
ATOM     21  C   UNL     1       0.279  14.767  19.198  0.00  0.00    +0.000 A 
ENDBRANCH  12  16
ENDBRANCH   8   9
ENDBRANCH   5   7
BRANCH   1  22
ATOM     22  O   UNL     1       2.160   3.886  17.063  0.00  0.00    +0.000 OA
BRANCH  22  23
ATOM     23  C   UNL     1       3.519   3.499  16.833  0.00  0.00    +0.000 C 
BRANCH  23  24
ATOM     24  C   UNL     1       4.354   4.758  16.615  0.00  0.00    +0.000 C 
BRANCH  24  30
ATOM     25  C   UNL     1       5.155   4.752  19.607  0.00  0.00    +0.000 C 
ATOM     26  C   UNL     1       6.089   4.636  18.456  0.00  0.00    +0.000 A 
ATOM     27  N   UNL     1       7.402   4.543  18.569  0.00  0.00    +0.000 NA
ATOM     28  C   UNL     1       7.898   4.513  17.293  0.00  0.00    +0.000 A 
ATOM     29  C   UNL     1       6.866   4.557  16.397  0.00  0.00    +0.000 A 
ATOM     30  N   UNL     1       5.707   4.630  17.125  0.00  0.00    +0.000 N 
BRANCH  29  31
ATOM     31  N   UNL     1       6.930   4.553  14.986  0.00  0.00    +0.000 N 
ATOM     32  O   UNL     1       7.507   5.508  14.457  0.00  0.00    +0.000 OA
ATOM     33  O   UNL     1       6.412   3.592  14.408  0.00  0.00    +0.000 OA
ENDBRANCH  29  31
ENDBRANCH  24  30
ENDBRANCH  23  24
ENDBRANCH  22  23
ENDBRANCH   1  22
TORSDOF 8
ENDMDL
MODEL 4
REMARK VINA RESULT:      -7.5      5.264      6.849
REMARK  Name = 
REMARK  9 active torsions:
REMARK  status: ('A' for Active; 'I' for Inactive)
REMARK    1  A    between atoms: C_1  and  C_2
REMARK    2  A    between atoms: C_5  and  N_6
REMARK    3  A    between atoms: N_9  and  C_10
REMARK    4  A    between atoms: C_10  and  C_11
REMARK    5  A    between atoms: C_11  and  O_12
REMARK    6  A    between atoms: O_12  and  C_13
REMARK    7  A    between atoms: C_17  and  C_18
REMARK    8  A    between atoms: N_19  and  N_20
REMARK    9  A    between atoms: C_23  and  C_24
REMARK                            x       y       z     vdW  Elec       q    Type
REMARK                         _______ _______ _______ _____ _____    ______ ____
ROOT
ATOM      1  C   UNL     1       6.268   5.665  17.288  0.00  0.00    +0.000 A 
ATOM      2  C   UNL     1       6.860   4.987  18.357  0.00  0.00    +0.000 A 
ATOM      3  C   UNL     1       7.837   5.606  19.139  0.00  0.00    +0.000 A 
ATOM      4  C   UNL     1       8.211   6.919  18.861  0.00  0.00    +0.000 A 
ATOM      5  C   UNL     1       7.593   7.612  17.813  0.00  0.00    +0.000 A 
ATOM      6  C   UNL     1       6.617   6.993  17.030  0.00  0.00    +0.000 A 
ENDROOT
BRANCH   5   7
ATOM      7  C   UNL     1       7.954   9.019  17.541  0.00  0.00    +0.000 C 
ATOM      8  N   UNL     1       8.731   9.657  18.351  0.00  0.00    +0.000 NA
BRANCH   8   9
ATOM      9  N   UNL     1       8.969  10.967  18.065  0.00  0.00    +0.000 N 
ATOM     10  C   UNL     1       9.187  11.880  19.050  0.00  0.00    +0.000 A 
ATOM     11  N   UNL     1       8.929  13.164  18.915  0.00  0.00    +0.000 NA
ATOM     12  C   UNL     1       9.238  13.845  20.085  0.00  0.00    +0.000 A 
ATOM     13  C   UNL     1       9.743  13.060  21.100  0.00  0.00    +0.000 A 
ATOM     14  S   UNL     1       9.831  11.433  20.593  0.00  0.00    +0.000 S 
ATOM     15  H   UNL     1       8.558  11.365  17.222  0.00  0.00    +0.000 HD
BRANCH  12  16
ATOM     16  C   UNL     1       9.021  15.280  20.214  0.00  0.00    +0.000 A 
ATOM     17  C   UNL     1      10.063  16.107  20.654  0.00  0.00    +0.000 A 
ATOM     18  C   UNL     1       9.870  17.485  20.784  0.00  0.00    +0.000 A 
ATOM     19  C   UNL     1       8.631  18.048  20.480  0.00  0.00    +0.000 A 
ATOM     20  C   UNL     1       7.586  17.235  20.043  0.00  0.00    +0.000 A 
ATOM     21  C   UNL     1       7.780  15.859  19.911  0.00  0.00    +0.000 A 
ENDBRANCH  12  16
ENDBRANCH   8   9
ENDBRANCH   5   7
BRANCH   1  22
ATOM     22  O   UNL     1       5.349   4.945  16.568  0.00  0.00    +0.000 OA
BRANCH  22  23
ATOM     23  C   UNL     1       4.574   4.011  17.327  0.00  0.00    +0.000 C 
BRANCH  23  24
ATOM     24  C   UNL     1       3.110   4.435  17.271  0.00  0.00    +0.000 C 
BRANCH  24  30
ATOM     25  C   UNL     1       3.060   7.465  17.906  0.00  0.00    +0.000 C 
ATOM     26  C   UNL     1       2.628   6.378  18.822  0.00  0.00    +0.000 A 
ATOM     27  N   UNL     1       2.188   6.571  20.053  0.00  0.00    +0.000 NA
ATOM     28  C   UNL     1       1.950   5.329  20.578  0.00  0.00    +0.000 A 
ATOM     29  C   UNL     1       2.220   4.374  19.638  0.00  0.00    +0.000 A 
ATOM     30  N   UNL     1       2.648   5.028  18.513  0.00  0.00    +0.000 N 
BRANCH  29  31
ATOM     31  N   UNL     1       2.117   2.969  19.761  0.00  0.00    +0.000 N 
ATOM     32  O   UNL     1       1.089   2.451  19.316  0.00  0.00    +0.000 OA
ATOM     33  O   UNL     1       3.067   2.386  20.292  0.00  0.00    +0.000 OA
ENDBRANCH  29  31
ENDBRANCH  24  30
ENDBRANCH  23  24
ENDBRANCH  22  23
ENDBRANCH   1  22
TORSDOF 8
ENDMDL
MODEL 5
REMARK VINA RESULT:      -7.4      1.962      2.262
REMARK  Name = 
REMARK  9 active torsions:
REMARK  status: ('A' for Active; 'I' for Inactive)
REMARK    1  A    between atoms: C_1  and  C_2
REMARK    2  A    between atoms: C_5  and  N_6
REMARK    3  A    between atoms: N_9  and  C_10
REMARK    4  A    between atoms: C_10  and  C_11
REMARK    5  A    between atoms: C_11  and  O_12
REMARK    6  A    between atoms: O_12  and  C_13
REMARK    7  A    between atoms: C_17  and  C_18
REMARK    8  A    between atoms: N_19  and  N_20
REMARK    9  A    between atoms: C_23  and  C_24
REMARK                            x       y       z     vdW  Elec       q    Type
REMARK                         _______ _______ _______ _____ _____    ______ ____
ROOT
ATOM      1  C   UNL     1       2.250   3.708  18.628  0.00  0.00    +0.000 A 
ATOM      2  C   UNL     1       1.905   2.948  19.750  0.00  0.00    +0.000 A 
ATOM      3  C   UNL     1       1.667   3.563  20.980  0.00  0.00    +0.000 A 
ATOM      4  C   UNL     1       1.758   4.949  21.087  0.00  0.00    +0.000 A 
ATOM      5  C   UNL     1       2.067   5.715  19.956  0.00  0.00    +0.000 A 
ATOM      6  C   UNL     1       2.306   5.100  18.725  0.00  0.00    +0.000 A 
ENDROOT
BRANCH   5   7
ATOM      7  C   UNL     1       2.123   7.189  20.051  0.00  0.00    +0.000 C 
ATOM      8  N   UNL     1       1.310   7.818  20.833  0.00  0.00    +0.000 NA
BRANCH   8   9
ATOM      9  N   UNL     1       1.382   9.178  20.821  0.00  0.00    +0.000 N 
ATOM     10  C   UNL     1       0.499   9.940  21.523  0.00  0.00    +0.000 A 
ATOM     11  N   UNL     1       0.184  11.174  21.187  0.00  0.00    +0.000 NA
ATOM     12  C   UNL     1      -0.746  11.695  22.077  0.00  0.00    +0.000 A 
ATOM     13  C   UNL     1      -1.121  10.841  23.094  0.00  0.00    +0.000 A 
ATOM     14  S   UNL     1      -0.302   9.352  22.939  0.00  0.00    +0.000 S 
ATOM     15  H   UNL     1       1.753   9.640  19.993  0.00  0.00    +0.000 HD
BRANCH  12  16
ATOM     16  C   UNL     1      -1.287  13.039  21.918  0.00  0.00    +0.000 A 
ATOM     17  C   UNL     1      -0.605  14.134  22.466  0.00  0.00    +0.000 A 
ATOM     18  C   UNL     1      -1.111  15.428  22.322  0.00  0.00    +0.000 A 
ATOM     19  C   UNL     1      -2.306  15.639  21.634  0.00  0.00    +0.000 A 
ATOM     20  C   UNL     1      -2.993  14.558  21.087  0.00  0.00    +0.000 A 
ATOM     21  C   UNL     1      -2.486  13.264  21.228  0.00  0.00    +0.000 A 
ENDBRANCH  12  16
ENDBRANCH   8   9
ENDBRANCH   5   7
BRANCH   1  22
ATOM     22  O   UNL     1       2.497   2.993  17.485  0.00  0.00    +0.000 OA
BRANCH  22  23
ATOM     23  C   UNL     1       3.318   3.654  16.516  0.00  0.00    +0.000 C 
BRANCH  23  24
ATOM     24  C   UNL     1       4.742   3.122  16.641  0.00  0.00    +0.000 C 
BRANCH  24  30
ATOM     25  C   UNL     1       6.280   4.090  14.133  0.00  0.00    +0.000 C 
ATOM     26  C   UNL     1       6.448   4.617  15.513  0.00  0.00    +0.000 A 
ATOM     27  N   UNL     1       7.309   5.560  15.852  0.00  0.00    +0.000 NA
ATOM     28  C   UNL     1       7.196   5.718  17.207  0.00  0.00    +0.000 A 
ATOM     29  C   UNL     1       6.229   4.880  17.688  0.00  0.00    +0.000 A 
ATOM     30  N   UNL     1       5.740   4.176  16.619  0.00  0.00    +0.000 N 
BRANCH  29  31
ATOM     31  N   UNL     1       5.797   4.716  19.024  0.00  0.00    +0.000 N 
ATOM     32  O   UNL     1       5.628   3.556  19.411  0.00  0.00    +0.000 OA
ATOM     33  O   UNL     1       5.636   5.746  19.686  0.00  0.00    +0.000 OA
ENDBRANCH  29  31
ENDBRANCH  24  30
ENDBRANCH  23  24
ENDBRANCH  22  23
ENDBRANCH   1  22
TORSDOF 8
ENDMDL
MODEL 6
REMARK VINA RESULT:      -7.4      0.690      1.164
REMARK  Name = 
REMARK  9 active torsions:
REMARK  status: ('A' for Active; 'I' for Inactive)
REMARK    1  A    between atoms: C_1  and  C_2
REMARK    2  A    between atoms: C_5  and  N_6
REMARK    3  A    between atoms: N_9  and  C_10
REMARK    4  A    between atoms: C_10  and  C_11
REMARK    5  A    between atoms: C_11  and  O_12
REMARK    6  A    between atoms: O_12  and  C_13
REMARK    7  A    between atoms: C_17  and  C_18
REMARK    8  A    between atoms: N_19  and  N_20
REMARK    9  A    between atoms: C_23  and  C_24
REMARK                            x       y       z     vdW  Elec       q    Type
REMARK                         _______ _______ _______ _____ _____    ______ ____
ROOT
ATOM      1  C   UNL     1       2.535   3.472  18.703  0.00  0.00    +0.000 A 
ATOM      2  C   UNL     1       2.827   2.522  19.686  0.00  0.00    +0.000 A 
ATOM      3  C   UNL     1       2.571   2.790  21.032  0.00  0.00    +0.000 A 
ATOM      4  C   UNL     1       2.005   4.010  21.397  0.00  0.00    +0.000 A 
ATOM      5  C   UNL     1       1.679   4.948  20.410  0.00  0.00    +0.000 A 
ATOM      6  C   UNL     1       1.935   4.681  19.063  0.00  0.00    +0.000 A 
ENDROOT
BRANCH   5   7
ATOM      7  C   UNL     1       1.039   6.226  20.785  0.00  0.00    +0.000 C 
ATOM      8  N   UNL     1       1.723   7.321  20.777  0.00  0.00    +0.000 NA
BRANCH   8   9
ATOM      9  N   UNL     1       1.080   8.447  21.193  0.00  0.00    +0.000 N 
ATOM     10  C   UNL     1       1.044   9.568  20.422  0.00  0.00    +0.000 A 
ATOM     11  N   UNL     1       0.906  10.781  20.917  0.00  0.00    +0.000 NA
ATOM     12  C   UNL     1       0.916  11.723  19.898  0.00  0.00    +0.000 A 
ATOM     13  C   UNL     1       1.052  11.205  18.627  0.00  0.00    +0.000 A 
ATOM     14  S   UNL     1       1.176   9.505  18.698  0.00  0.00    +0.000 S 
ATOM     15  H   UNL     1       1.023   8.635  22.192  0.00  0.00    +0.000 HD
BRANCH  12  16
ATOM     16  C   UNL     1       0.809  13.150  20.175  0.00  0.00    +0.000 A 
ATOM     17  C   UNL     1       0.547  13.589  21.480  0.00  0.00    +0.000 A 
ATOM     18  C   UNL     1       0.441  14.954  21.761  0.00  0.00    +0.000 A 
ATOM     19  C   UNL     1       0.590  15.891  20.740  0.00  0.00    +0.000 A 
ATOM     20  C   UNL     1       0.848  15.466  19.438  0.00  0.00    +0.000 A 
ATOM     21  C   UNL     1       0.957  14.103  19.157  0.00  0.00    +0.000 A 
ENDBRANCH  12  16
ENDBRANCH   8   9
ENDBRANCH   5   7
BRANCH   1  22
ATOM     22  O   UNL     1       2.863   3.114  17.421  0.00  0.00    +0.000 OA
BRANCH  22  23
ATOM     23  C   UNL     1       3.535   4.122  16.657  0.00  0.00    +0.000 C 
BRANCH  23  24
ATOM     24  C   UNL     1       4.970   3.666  16.406  0.00  0.00    +0.000 C 
BRANCH  24  30
ATOM     25  C   UNL     1       6.811   4.755  14.168  0.00  0.00    +0.000 C 
ATOM     26  C   UNL     1       6.776   5.234  15.575  0.00  0.00    +0.000 A 
ATOM     27  N   UNL     1       7.559   6.182  16.059  0.00  0.00    +0.000 NA
ATOM     28  C   UNL     1       7.258   6.288  17.391  0.00  0.00    +0.000 A 
ATOM     29  C   UNL     1       6.256   5.413  17.707  0.00  0.00    +0.000 A 
ATOM     30  N   UNL     1       5.935   4.740  16.557  0.00  0.00    +0.000 N 
BRANCH  29  31
ATOM     31  N   UNL     1       5.649   5.193  18.964  0.00  0.00    +0.000 N 
ATOM     32  O   UNL     1       5.971   4.159  19.557  0.00  0.00    +0.000 OA
ATOM     33  O   UNL     1       4.862   6.057  19.360  0.00  0.00    +0.000 OA
ENDBRANCH  29  31
ENDBRANCH  24  30
ENDBRANCH  23  24
ENDBRANCH  22  23
ENDBRANCH   1  22
TORSDOF 8
ENDMDL
MODEL 7
REMARK VINA RESULT:      -7.4      1.709      2.363
REMARK  Name = 
REMARK  9 active torsions:
REMARK  status: ('A' for Active; 'I' for Inactive)
REMARK    1  A    between atoms: C_1  and  C_2
REMARK    2  A    between atoms: C_5  and  N_6
REMARK    3  A    between atoms: N_9  and  C_10
REMARK    4  A    between atoms: C_10  and  C_11
REMARK    5  A    between atoms: C_11  and  O_12
REMARK    6  A    between atoms: O_12  and  C_13
REMARK    7  A    between atoms: C_17  and  C_18
REMARK    8  A    between atoms: N_19  and  N_20
REMARK    9  A    between atoms: C_23  and  C_24
REMARK                            x       y       z     vdW  Elec       q    Type
REMARK                         _______ _______ _______ _____ _____    ______ ____
ROOT
ATOM      1  C   UNL     1       1.873   3.891  18.190  0.00  0.00    +0.000 A 
ATOM      2  C   UNL     1       1.531   2.660  18.758  0.00  0.00    +0.000 A 
ATOM      3  C   UNL     1       1.203   2.569  20.112  0.00  0.00    +0.000 A 
ATOM      4  C   UNL     1       1.199   3.718  20.900  0.00  0.00    +0.000 A 
ATOM      5  C   UNL     1       1.505   4.957  20.323  0.00  0.00    +0.000 A 
ATOM      6  C   UNL     1       1.835   5.049  18.969  0.00  0.00    +0.000 A 
ENDROOT
BRANCH   5   7
ATOM      7  C   UNL     1       1.461   6.186  21.142  0.00  0.00    +0.000 C 
ATOM      8  N   UNL     1       1.488   7.345  20.574  0.00  0.00    +0.000 NA
BRANCH   8   9
ATOM      9  N   UNL     1       1.505   8.430  21.397  0.00  0.00    +0.000 N 
ATOM     10  C   UNL     1       0.950   9.614  21.021  0.00  0.00    +0.000 A 
ATOM     11  N   UNL     1       1.342  10.779  21.495  0.00  0.00    +0.000 NA
ATOM     12  C   UNL     1       0.606  11.807  20.923  0.00  0.00    +0.000 A 
ATOM     13  C   UNL     1      -0.355  11.402  20.019  0.00  0.00    +0.000 A 
ATOM     14  S   UNL     1      -0.340   9.702  19.872  0.00  0.00    +0.000 S 
ATOM     15  H   UNL     1       2.275   8.530  22.056  0.00  0.00    +0.000 HD
BRANCH  12  16
ATOM     16  C   UNL     1       0.858  13.203  21.253  0.00  0.00    +0.000 A 
ATOM     17  C   UNL     1       2.099  13.778  20.948  0.00  0.00    +0.000 A 
ATOM     18  C   UNL     1       2.356  15.116  21.258  0.00  0.00    +0.000 A 
ATOM     19  C   UNL     1       1.377  15.890  21.881  0.00  0.00    +0.000 A 
ATOM     20  C   UNL     1       0.140  15.328  22.191  0.00  0.00    +0.000 A 
ATOM     21  C   UNL     1      -0.118  13.992  21.878  0.00  0.00    +0.000 A 
ENDBRANCH  12  16
ENDBRANCH   8   9
ENDBRANCH   5   7
BRANCH   1  22
ATOM     22  O   UNL     1       2.212   3.854  16.862  0.00  0.00    +0.000 OA
BRANCH  22  23
ATOM     23  C   UNL     1       3.586   3.554  16.590  0.00  0.00    +0.000 C 
BRANCH  23  24
ATOM     24  C   UNL     1       4.376   4.859  16.582  0.00  0.00    +0.000 C 
BRANCH  24  30
ATOM     25  C   UNL     1       5.126   4.892  19.586  0.00  0.00    +0.000 C 
ATOM     26  C   UNL     1       6.076   4.731  18.455  0.00  0.00    +0.000 A 
ATOM     27  N   UNL     1       7.385   4.607  18.592  0.00  0.00    +0.000 NA
ATOM     28  C   UNL     1       7.901   4.541  17.326  0.00  0.00    +0.000 A 
ATOM     29  C   UNL     1       6.886   4.593  16.412  0.00  0.00    +0.000 A 
ATOM     30  N   UNL     1       5.717   4.708  17.118  0.00  0.00    +0.000 N 
BRANCH  29  31
ATOM     31  N   UNL     1       6.973   4.560  15.002  0.00  0.00    +0.000 N 
ATOM     32  O   UNL     1       6.376   3.641  14.433  0.00  0.00    +0.000 OA
ATOM     33  O   UNL     1       7.629   5.457  14.464  0.00  0.00    +0.000 OA
ENDBRANCH  29  31
ENDBRANCH  24  30
ENDBRANCH  23  24
ENDBRANCH  22  23
ENDBRANCH   1  22
TORSDOF 8
ENDMDL
MODEL 8
REMARK VINA RESULT:      -7.3      5.873      7.282
REMARK  Name = 
REMARK  9 active torsions:
REMARK  status: ('A' for Active; 'I' for Inactive)
REMARK    1  A    between atoms: C_1  and  C_2
REMARK    2  A    between atoms: C_5  and  N_6
REMARK    3  A    between atoms: N_9  and  C_10
REMARK    4  A    between atoms: C_10  and  C_11
REMARK    5  A    between atoms: C_11  and  O_12
REMARK    6  A    between atoms: O_12  and  C_13
REMARK    7  A    between atoms: C_17  and  C_18
REMARK    8  A    between atoms: N_19  and  N_20
REMARK    9  A    between atoms: C_23  and  C_24
REMARK                            x       y       z     vdW  Elec       q    Type
REMARK                         _______ _______ _______ _____ _____    ______ ____
ROOT
ATOM      1  C   UNL     1       6.805   5.692  17.145  0.00  0.00    +0.000 A 
ATOM      2  C   UNL     1       7.370   5.100  18.279  0.00  0.00    +0.000 A 
ATOM      3  C   UNL     1       8.143   5.853  19.165  0.00  0.00    +0.000 A 
ATOM      4  C   UNL     1       8.340   7.211  18.924  0.00  0.00    +0.000 A 
ATOM      5  C   UNL     1       7.745   7.813  17.808  0.00  0.00    +0.000 A 
ATOM      6  C   UNL     1       6.972   7.060  16.922  0.00  0.00    +0.000 A 
ENDROOT
BRANCH   5   7
ATOM      7  C   UNL     1       7.913   9.262  17.571  0.00  0.00    +0.000 C 
ATOM      8  N   UNL     1       8.740   9.945  18.290  0.00  0.00    +0.000 NA
BRANCH   8   9
ATOM      9  N   UNL     1       8.795  11.285  18.052  0.00  0.00    +0.000 N 
ATOM     10  C   UNL     1       9.612  12.100  18.774  0.00  0.00    +0.000 A 
ATOM     11  N   UNL     1       9.372  13.382  18.959  0.00  0.00    +0.000 NA
ATOM     12  C   UNL     1      10.367  13.951  19.743  0.00  0.00    +0.000 A 
ATOM     13  C   UNL     1      11.366  13.085  20.137  0.00  0.00    +0.000 A 
ATOM     14  S   UNL     1      11.060  11.522  19.525  0.00  0.00    +0.000 S 
ATOM     15  H   UNL     1       7.964  11.751  17.695  0.00  0.00    +0.000 HD
BRANCH  12  16
ATOM     16  C   UNL     1      10.329  15.357  20.124  0.00  0.00    +0.000 A 
ATOM     17  C   UNL     1       9.205  16.133  19.812  0.00  0.00    +0.000 A 
ATOM     18  C   UNL     1       9.154  17.483  20.171  0.00  0.00    +0.000 A 
ATOM     19  C   UNL     1      10.228  18.070  20.839  0.00  0.00    +0.000 A 
ATOM     20  C   UNL     1      11.351  17.308  21.152  0.00  0.00    +0.000 A 
ATOM     21  C   UNL     1      11.402  15.958  20.797  0.00  0.00    +0.000 A 
ENDBRANCH  12  16
ENDBRANCH   8   9
ENDBRANCH   5   7
BRANCH   1  22
ATOM     22  O   UNL     1       6.098   4.847  16.329  0.00  0.00    +0.000 OA
BRANCH  22  23
ATOM     23  C   UNL     1       5.343   3.835  17.004  0.00  0.00    +0.000 C 
BRANCH  23  24
ATOM     24  C   UNL     1       3.873   4.242  17.004  0.00  0.00    +0.000 C 
BRANCH  24  30
ATOM     25  C   UNL     1       3.031   7.112  17.806  0.00  0.00    +0.000 C 
ATOM     26  C   UNL     1       3.031   5.924  18.700  0.00  0.00    +0.000 A 
ATOM     27  N   UNL     1       2.692   5.951  19.976  0.00  0.00    +0.000 NA
ATOM     28  C   UNL     1       2.877   4.682  20.453  0.00  0.00    +0.000 A 
ATOM     29  C   UNL     1       3.304   3.868  19.440  0.00  0.00    +0.000 A 
ATOM     30  N   UNL     1       3.401   4.646  18.316  0.00  0.00    +0.000 N 
BRANCH  29  31
ATOM     31  N   UNL     1       3.620   2.492  19.495  0.00  0.00    +0.000 N 
ATOM     32  O   UNL     1       2.827   1.722  18.946  0.00  0.00    +0.000 OA
ATOM     33  O   UNL     1       4.665   2.184  20.077  0.00  0.00    +0.000 OA
ENDBRANCH  29  31
ENDBRANCH  24  30
ENDBRANCH  23  24
ENDBRANCH  22  23
ENDBRANCH   1  22
TORSDOF 8
ENDMDL
MODEL 9
REMARK VINA RESULT:      -7.3      2.594      4.198
REMARK  Name = 
REMARK  9 active torsions:
REMARK  status: ('A' for Active; 'I' for Inactive)
REMARK    1  A    between atoms: C_1  and  C_2
REMARK    2  A    between atoms: C_5  and  N_6
REMARK    3  A    between atoms: N_9  and  C_10
REMARK    4  A    between atoms: C_10  and  C_11
REMARK    5  A    between atoms: C_11  and  O_12
REMARK    6  A    between atoms: O_12  and  C_13
REMARK    7  A    between atoms: C_17  and  C_18
REMARK    8  A    between atoms: N_19  and  N_20
REMARK    9  A    between atoms: C_23  and  C_24
REMARK                            x       y       z     vdW  Elec       q    Type
REMARK                         _______ _______ _______ _____ _____    ______ ____
ROOT
ATOM      1  C   UNL     1       4.047   4.882  17.146  0.00  0.00    +0.000 A 
ATOM      2  C   UNL     1       4.863   5.728  16.390  0.00  0.00    +0.000 A 
ATOM      3  C   UNL     1       4.825   7.110  16.579  0.00  0.00    +0.000 A 
ATOM      4  C   UNL     1       3.977   7.650  17.544  0.00  0.00    +0.000 A 
ATOM      5  C   UNL     1       3.185   6.802  18.328  0.00  0.00    +0.000 A 
ATOM      6  C   UNL     1       3.222   5.419  18.138  0.00  0.00    +0.000 A 
ENDROOT
BRANCH   5   7
ATOM      7  C   UNL     1       2.316   7.364  19.382  0.00  0.00    +0.000 C 
ATOM      8  N   UNL     1       1.733   8.502  19.202  0.00  0.00    +0.000 NA
BRANCH   8   9
ATOM      9  N   UNL     1       0.997   8.983  20.242  0.00  0.00    +0.000 N 
ATOM     10  C   UNL     1       0.141  10.029  20.082  0.00  0.00    +0.000 A 
ATOM     11  N   UNL     1      -0.200  10.841  21.061  0.00  0.00    +0.000 NA
ATOM     12  C   UNL     1      -1.073  11.816  20.599  0.00  0.00    +0.000 A 
ATOM     13  C   UNL     1      -1.395  11.724  19.261  0.00  0.00    +0.000 A 
ATOM     14  S   UNL     1      -0.589  10.395  18.556  0.00  0.00    +0.000 S 
ATOM     15  H   UNL     1       1.375   8.905  21.184  0.00  0.00    +0.000 HD
BRANCH  12  16
ATOM     16  C   UNL     1      -1.584  12.862  21.476  0.00  0.00    +0.000 A 
ATOM     17  C   UNL     1      -1.080  12.988  22.778  0.00  0.00    +0.000 A 
ATOM     18  C   UNL     1      -1.561  13.985  23.631  0.00  0.00    +0.000 A 
ATOM     19  C   UNL     1      -2.552  14.862  23.192  0.00  0.00    +0.000 A 
ATOM     20  C   UNL     1      -3.061  14.745  21.900  0.00  0.00    +0.000 A 
ATOM     21  C   UNL     1      -2.579  13.750  21.046  0.00  0.00    +0.000 A 
ENDBRANCH  12  16
ENDBRANCH   8   9
ENDBRANCH   5   7
BRANCH   1  22
ATOM     22  O   UNL     1       4.142   3.547  16.848  0.00  0.00    +0.000 OA
BRANCH  22  23
ATOM     23  C   UNL     1       2.925   2.804  16.974  0.00  0.00    +0.000 C 
BRANCH  23  24
ATOM     24  C   UNL     1       3.105   1.757  18.069  0.00  0.00    +0.000 C 
BRANCH  24  30
ATOM     25  C   UNL     1       0.170   2.377  18.839  0.00  0.00    +0.000 C 
ATOM     26  C   UNL     1       1.350   2.515  19.731  0.00  0.00    +0.000 A 
ATOM     27  N   UNL     1       1.296   2.954  20.976  0.00  0.00    +0.000 NA
ATOM     28  C   UNL     1       2.587   2.987  21.431  0.00  0.00    +0.000 A 
ATOM     29  C   UNL     1       3.430   2.531  20.456  0.00  0.00    +0.000 A 
ATOM     30  N   UNL     1       2.654   2.221  19.369  0.00  0.00    +0.000 N 
BRANCH  29  31
ATOM     31  N   UNL     1       4.836   2.405  20.501  0.00  0.00    +0.000 N 
ATOM     32  O   UNL     1       5.287   1.509  21.221  0.00  0.00    +0.000 OA
ATOM     33  O   UNL     1       5.488   3.193  19.810  0.00  0.00    +0.000 OA
ENDBRANCH  29  31
ENDBRANCH  24  30
ENDBRANCH  23  24
ENDBRANCH  22  23
ENDBRANCH   1  22
TORSDOF 8
ENDMDL
