MODEL 1
REMARK VINA RESULT:      -6.1      0.000      0.000
REMARK  Name = 
REMARK  3 active torsions:
REMARK  status: ('A' for Active; 'I' for Inactive)
REMARK    1  A    between atoms: C_1  and  C_2
REMARK    2  A    between atoms: C_7  and  C_8
REMARK    3  A    between atoms: C_10  and  S_11
REMARK                            x       y       z     vdW  Elec       q    Type
REMARK                         _______ _______ _______ _____ _____    ______ ____
ROOT
ATOM      1  C   UNL     1       6.289   4.304  14.422  0.00  0.00    +0.000 C 
ATOM      2  C   UNL     1       5.459   4.826  15.556  0.00  0.00    +0.000 A 
ATOM      3  C   UNL     1       5.320   6.193  15.782  0.00  0.00    +0.000 A 
ATOM      4  C   UNL     1       4.531   6.646  16.843  0.00  0.00    +0.000 A 
ATOM      5  C   UNL     1       3.875   5.776  17.703  0.00  0.00    +0.000 A 
ATOM      6  N   UNL     1       3.152   6.302  18.704  0.00  0.00    +0.000 NA
ATOM      7  C   UNL     1       2.520   5.474  19.561  0.00  0.00    +0.000 A 
ATOM      8  C   UNL     1       1.741   6.103  20.678  0.00  0.00    +0.000 C 
ATOM      9  C   UNL     1       2.585   4.095  19.451  0.00  0.00    +0.000 A 
ATOM     10  C   UNL     1       3.330   3.539  18.409  0.00  0.00    +0.000 A 
ATOM     11  C   UNL     1       4.002   4.387  17.494  0.00  0.00    +0.000 A 
ATOM     12  C   UNL     1       4.790   3.935  16.402  0.00  0.00    +0.000 A 
ENDROOT
BRANCH  10  13
ATOM     13  S   UNL     1       3.400   1.747  18.292  0.00  0.00    +0.000 S 
ATOM     14  H   UNL     1       4.236   1.529  19.317  0.00  0.00    +0.000 HD
ENDBRANCH  10  13
TORSDOF 1
ENDMDL
MODEL 2
REMARK VINA RESULT:      -6.0      2.237      2.999
REMARK  Name = 
REMARK  3 active torsions:
REMARK  status: ('A' for Active; 'I' for Inactive)
REMARK    1  A    between atoms: C_1  and  C_2
REMARK    2  A    between atoms: C_7  and  C_8
REMARK    3  A    between atoms: C_10  and  S_11
REMARK                            x       y       z     vdW  Elec       q    Type
REMARK                         _______ _______ _______ _____ _____    ______ ____
ROOT
ATOM      1  C   UNL     1       5.316   5.994  15.535  0.00  0.00    +0.000 C 
ATOM      2  C   UNL     1       4.658   5.213  16.633  0.00  0.00    +0.000 A 
ATOM      3  C   UNL     1       4.812   3.833  16.733  0.00  0.00    +0.000 A 
ATOM      4  C   UNL     1       4.192   3.137  17.774  0.00  0.00    +0.000 A 
ATOM      5  C   UNL     1       3.407   3.773  18.726  0.00  0.00    +0.000 A 
ATOM      6  N   UNL     1       2.838   3.021  19.682  0.00  0.00    +0.000 NA
ATOM      7  C   UNL     1       2.058   3.617  20.607  0.00  0.00    +0.000 A 
ATOM      8  C   UNL     1       1.424   2.737  21.643  0.00  0.00    +0.000 C 
ATOM      9  C   UNL     1       1.819   4.981  20.615  0.00  0.00    +0.000 A 
ATOM     10  C   UNL     1       2.411   5.772  19.628  0.00  0.00    +0.000 A 
ATOM     11  C   UNL     1       3.236   5.171  18.645  0.00  0.00    +0.000 A 
ATOM     12  C   UNL     1       3.885   5.873  17.595  0.00  0.00    +0.000 A 
ENDROOT
BRANCH  10  13
ATOM     13  S   UNL     1       2.080   7.538  19.660  0.00  0.00    +0.000 S 
ATOM     14  H   UNL     1       0.871   7.487  20.234  0.00  0.00    +0.000 HD
ENDBRANCH  10  13
TORSDOF 1
ENDMDL
MODEL 3
REMARK VINA RESULT:      -6.0      2.226      4.924
REMARK  Name = 
REMARK  3 active torsions:
REMARK  status: ('A' for Active; 'I' for Inactive)
REMARK    1  A    between atoms: C_1  and  C_2
REMARK    2  A    between atoms: C_7  and  C_8
REMARK    3  A    between atoms: C_10  and  S_11
REMARK                            x       y       z     vdW  Elec       q    Type
REMARK                         _______ _______ _______ _____ _____    ______ ____
ROOT
ATOM      1  C   UNL     1       0.718   3.248  20.181  0.00  0.00    +0.000 C 
ATOM      2  C   UNL     1       1.855   3.382  19.213  0.00  0.00    +0.000 A 
ATOM      3  C   UNL     1       2.527   2.265  18.725  0.00  0.00    +0.000 A 
ATOM      4  C   UNL     1       3.577   2.425  17.817  0.00  0.00    +0.000 A 
ATOM      5  C   UNL     1       3.993   3.676  17.379  0.00  0.00    +0.000 A 
ATOM      6  N   UNL     1       5.020   3.734  16.517  0.00  0.00    +0.000 NA
ATOM      7  C   UNL     1       5.451   4.940  16.092  0.00  0.00    +0.000 A 
ATOM      8  C   UNL     1       6.616   4.960  15.147  0.00  0.00    +0.000 C 
ATOM      9  C   UNL     1       4.874   6.127  16.508  0.00  0.00    +0.000 A 
ATOM     10  C   UNL     1       3.801   6.076  17.400  0.00  0.00    +0.000 A 
ATOM     11  C   UNL     1       3.328   4.822  17.861  0.00  0.00    +0.000 A 
ATOM     12  C   UNL     1       2.250   4.649  18.769  0.00  0.00    +0.000 A 
ENDROOT
BRANCH  10  13
ATOM     13  S   UNL     1       3.073   7.633  17.926  0.00  0.00    +0.000 S 
ATOM     14  H   UNL     1       2.404   7.172  18.991  0.00  0.00    +0.000 HD
ENDBRANCH  10  13
TORSDOF 1
ENDMDL
MODEL 4
REMARK VINA RESULT:      -5.9      2.992      4.060
REMARK  Name = 
REMARK  3 active torsions:
REMARK  status: ('A' for Active; 'I' for Inactive)
REMARK    1  A    between atoms: C_1  and  C_2
REMARK    2  A    between atoms: C_7  and  C_8
REMARK    3  A    between atoms: C_10  and  S_11
REMARK                            x       y       z     vdW  Elec       q    Type
REMARK                         _______ _______ _______ _____ _____    ______ ____
ROOT
ATOM      1  C   UNL     1       5.186   2.818  11.823  0.00  0.00    +0.000 C 
ATOM      2  C   UNL     1       5.815   3.643  12.906  0.00  0.00    +0.000 A 
ATOM      3  C   UNL     1       6.992   4.352  12.686  0.00  0.00    +0.000 A 
ATOM      4  C   UNL     1       7.547   5.118  13.714  0.00  0.00    +0.000 A 
ATOM      5  C   UNL     1       6.967   5.197  14.974  0.00  0.00    +0.000 A 
ATOM      6  N   UNL     1       7.579   5.946  15.905  0.00  0.00    +0.000 NA
ATOM      7  C   UNL     1       7.042   6.023  17.140  0.00  0.00    +0.000 A 
ATOM      8  C   UNL     1       7.770   6.853  18.156  0.00  0.00    +0.000 C 
ATOM      9  C   UNL     1       5.878   5.360  17.490  0.00  0.00    +0.000 A 
ATOM     10  C   UNL     1       5.232   4.583  16.526  0.00  0.00    +0.000 A 
ATOM     11  C   UNL     1       5.775   4.487  15.221  0.00  0.00    +0.000 A 
ATOM     12  C   UNL     1       5.208   3.726  14.164  0.00  0.00    +0.000 A 
ENDROOT
BRANCH  10  13
ATOM     13  S   UNL     1       3.726   3.730  17.010  0.00  0.00    +0.000 S 
ATOM     14  H   UNL     1       2.943   4.161  16.011  0.00  0.00    +0.000 HD
ENDBRANCH  10  13
TORSDOF 1
ENDMDL
MODEL 5
REMARK VINA RESULT:      -5.8      2.579      3.442
REMARK  Name = 
REMARK  3 active torsions:
REMARK  status: ('A' for Active; 'I' for Inactive)
REMARK    1  A    between atoms: C_1  and  C_2
REMARK    2  A    between atoms: C_7  and  C_8
REMARK    3  A    between atoms: C_10  and  S_11
REMARK                            x       y       z     vdW  Elec       q    Type
REMARK                         _______ _______ _______ _____ _____    ______ ____
ROOT
ATOM      1  C   UNL     1       7.827   8.024  17.469  0.00  0.00    +0.000 C 
ATOM      2  C   UNL     1       6.914   6.835  17.500  0.00  0.00    +0.000 A 
ATOM      3  C   UNL     1       7.401   5.542  17.336  0.00  0.00    +0.000 A 
ATOM      4  C   UNL     1       6.524   4.456  17.379  0.00  0.00    +0.000 A 
ATOM      5  C   UNL     1       5.158   4.614  17.575  0.00  0.00    +0.000 A 
ATOM      6  N   UNL     1       4.390   3.514  17.588  0.00  0.00    +0.000 NA
ATOM      7  C   UNL     1       3.058   3.647  17.760  0.00  0.00    +0.000 A 
ATOM      8  C   UNL     1       2.234   2.393  17.745  0.00  0.00    +0.000 C 
ATOM      9  C   UNL     1       2.447   4.878  17.927  0.00  0.00    +0.000 A 
ATOM     10  C   UNL     1       3.239   6.028  17.921  0.00  0.00    +0.000 A 
ATOM     11  C   UNL     1       4.641   5.915  17.744  0.00  0.00    +0.000 A 
ATOM     12  C   UNL     1       5.542   7.012  17.716  0.00  0.00    +0.000 A 
ENDROOT
BRANCH  10  13
ATOM     13  S   UNL     1       2.419   7.612  18.136  0.00  0.00    +0.000 S 
ATOM     14  H   UNL     1       2.701   8.129  16.933  0.00  0.00    +0.000 HD
ENDBRANCH  10  13
TORSDOF 1
ENDMDL
MODEL 6
REMARK VINA RESULT:      -5.7      2.289      4.899
REMARK  Name = 
REMARK  3 active torsions:
REMARK  status: ('A' for Active; 'I' for Inactive)
REMARK    1  A    between atoms: C_1  and  C_2
REMARK    2  A    between atoms: C_7  and  C_8
REMARK    3  A    between atoms: C_10  and  S_11
REMARK                            x       y       z     vdW  Elec       q    Type
REMARK                         _______ _______ _______ _____ _____    ______ ____
ROOT
ATOM      1  C   UNL     1       2.375   4.430  21.038  0.00  0.00    +0.000 C 
ATOM      2  C   UNL     1       2.993   4.322  19.677  0.00  0.00    +0.000 A 
ATOM      3  C   UNL     1       2.272   3.839  18.589  0.00  0.00    +0.000 A 
ATOM      4  C   UNL     1       2.876   3.759  17.332  0.00  0.00    +0.000 A 
ATOM      5  C   UNL     1       4.194   4.141  17.118  0.00  0.00    +0.000 A 
ATOM      6  N   UNL     1       4.695   4.015  15.879  0.00  0.00    +0.000 NA
ATOM      7  C   UNL     1       5.979   4.365  15.653  0.00  0.00    +0.000 A 
ATOM      8  C   UNL     1       6.505   4.187  14.260  0.00  0.00    +0.000 C 
ATOM      9  C   UNL     1       6.806   4.852  16.651  0.00  0.00    +0.000 A 
ATOM     10  C   UNL     1       6.291   4.991  17.942  0.00  0.00    +0.000 A 
ATOM     11  C   UNL     1       4.945   4.633  18.205  0.00  0.00    +0.000 A 
ATOM     12  C   UNL     1       4.317   4.728  19.475  0.00  0.00    +0.000 A 
ENDROOT
BRANCH  10  13
ATOM     13  S   UNL     1       7.388   5.623  19.218  0.00  0.00    +0.000 S 
ATOM     14  H   UNL     1       6.566   5.460  20.263  0.00  0.00    +0.000 HD
ENDBRANCH  10  13
TORSDOF 1
ENDMDL
MODEL 7
REMARK VINA RESULT:      -5.7      2.314      4.907
REMARK  Name = 
REMARK  3 active torsions:
REMARK  status: ('A' for Active; 'I' for Inactive)
REMARK    1  A    between atoms: C_1  and  C_2
REMARK    2  A    between atoms: C_7  and  C_8
REMARK    3  A    between atoms: C_10  and  S_11
REMARK                            x       y       z     vdW  Elec       q    Type
REMARK                         _______ _______ _______ _____ _____    ______ ____
ROOT
ATOM      1  C   UNL     1       1.445   2.628  21.705  0.00  0.00    +0.000 C 
ATOM      2  C   UNL     1       2.212   3.194  20.549  0.00  0.00    +0.000 A 
ATOM      3  C   UNL     1       2.984   2.381  19.724  0.00  0.00    +0.000 A 
ATOM      4  C   UNL     1       3.680   2.940  18.649  0.00  0.00    +0.000 A 
ATOM      5  C   UNL     1       3.641   4.300  18.368  0.00  0.00    +0.000 A 
ATOM      6  N   UNL     1       4.354   4.750  17.323  0.00  0.00    +0.000 NA
ATOM      7  C   UNL     1       4.343   6.070  17.043  0.00  0.00    +0.000 A 
ATOM      8  C   UNL     1       5.171   6.533  15.881  0.00  0.00    +0.000 C 
ATOM      9  C   UNL     1       3.623   6.986  17.791  0.00  0.00    +0.000 A 
ATOM     10  C   UNL     1       2.874   6.525  18.876  0.00  0.00    +0.000 A 
ATOM     11  C   UNL     1       2.866   5.144  19.191  0.00  0.00    +0.000 A 
ATOM     12  C   UNL     1       2.148   4.564  20.269  0.00  0.00    +0.000 A 
ENDROOT
BRANCH  10  13
ATOM     13  S   UNL     1       1.951   7.737  19.831  0.00  0.00    +0.000 S 
ATOM     14  H   UNL     1       2.721   8.801  19.568  0.00  0.00    +0.000 HD
ENDBRANCH  10  13
TORSDOF 1
ENDMDL
MODEL 8
REMARK VINA RESULT:      -5.6      2.442      4.932
REMARK  Name = 
REMARK  3 active torsions:
REMARK  status: ('A' for Active; 'I' for Inactive)
REMARK    1  A    between atoms: C_1  and  C_2
REMARK    2  A    between atoms: C_7  and  C_8
REMARK    3  A    between atoms: C_10  and  S_11
REMARK                            x       y       z     vdW  Elec       q    Type
REMARK                         _______ _______ _______ _____ _____    ______ ____
ROOT
ATOM      1  C   UNL     1       1.123   3.098  21.101  0.00  0.00    +0.000 C 
ATOM      2  C   UNL     1       2.347   3.458  20.314  0.00  0.00    +0.000 A 
ATOM      3  C   UNL     1       3.429   2.588  20.218  0.00  0.00    +0.000 A 
ATOM      4  C   UNL     1       4.551   2.952  19.469  0.00  0.00    +0.000 A 
ATOM      5  C   UNL     1       4.638   4.171  18.810  0.00  0.00    +0.000 A 
ATOM      6  N   UNL     1       5.761   4.441  18.126  0.00  0.00    +0.000 NA
ATOM      7  C   UNL     1       5.873   5.626  17.492  0.00  0.00    +0.000 A 
ATOM      8  C   UNL     1       7.154   5.896  16.758  0.00  0.00    +0.000 C 
ATOM      9  C   UNL     1       4.872   6.583  17.515  0.00  0.00    +0.000 A 
ATOM     10  C   UNL     1       3.698   6.308  18.220  0.00  0.00    +0.000 A 
ATOM     11  C   UNL     1       3.554   5.069  18.893  0.00  0.00    +0.000 A 
ATOM     12  C   UNL     1       2.411   4.684  19.641  0.00  0.00    +0.000 A 
ENDROOT
BRANCH  10  13
ATOM     13  S   UNL     1       2.417   7.568  18.236  0.00  0.00    +0.000 S 
ATOM     14  H   UNL     1       1.711   7.099  19.274  0.00  0.00    +0.000 HD
ENDBRANCH  10  13
TORSDOF 1
ENDMDL
MODEL 9
REMARK VINA RESULT:      -5.6      2.313      4.267
REMARK  Name = 
REMARK  3 active torsions:
REMARK  status: ('A' for Active; 'I' for Inactive)
REMARK    1  A    between atoms: C_1  and  C_2
REMARK    2  A    between atoms: C_7  and  C_8
REMARK    3  A    between atoms: C_10  and  S_11
REMARK                            x       y       z     vdW  Elec       q    Type
REMARK                         _______ _______ _______ _____ _____    ______ ____
ROOT
ATOM      1  C   UNL     1       2.223   2.193  17.872  0.00  0.00    +0.000 C 
ATOM      2  C   UNL     1       3.239   3.283  18.030  0.00  0.00    +0.000 A 
ATOM      3  C   UNL     1       3.301   4.054  19.187  0.00  0.00    +0.000 A 
ATOM      4  C   UNL     1       4.267   5.057  19.306  0.00  0.00    +0.000 A 
ATOM      5  C   UNL     1       5.180   5.328  18.295  0.00  0.00    +0.000 A 
ATOM      6  N   UNL     1       6.063   6.321  18.491  0.00  0.00    +0.000 NA
ATOM      7  C   UNL     1       6.948   6.612  17.516  0.00  0.00    +0.000 A 
ATOM      8  C   UNL     1       7.901   7.743  17.767  0.00  0.00    +0.000 C 
ATOM      9  C   UNL     1       6.986   5.926  16.314  0.00  0.00    +0.000 A 
ATOM     10  C   UNL     1       6.075   4.888  16.104  0.00  0.00    +0.000 A 
ATOM     11  C   UNL     1       5.136   4.561  17.113  0.00  0.00    +0.000 A 
ATOM     12  C   UNL     1       4.164   3.532  17.009  0.00  0.00    +0.000 A 
ENDROOT
BRANCH  10  13
ATOM     13  S   UNL     1       6.146   4.017  14.533  0.00  0.00    +0.000 S 
ATOM     14  H   UNL     1       4.874   3.595  14.501  0.00  0.00    +0.000 HD
ENDBRANCH  10  13
TORSDOF 1
ENDMDL
