MODEL 1
REMARK VINA RESULT:      -6.5      0.000      0.000
REMARK  Name = 
REMARK  20 active torsions:
REMARK  status: ('A' for Active; 'I' for Inactive)
REMARK    1  A    between atoms: C_1  and  C_2
REMARK    2  A    between atoms: C_2  and  O_3
REMARK    3  A    between atoms: O_3  and  C_4
REMARK    4  A    between atoms: C_4  and  C_6
REMARK    5  A    between atoms: C_6  and  N_7
REMARK    6  A    between atoms: C_6  and  C_25
REMARK    7  A    between atoms: N_7  and  C_8
REMARK    8  A    between atoms: C_8  and  C_9
REMARK    9  A    between atoms: C_9  and  O_10
REMARK   10  A    between atoms: C_9  and  C_11
REMARK   11  A    between atoms: C_11  and  O_12
REMARK   12  A    between atoms: O_12  and  C_13
REMARK   13  A    between atoms: C_16  and  C_17
REMARK   14  A    between atoms: C_17  and  C_18
REMARK   15  A    between atoms: C_18  and  C_19
REMARK   16  A    between atoms: C_19  and  O_21
REMARK   17  A    between atoms: O_21  and  C_22
REMARK   18  A    between atoms: C_25  and  O_27
REMARK   19  A    between atoms: O_27  and  C_28
REMARK   20  A    between atoms: C_28  and  C_29
REMARK                            x       y       z     vdW  Elec       q    Type
REMARK                         _______ _______ _______ _____ _____    ______ ____
ROOT
ATOM      1  C   UNL     1       4.337   3.722  18.735  0.00  0.00    +0.000 C 
ENDROOT
BRANCH   1   2
ATOM      2  O   UNL     1       5.628   3.382  19.259  0.00  0.00    +0.000 OA
ATOM      3  H   UNL     1       5.810   4.006  19.985  0.00  0.00    +0.000 HD
ENDBRANCH   1   2
BRANCH   1   4
ATOM      4  C   UNL     1       3.876   5.069  19.316  0.00  0.00    +0.000 C 
BRANCH   4   5
ATOM      5  O   UNL     1       3.811   6.035  18.257  0.00  0.00    +0.000 OA
BRANCH   5   6
ATOM      6  C   UNL     1       2.982   7.104  18.465  0.00  0.00    +0.000 A 
ATOM      7  C   UNL     1       2.368   7.154  19.718  0.00  0.00    +0.000 A 
ATOM      8  C   UNL     1       1.504   8.200  20.045  0.00  0.00    +0.000 A 
ATOM      9  C   UNL     1       1.264   9.239  19.137  0.00  0.00    +0.000 A 
ATOM     10  C   UNL     1       1.895   9.193  17.887  0.00  0.00    +0.000 A 
ATOM     11  C   UNL     1       2.752   8.136  17.555  0.00  0.00    +0.000 A 
BRANCH   9  12
ATOM     12  C   UNL     1       0.316  10.367  19.475  0.00  0.00    +0.000 C 
BRANCH  12  13
ATOM     13  C   UNL     1       0.416  10.810  20.935  0.00  0.00    +0.000 C 
BRANCH  13  14
ATOM     14  C   UNL     1       0.458  12.311  21.053  0.00  0.00    +0.000 C 
ATOM     15  O   UNL     1      -0.514  13.049  21.049  0.00  0.00    +0.000 OA
BRANCH  14  16
ATOM     16  O   UNL     1       1.754  12.726  21.174  0.00  0.00    +0.000 OA
ATOM     17  C   UNL     1       2.190  13.594  20.129  0.00  0.00    +0.000 C 
ENDBRANCH  14  16
ENDBRANCH  13  14
ENDBRANCH  12  13
ENDBRANCH   9  12
ENDBRANCH   5   6
ENDBRANCH   4   5
ENDBRANCH   1   4
BRANCH   1  18
ATOM     18  C   UNL     1       4.397   3.790  17.193  0.00  0.00    +0.000 C 
BRANCH  18  19
ATOM     19  N   UNL     1       5.777   3.741  16.697  0.00  0.00    +0.000 NA
ATOM     20  H   UNL     1       6.411   3.537  17.480  0.00  0.00    +0.000 HD
BRANCH  19  21
ATOM     21  C   UNL     1       6.199   5.031  16.063  0.00  0.00    +0.000 C 
BRANCH  21  22
ATOM     22  C   UNL     1       6.956   4.760  14.771  0.00  0.00    +0.000 C 
ATOM     23  O   UNL     1       7.815   5.482  14.281  0.00  0.00    +0.000 OA
BRANCH  22  24
ATOM     24  O   UNL     1       6.441   3.642  14.176  0.00  0.00    +0.000 OA
BRANCH  24  26
ATOM     25  C   UNL     1       6.359   2.993  11.890  0.00  0.00    +0.000 C 
ATOM     26  C   UNL     1       5.730   3.874  12.953  0.00  0.00    +0.000 C 
ENDBRANCH  24  26
ENDBRANCH  22  24
ENDBRANCH  21  22
BRANCH  21  27
ATOM     27  C   UNL     1       7.112   5.833  16.990  0.00  0.00    +0.000 C 
ATOM     28  O   UNL     1       7.663   5.384  17.989  0.00  0.00    +0.000 OA
BRANCH  27  29
ATOM     29  O   UNL     1       7.118   7.150  16.625  0.00  0.00    +0.000 OA
BRANCH  29  30
ATOM     30  C   UNL     1       7.031   8.097  17.702  0.00  0.00    +0.000 C 
ATOM     31  C   UNL     1       8.360   8.775  17.964  0.00  0.00    +0.000 C 
ENDBRANCH  29  30
ENDBRANCH  27  29
ENDBRANCH  21  27
ENDBRANCH  19  21
ENDBRANCH  18  19
ENDBRANCH   1  18
TORSDOF 17
ENDMDL
MODEL 2
REMARK VINA RESULT:      -6.4      1.287      3.605
REMARK  Name = 
REMARK  20 active torsions:
REMARK  status: ('A' for Active; 'I' for Inactive)
REMARK    1  A    between atoms: C_1  and  C_2
REMARK    2  A    between atoms: C_2  and  O_3
REMARK    3  A    between atoms: O_3  and  C_4
REMARK    4  A    between atoms: C_4  and  C_6
REMARK    5  A    between atoms: C_6  and  N_7
REMARK    6  A    between atoms: C_6  and  C_25
REMARK    7  A    between atoms: N_7  and  C_8
REMARK    8  A    between atoms: C_8  and  C_9
REMARK    9  A    between atoms: C_9  and  O_10
REMARK   10  A    between atoms: C_9  and  C_11
REMARK   11  A    between atoms: C_11  and  O_12
REMARK   12  A    between atoms: O_12  and  C_13
REMARK   13  A    between atoms: C_16  and  C_17
REMARK   14  A    between atoms: C_17  and  C_18
REMARK   15  A    between atoms: C_18  and  C_19
REMARK   16  A    between atoms: C_19  and  O_21
REMARK   17  A    between atoms: O_21  and  C_22
REMARK   18  A    between atoms: C_25  and  O_27
REMARK   19  A    between atoms: O_27  and  C_28
REMARK   20  A    between atoms: C_28  and  C_29
REMARK                            x       y       z     vdW  Elec       q    Type
REMARK                         _______ _______ _______ _____ _____    ______ ____
ROOT
ATOM      1  C   UNL     1       3.108   3.625  17.800  0.00  0.00    +0.000 C 
ENDROOT
BRANCH   1   2
ATOM      2  O   UNL     1       2.759   2.358  18.375  0.00  0.00    +0.000 OA
ATOM      3  H   UNL     1       3.487   2.111  18.974  0.00  0.00    +0.000 HD
ENDBRANCH   1   2
BRANCH   1   4
ATOM      4  C   UNL     1       2.776   4.756  18.787  0.00  0.00    +0.000 C 
BRANCH   4   5
ATOM      5  O   UNL     1       3.141   6.011  18.196  0.00  0.00    +0.000 OA
BRANCH   5   6
ATOM      6  C   UNL     1       2.512   7.119  18.695  0.00  0.00    +0.000 A 
ATOM      7  C   UNL     1       2.261   8.136  17.771  0.00  0.00    +0.000 A 
ATOM      8  C   UNL     1       1.621   9.312  18.164  0.00  0.00    +0.000 A 
ATOM      9  C   UNL     1       1.186   9.482  19.484  0.00  0.00    +0.000 A 
ATOM     10  C   UNL     1       1.425   8.452  20.404  0.00  0.00    +0.000 A 
ATOM     11  C   UNL     1       2.078   7.278  20.012  0.00  0.00    +0.000 A 
BRANCH   9  12
ATOM     12  C   UNL     1       0.508  10.759  19.924  0.00  0.00    +0.000 C 
BRANCH  12  13
ATOM     13  C   UNL     1       0.499  11.832  18.834  0.00  0.00    +0.000 C 
BRANCH  13  14
ATOM     14  C   UNL     1       1.309  13.036  19.241  0.00  0.00    +0.000 C 
ATOM     15  O   UNL     1       1.479  14.036  18.563  0.00  0.00    +0.000 OA
BRANCH  14  16
ATOM     16  O   UNL     1       1.819  12.844  20.493  0.00  0.00    +0.000 OA
ATOM     17  C   UNL     1       2.655  13.905  20.952  0.00  0.00    +0.000 C 
ENDBRANCH  14  16
ENDBRANCH  13  14
ENDBRANCH  12  13
ENDBRANCH   9  12
ENDBRANCH   5   6
ENDBRANCH   4   5
ENDBRANCH   1   4
BRANCH   1  18
ATOM     18  C   UNL     1       4.610   3.643  17.441  0.00  0.00    +0.000 C 
BRANCH  18  19
ATOM     19  N   UNL     1       4.848   4.221  16.113  0.00  0.00    +0.000 NA
ATOM     20  H   UNL     1       4.205   3.788  15.436  0.00  0.00    +0.000 HD
BRANCH  19  21
ATOM     21  C   UNL     1       6.254   4.004  15.643  0.00  0.00    +0.000 C 
BRANCH  21  22
ATOM     22  C   UNL     1       7.218   4.847  16.464  0.00  0.00    +0.000 C 
ATOM     23  O   UNL     1       8.089   4.416  17.210  0.00  0.00    +0.000 OA
BRANCH  22  24
ATOM     24  O   UNL     1       6.883   6.167  16.334  0.00  0.00    +0.000 OA
BRANCH  24  26
ATOM     25  C   UNL     1       7.793   7.971  17.586  0.00  0.00    +0.000 C 
ATOM     26  C   UNL     1       6.736   6.883  17.567  0.00  0.00    +0.000 C 
ENDBRANCH  24  26
ENDBRANCH  22  24
ENDBRANCH  21  22
BRANCH  21  27
ATOM     27  C   UNL     1       6.415   4.393  14.174  0.00  0.00    +0.000 C 
ATOM     28  O   UNL     1       7.337   5.065  13.726  0.00  0.00    +0.000 OA
BRANCH  27  29
ATOM     29  O   UNL     1       5.319   4.002  13.457  0.00  0.00    +0.000 OA
BRANCH  29  30
ATOM     30  C   UNL     1       5.590   3.310  12.228  0.00  0.00    +0.000 C 
ATOM     31  C   UNL     1       4.357   3.210  11.354  0.00  0.00    +0.000 C 
ENDBRANCH  29  30
ENDBRANCH  27  29
ENDBRANCH  21  27
ENDBRANCH  19  21
ENDBRANCH  18  19
ENDBRANCH   1  18
TORSDOF 17
ENDMDL
MODEL 3
REMARK VINA RESULT:      -6.2      1.416      1.762
REMARK  Name = 
REMARK  20 active torsions:
REMARK  status: ('A' for Active; 'I' for Inactive)
REMARK    1  A    between atoms: C_1  and  C_2
REMARK    2  A    between atoms: C_2  and  O_3
REMARK    3  A    between atoms: O_3  and  C_4
REMARK    4  A    between atoms: C_4  and  C_6
REMARK    5  A    between atoms: C_6  and  N_7
REMARK    6  A    between atoms: C_6  and  C_25
REMARK    7  A    between atoms: N_7  and  C_8
REMARK    8  A    between atoms: C_8  and  C_9
REMARK    9  A    between atoms: C_9  and  O_10
REMARK   10  A    between atoms: C_9  and  C_11
REMARK   11  A    between atoms: C_11  and  O_12
REMARK   12  A    between atoms: O_12  and  C_13
REMARK   13  A    between atoms: C_16  and  C_17
REMARK   14  A    between atoms: C_17  and  C_18
REMARK   15  A    between atoms: C_18  and  C_19
REMARK   16  A    between atoms: C_19  and  O_21
REMARK   17  A    between atoms: O_21  and  C_22
REMARK   18  A    between atoms: C_25  and  O_27
REMARK   19  A    between atoms: O_27  and  C_28
REMARK   20  A    between atoms: C_28  and  C_29
REMARK                            x       y       z     vdW  Elec       q    Type
REMARK                         _______ _______ _______ _____ _____    ______ ____
ROOT
ATOM      1  C   UNL     1       3.896   2.782  18.758  0.00  0.00    +0.000 C 
ENDROOT
BRANCH   1   2
ATOM      2  O   UNL     1       4.852   3.339  19.672  0.00  0.00    +0.000 OA
ATOM      3  H   UNL     1       4.358   3.930  20.269  0.00  0.00    +0.000 HD
ENDBRANCH   1   2
BRANCH   1   4
ATOM      4  C   UNL     1       2.485   3.287  19.106  0.00  0.00    +0.000 C 
BRANCH   4   5
ATOM      5  O   UNL     1       2.598   4.391  20.016  0.00  0.00    +0.000 OA
BRANCH   5   6
ATOM      6  C   UNL     1       2.382   5.634  19.487  0.00  0.00    +0.000 A 
ATOM      7  C   UNL     1       2.163   6.654  20.416  0.00  0.00    +0.000 A 
ATOM      8  C   UNL     1       1.935   7.963  19.993  0.00  0.00    +0.000 A 
ATOM      9  C   UNL     1       1.955   8.289  18.631  0.00  0.00    +0.000 A 
ATOM     10  C   UNL     1       2.191   7.265  17.703  0.00  0.00    +0.000 A 
ATOM     11  C   UNL     1       2.407   5.949  18.127  0.00  0.00    +0.000 A 
BRANCH   9  12
ATOM     12  C   UNL     1       1.690   9.701  18.161  0.00  0.00    +0.000 C 
BRANCH  12  13
ATOM     13  C   UNL     1       0.737  10.464  19.082  0.00  0.00    +0.000 C 
BRANCH  13  14
ATOM     14  C   UNL     1       1.273  11.830  19.420  0.00  0.00    +0.000 C 
ATOM     15  O   UNL     1       0.927  12.511  20.372  0.00  0.00    +0.000 OA
BRANCH  14  16
ATOM     16  O   UNL     1       2.218  12.192  18.501  0.00  0.00    +0.000 OA
ATOM     17  C   UNL     1       2.450  13.598  18.425  0.00  0.00    +0.000 C 
ENDBRANCH  14  16
ENDBRANCH  13  14
ENDBRANCH  12  13
ENDBRANCH   9  12
ENDBRANCH   5   6
ENDBRANCH   4   5
ENDBRANCH   1   4
BRANCH   1  18
ATOM     18  C   UNL     1       4.267   3.167  17.310  0.00  0.00    +0.000 C 
BRANCH  18  19
ATOM     19  N   UNL     1       5.447   4.037  17.260  0.00  0.00    +0.000 NA
ATOM     20  H   UNL     1       5.378   4.744  18.004  0.00  0.00    +0.000 HD
BRANCH  19  21
ATOM     21  C   UNL     1       5.579   4.740  15.944  0.00  0.00    +0.000 C 
BRANCH  21  22
ATOM     22  C   UNL     1       6.963   4.501  15.357  0.00  0.00    +0.000 C 
ATOM     23  O   UNL     1       8.001   4.383  15.996  0.00  0.00    +0.000 OA
BRANCH  22  24
ATOM     24  O   UNL     1       6.886   4.560  13.992  0.00  0.00    +0.000 OA
BRANCH  24  26
ATOM     25  C   UNL     1       6.228   3.310  12.080  0.00  0.00    +0.000 C 
ATOM     26  C   UNL     1       5.770   3.870  13.413  0.00  0.00    +0.000 C 
ENDBRANCH  24  26
ENDBRANCH  22  24
ENDBRANCH  21  22
BRANCH  21  27
ATOM     27  C   UNL     1       5.381   6.247  16.096  0.00  0.00    +0.000 C 
ATOM     28  O   UNL     1       5.045   7.003  15.191  0.00  0.00    +0.000 OA
BRANCH  27  29
ATOM     29  O   UNL     1       5.763   6.652  17.344  0.00  0.00    +0.000 OA
BRANCH  29  30
ATOM     30  C   UNL     1       6.964   7.437  17.406  0.00  0.00    +0.000 C 
ATOM     31  C   UNL     1       7.935   6.900  18.439  0.00  0.00    +0.000 C 
ENDBRANCH  29  30
ENDBRANCH  27  29
ENDBRANCH  21  27
ENDBRANCH  19  21
ENDBRANCH  18  19
ENDBRANCH   1  18
TORSDOF 17
ENDMDL
MODEL 4
REMARK VINA RESULT:      -6.1      1.362      3.799
REMARK  Name = 
REMARK  20 active torsions:
REMARK  status: ('A' for Active; 'I' for Inactive)
REMARK    1  A    between atoms: C_1  and  C_2
REMARK    2  A    between atoms: C_2  and  O_3
REMARK    3  A    between atoms: O_3  and  C_4
REMARK    4  A    between atoms: C_4  and  C_6
REMARK    5  A    between atoms: C_6  and  N_7
REMARK    6  A    between atoms: C_6  and  C_25
REMARK    7  A    between atoms: N_7  and  C_8
REMARK    8  A    between atoms: C_8  and  C_9
REMARK    9  A    between atoms: C_9  and  O_10
REMARK   10  A    between atoms: C_9  and  C_11
REMARK   11  A    between atoms: C_11  and  O_12
REMARK   12  A    between atoms: O_12  and  C_13
REMARK   13  A    between atoms: C_16  and  C_17
REMARK   14  A    between atoms: C_17  and  C_18
REMARK   15  A    between atoms: C_18  and  C_19
REMARK   16  A    between atoms: C_19  and  O_21
REMARK   17  A    between atoms: O_21  and  C_22
REMARK   18  A    between atoms: C_25  and  O_27
REMARK   19  A    between atoms: O_27  and  C_28
REMARK   20  A    between atoms: C_28  and  C_29
REMARK                            x       y       z     vdW  Elec       q    Type
REMARK                         _______ _______ _______ _____ _____    ______ ____
ROOT
ATOM      1  C   UNL     1       4.532   3.185  18.236  0.00  0.00    +0.000 C 
ENDROOT
BRANCH   1   2
ATOM      2  O   UNL     1       5.279   4.227  18.881  0.00  0.00    +0.000 OA
ATOM      3  H   UNL     1       4.712   5.019  18.882  0.00  0.00    +0.000 HD
ENDBRANCH   1   2
BRANCH   1   4
ATOM      4  C   UNL     1       3.215   2.944  18.991  0.00  0.00    +0.000 C 
BRANCH   4   5
ATOM      5  O   UNL     1       2.213   3.830  18.474  0.00  0.00    +0.000 OA
BRANCH   5   6
ATOM      6  C   UNL     1       2.020   4.994  19.167  0.00  0.00    +0.000 A 
ATOM      7  C   UNL     1       2.310   6.167  18.466  0.00  0.00    +0.000 A 
ATOM      8  C   UNL     1       2.149   7.414  19.070  0.00  0.00    +0.000 A 
ATOM      9  C   UNL     1       1.658   7.517  20.378  0.00  0.00    +0.000 A 
ATOM     10  C   UNL     1       1.353   6.338  21.071  0.00  0.00    +0.000 A 
ATOM     11  C   UNL     1       1.527   5.087  20.469  0.00  0.00    +0.000 A 
BRANCH   9  12
ATOM     12  C   UNL     1       1.497   8.863  21.047  0.00  0.00    +0.000 C 
BRANCH  12  13
ATOM     13  C   UNL     1       0.868   9.911  20.128  0.00  0.00    +0.000 C 
BRANCH  13  14
ATOM     14  C   UNL     1       0.297  11.061  20.916  0.00  0.00    +0.000 C 
ATOM     15  O   UNL     1       0.364  11.192  22.128  0.00  0.00    +0.000 OA
BRANCH  14  16
ATOM     16  O   UNL     1      -0.304  11.946  20.066  0.00  0.00    +0.000 OA
ATOM     17  C   UNL     1      -1.685  12.176  20.342  0.00  0.00    +0.000 C 
ENDBRANCH  14  16
ENDBRANCH  13  14
ENDBRANCH  12  13
ENDBRANCH   9  12
ENDBRANCH   5   6
ENDBRANCH   4   5
ENDBRANCH   1   4
BRANCH   1  18
ATOM     18  C   UNL     1       4.252   3.572  16.767  0.00  0.00    +0.000 C 
BRANCH  18  19
ATOM     19  N   UNL     1       5.115   4.670  16.316  0.00  0.00    +0.000 NA
ATOM     20  H   UNL     1       4.670   5.143  15.519  0.00  0.00    +0.000 HD
BRANCH  19  21
ATOM     21  C   UNL     1       6.469   4.189  15.893  0.00  0.00    +0.000 C 
BRANCH  21  22
ATOM     22  C   UNL     1       7.548   4.834  16.751  0.00  0.00    +0.000 C 
ATOM     23  O   UNL     1       8.312   4.243  17.504  0.00  0.00    +0.000 OA
BRANCH  22  24
ATOM     24  O   UNL     1       7.452   6.195  16.643  0.00  0.00    +0.000 OA
BRANCH  24  26
ATOM     25  C   UNL     1       7.984   8.262  17.691  0.00  0.00    +0.000 C 
ATOM     26  C   UNL     1       7.347   6.899  17.888  0.00  0.00    +0.000 C 
ENDBRANCH  24  26
ENDBRANCH  22  24
ENDBRANCH  21  22
BRANCH  21  27
ATOM     27  C   UNL     1       6.752   4.539  14.433  0.00  0.00    +0.000 C 
ATOM     28  O   UNL     1       7.676   5.247  14.049  0.00  0.00    +0.000 OA
BRANCH  27  29
ATOM     29  O   UNL     1       5.752   4.065  13.630  0.00  0.00    +0.000 OA
BRANCH  29  30
ATOM     30  C   UNL     1       6.175   3.455  12.400  0.00  0.00    +0.000 C 
ATOM     31  C   UNL     1       5.006   2.878  11.627  0.00  0.00    +0.000 C 
ENDBRANCH  29  30
ENDBRANCH  27  29
ENDBRANCH  21  27
ENDBRANCH  19  21
ENDBRANCH  18  19
ENDBRANCH   1  18
TORSDOF 17
ENDMDL
MODEL 5
REMARK VINA RESULT:      -6.0      1.899      3.662
REMARK  Name = 
REMARK  20 active torsions:
REMARK  status: ('A' for Active; 'I' for Inactive)
REMARK    1  A    between atoms: C_1  and  C_2
REMARK    2  A    between atoms: C_2  and  O_3
REMARK    3  A    between atoms: O_3  and  C_4
REMARK    4  A    between atoms: C_4  and  C_6
REMARK    5  A    between atoms: C_6  and  N_7
REMARK    6  A    between atoms: C_6  and  C_25
REMARK    7  A    between atoms: N_7  and  C_8
REMARK    8  A    between atoms: C_8  and  C_9
REMARK    9  A    between atoms: C_9  and  O_10
REMARK   10  A    between atoms: C_9  and  C_11
REMARK   11  A    between atoms: C_11  and  O_12
REMARK   12  A    between atoms: O_12  and  C_13
REMARK   13  A    between atoms: C_16  and  C_17
REMARK   14  A    between atoms: C_17  and  C_18
REMARK   15  A    between atoms: C_18  and  C_19
REMARK   16  A    between atoms: C_19  and  O_21
REMARK   17  A    between atoms: O_21  and  C_22
REMARK   18  A    between atoms: C_25  and  O_27
REMARK   19  A    between atoms: O_27  and  C_28
REMARK   20  A    between atoms: C_28  and  C_29
REMARK                            x       y       z     vdW  Elec       q    Type
REMARK                         _______ _______ _______ _____ _____    ______ ____
ROOT
ATOM      1  C   UNL     1       4.212   3.321  18.337  0.00  0.00    +0.000 C 
ENDROOT
BRANCH   1   2
ATOM      2  O   UNL     1       5.188   3.290  19.388  0.00  0.00    +0.000 OA
ATOM      3  H   UNL     1       6.042   3.072  18.971  0.00  0.00    +0.000 HD
ENDBRANCH   1   2
BRANCH   1   4
ATOM      4  C   UNL     1       2.922   3.989  18.842  0.00  0.00    +0.000 C 
BRANCH   4   5
ATOM      5  O   UNL     1       3.271   5.085  19.699  0.00  0.00    +0.000 OA
BRANCH   5   6
ATOM      6  C   UNL     1       2.728   6.299  19.378  0.00  0.00    +0.000 A 
ATOM      7  C   UNL     1       2.077   6.962  20.421  0.00  0.00    +0.000 A 
ATOM      8  C   UNL     1       1.488   8.209  20.212  0.00  0.00    +0.000 A 
ATOM      9  C   UNL     1       1.569   8.838  18.964  0.00  0.00    +0.000 A 
ATOM     10  C   UNL     1       2.238   8.177  17.924  0.00  0.00    +0.000 A 
ATOM     11  C   UNL     1       2.817   6.920  18.131  0.00  0.00    +0.000 A 
BRANCH   9  12
ATOM     12  C   UNL     1       0.918  10.181  18.722  0.00  0.00    +0.000 C 
BRANCH  12  13
ATOM     13  C   UNL     1      -0.516  10.250  19.251  0.00  0.00    +0.000 C 
BRANCH  13  14
ATOM     14  C   UNL     1      -1.502  10.481  18.136  0.00  0.00    +0.000 C 
ATOM     15  O   UNL     1      -1.549   9.853  17.091  0.00  0.00    +0.000 OA
BRANCH  14  16
ATOM     16  O   UNL     1      -2.348  11.499  18.476  0.00  0.00    +0.000 OA
ATOM     17  C   UNL     1      -3.708  11.278  18.102  0.00  0.00    +0.000 C 
ENDBRANCH  14  16
ENDBRANCH  13  14
ENDBRANCH  12  13
ENDBRANCH   9  12
ENDBRANCH   5   6
ENDBRANCH   4   5
ENDBRANCH   1   4
BRANCH   1  18
ATOM     18  C   UNL     1       4.776   4.084  17.118  0.00  0.00    +0.000 C 
BRANCH  18  19
ATOM     19  N   UNL     1       6.243   4.057  17.087  0.00  0.00    +0.000 NA
ATOM     20  H   UNL     1       6.604   4.222  18.036  0.00  0.00    +0.000 HD
BRANCH  19  21
ATOM     21  C   UNL     1       6.810   5.098  16.172  0.00  0.00    +0.000 C 
BRANCH  21  22
ATOM     22  C   UNL     1       5.970   6.366  16.232  0.00  0.00    +0.000 C 
ATOM     23  O   UNL     1       5.240   6.783  15.342  0.00  0.00    +0.000 OA
BRANCH  22  24
ATOM     24  O   UNL     1       6.250   7.034  17.392  0.00  0.00    +0.000 OA
BRANCH  24  26
ATOM     25  C   UNL     1       8.252   7.349  18.636  0.00  0.00    +0.000 C 
ATOM     26  C   UNL     1       7.485   7.762  17.393  0.00  0.00    +0.000 C 
ENDBRANCH  24  26
ENDBRANCH  22  24
ENDBRANCH  21  22
BRANCH  21  27
ATOM     27  C   UNL     1       6.833   4.612  14.724  0.00  0.00    +0.000 C 
ATOM     28  O   UNL     1       6.226   3.633  14.304  0.00  0.00    +0.000 OA
BRANCH  27  29
ATOM     29  O   UNL     1       7.732   5.340  13.994  0.00  0.00    +0.000 OA
BRANCH  29  30
ATOM     30  C   UNL     1       7.725   5.102  12.578  0.00  0.00    +0.000 C 
ATOM     31  C   UNL     1       8.263   6.289  11.805  0.00  0.00    +0.000 C 
ENDBRANCH  29  30
ENDBRANCH  27  29
ENDBRANCH  21  27
ENDBRANCH  19  21
ENDBRANCH  18  19
ENDBRANCH   1  18
TORSDOF 17
ENDMDL
MODEL 6
REMARK VINA RESULT:      -6.0      1.405      3.686
REMARK  Name = 
REMARK  20 active torsions:
REMARK  status: ('A' for Active; 'I' for Inactive)
REMARK    1  A    between atoms: C_1  and  C_2
REMARK    2  A    between atoms: C_2  and  O_3
REMARK    3  A    between atoms: O_3  and  C_4
REMARK    4  A    between atoms: C_4  and  C_6
REMARK    5  A    between atoms: C_6  and  N_7
REMARK    6  A    between atoms: C_6  and  C_25
REMARK    7  A    between atoms: N_7  and  C_8
REMARK    8  A    between atoms: C_8  and  C_9
REMARK    9  A    between atoms: C_9  and  O_10
REMARK   10  A    between atoms: C_9  and  C_11
REMARK   11  A    between atoms: C_11  and  O_12
REMARK   12  A    between atoms: O_12  and  C_13
REMARK   13  A    between atoms: C_16  and  C_17
REMARK   14  A    between atoms: C_17  and  C_18
REMARK   15  A    between atoms: C_18  and  C_19
REMARK   16  A    between atoms: C_19  and  O_21
REMARK   17  A    between atoms: O_21  and  C_22
REMARK   18  A    between atoms: C_25  and  O_27
REMARK   19  A    between atoms: O_27  and  C_28
REMARK   20  A    between atoms: C_28  and  C_29
REMARK                            x       y       z     vdW  Elec       q    Type
REMARK                         _______ _______ _______ _____ _____    ______ ____
ROOT
ATOM      1  C   UNL     1       3.133   3.076  17.619  0.00  0.00    +0.000 C 
ENDROOT
BRANCH   1   2
ATOM      2  O   UNL     1       3.156   1.723  18.094  0.00  0.00    +0.000 OA
ATOM      3  H   UNL     1       3.741   1.710  18.874  0.00  0.00    +0.000 HD
ENDBRANCH   1   2
BRANCH   1   4
ATOM      4  C   UNL     1       2.217   3.929  18.513  0.00  0.00    +0.000 C 
BRANCH   4   5
ATOM      5  O   UNL     1       3.022   4.861  19.249  0.00  0.00    +0.000 OA
BRANCH   5   6
ATOM      6  C   UNL     1       2.560   6.147  19.302  0.00  0.00    +0.000 A 
ATOM      7  C   UNL     1       2.621   6.859  18.102  0.00  0.00    +0.000 A 
ATOM      8  C   UNL     1       2.175   8.179  18.035  0.00  0.00    +0.000 A 
ATOM      9  C   UNL     1       1.624   8.805  19.159  0.00  0.00    +0.000 A 
ATOM     10  C   UNL     1       1.549   8.082  20.358  0.00  0.00    +0.000 A 
ATOM     11  C   UNL     1       2.009   6.762  20.428  0.00  0.00    +0.000 A 
BRANCH   9  12
ATOM     12  C   UNL     1       1.154  10.241  19.102  0.00  0.00    +0.000 C 
BRANCH  12  13
ATOM     13  C   UNL     1       0.735  10.784  20.469  0.00  0.00    +0.000 C 
BRANCH  13  14
ATOM     14  C   UNL     1       0.365  12.243  20.391  0.00  0.00    +0.000 C 
ATOM     15  O   UNL     1       1.112  13.145  20.051  0.00  0.00    +0.000 OA
BRANCH  14  16
ATOM     16  O   UNL     1      -0.943  12.404  20.752  0.00  0.00    +0.000 OA
ATOM     17  C   UNL     1      -1.786  12.873  19.700  0.00  0.00    +0.000 C 
ENDBRANCH  14  16
ENDBRANCH  13  14
ENDBRANCH  12  13
ENDBRANCH   9  12
ENDBRANCH   5   6
ENDBRANCH   4   5
ENDBRANCH   1   4
BRANCH   1  18
ATOM     18  C   UNL     1       4.566   3.654  17.605  0.00  0.00    +0.000 C 
BRANCH  18  19
ATOM     19  N   UNL     1       4.890   4.279  16.318  0.00  0.00    +0.000 NA
ATOM     20  H   UNL     1       4.244   3.929  15.599  0.00  0.00    +0.000 HD
BRANCH  19  21
ATOM     21  C   UNL     1       6.293   3.985  15.882  0.00  0.00    +0.000 C 
BRANCH  21  22
ATOM     22  C   UNL     1       7.287   4.632  16.836  0.00  0.00    +0.000 C 
ATOM     23  O   UNL     1       8.298   4.105  17.282  0.00  0.00    +0.000 OA
BRANCH  22  24
ATOM     24  O   UNL     1       6.811   5.857  17.217  0.00  0.00    +0.000 OA
BRANCH  24  26
ATOM     25  C   UNL     1       7.336   5.851  19.535  0.00  0.00    +0.000 C 
ATOM     26  C   UNL     1       7.595   6.536  18.206  0.00  0.00    +0.000 C 
ENDBRANCH  24  26
ENDBRANCH  22  24
ENDBRANCH  21  22
BRANCH  21  27
ATOM     27  C   UNL     1       6.564   4.524  14.478  0.00  0.00    +0.000 C 
ATOM     28  O   UNL     1       7.530   5.212  14.167  0.00  0.00    +0.000 OA
BRANCH  27  29
ATOM     29  O   UNL     1       5.511   4.245  13.652  0.00  0.00    +0.000 OA
BRANCH  29  30
ATOM     30  C   UNL     1       5.816   3.447  12.498  0.00  0.00    +0.000 C 
ATOM     31  C   UNL     1       4.601   3.250  11.613  0.00  0.00    +0.000 C 
ENDBRANCH  29  30
ENDBRANCH  27  29
ENDBRANCH  21  27
ENDBRANCH  19  21
ENDBRANCH  18  19
ENDBRANCH   1  18
TORSDOF 17
ENDMDL
MODEL 7
REMARK VINA RESULT:      -5.9      1.328      3.734
REMARK  Name = 
REMARK  20 active torsions:
REMARK  status: ('A' for Active; 'I' for Inactive)
REMARK    1  A    between atoms: C_1  and  C_2
REMARK    2  A    between atoms: C_2  and  O_3
REMARK    3  A    between atoms: O_3  and  C_4
REMARK    4  A    between atoms: C_4  and  C_6
REMARK    5  A    between atoms: C_6  and  N_7
REMARK    6  A    between atoms: C_6  and  C_25
REMARK    7  A    between atoms: N_7  and  C_8
REMARK    8  A    between atoms: C_8  and  C_9
REMARK    9  A    between atoms: C_9  and  O_10
REMARK   10  A    between atoms: C_9  and  C_11
REMARK   11  A    between atoms: C_11  and  O_12
REMARK   12  A    between atoms: O_12  and  C_13
REMARK   13  A    between atoms: C_16  and  C_17
REMARK   14  A    between atoms: C_17  and  C_18
REMARK   15  A    between atoms: C_18  and  C_19
REMARK   16  A    between atoms: C_19  and  O_21
REMARK   17  A    between atoms: O_21  and  C_22
REMARK   18  A    between atoms: C_25  and  O_27
REMARK   19  A    between atoms: O_27  and  C_28
REMARK   20  A    between atoms: C_28  and  C_29
REMARK                            x       y       z     vdW  Elec       q    Type
REMARK                         _______ _______ _______ _____ _____    ______ ____
ROOT
ATOM      1  C   UNL     1       4.018   3.310  18.406  0.00  0.00    +0.000 C 
ENDROOT
BRANCH   1   2
ATOM      2  O   UNL     1       4.938   2.624  19.267  0.00  0.00    +0.000 OA
ATOM      3  H   UNL     1       5.750   2.475  18.748  0.00  0.00    +0.000 HD
ENDBRANCH   1   2
BRANCH   1   4
ATOM      4  C   UNL     1       3.301   4.423  19.189  0.00  0.00    +0.000 C 
BRANCH   4   5
ATOM      5  O   UNL     1       2.552   5.230  18.270  0.00  0.00    +0.000 OA
BRANCH   5   6
ATOM      6  C   UNL     1       2.234   6.491  18.694  0.00  0.00    +0.000 A 
ATOM      7  C   UNL     1       2.159   7.461  17.693  0.00  0.00    +0.000 A 
ATOM      8  C   UNL     1       1.840   8.783  18.006  0.00  0.00    +0.000 A 
ATOM      9  C   UNL     1       1.553   9.156  19.325  0.00  0.00    +0.000 A 
ATOM     10  C   UNL     1       1.613   8.175  20.325  0.00  0.00    +0.000 A 
ATOM     11  C   UNL     1       1.947   6.852  20.011  0.00  0.00    +0.000 A 
BRANCH   9  12
ATOM     12  C   UNL     1       1.224  10.588  19.678  0.00  0.00    +0.000 C 
BRANCH  12  13
ATOM     13  C   UNL     1       0.815  10.761  21.141  0.00  0.00    +0.000 C 
BRANCH  13  14
ATOM     14  C   UNL     1      -0.666  11.004  21.274  0.00  0.00    +0.000 C 
ATOM     15  O   UNL     1      -1.386  11.473  20.408  0.00  0.00    +0.000 OA
BRANCH  14  16
ATOM     16  O   UNL     1      -1.086  10.611  22.513  0.00  0.00    +0.000 OA
ATOM     17  C   UNL     1      -0.185   9.730  23.183  0.00  0.00    +0.000 C 
ENDBRANCH  14  16
ENDBRANCH  13  14
ENDBRANCH  12  13
ENDBRANCH   9  12
ENDBRANCH   5   6
ENDBRANCH   4   5
ENDBRANCH   1   4
BRANCH   1  18
ATOM     18  C   UNL     1       4.772   3.900  17.194  0.00  0.00    +0.000 C 
BRANCH  18  19
ATOM     19  N   UNL     1       6.216   3.990  17.439  0.00  0.00    +0.000 NA
ATOM     20  H   UNL     1       6.382   4.102  18.448  0.00  0.00    +0.000 HD
BRANCH  19  21
ATOM     21  C   UNL     1       6.842   5.145  16.721  0.00  0.00    +0.000 C 
BRANCH  21  22
ATOM     22  C   UNL     1       6.557   6.443  17.462  0.00  0.00    +0.000 C 
ATOM     23  O   UNL     1       5.587   6.661  18.177  0.00  0.00    +0.000 OA
BRANCH  22  24
ATOM     24  O   UNL     1       7.495   7.375  17.110  0.00  0.00    +0.000 OA
BRANCH  24  26
ATOM     25  C   UNL     1       8.336   9.421  17.983  0.00  0.00    +0.000 C 
ATOM     26  C   UNL     1       8.251   7.922  18.199  0.00  0.00    +0.000 C 
ENDBRANCH  24  26
ENDBRANCH  22  24
ENDBRANCH  21  22
BRANCH  21  27
ATOM     27  C   UNL     1       6.295   5.280  15.301  0.00  0.00    +0.000 C 
ATOM     28  O   UNL     1       5.420   6.068  14.959  0.00  0.00    +0.000 OA
BRANCH  27  29
ATOM     29  O   UNL     1       6.820   4.306  14.496  0.00  0.00    +0.000 OA
BRANCH  29  30
ATOM     30  C   UNL     1       5.897   3.677  13.593  0.00  0.00    +0.000 C 
ATOM     31  C   UNL     1       6.455   3.592  12.187  0.00  0.00    +0.000 C 
ENDBRANCH  29  30
ENDBRANCH  27  29
ENDBRANCH  21  27
ENDBRANCH  19  21
ENDBRANCH  18  19
ENDBRANCH   1  18
TORSDOF 17
ENDMDL
MODEL 8
REMARK VINA RESULT:      -5.8      2.120      3.245
REMARK  Name = 
REMARK  20 active torsions:
REMARK  status: ('A' for Active; 'I' for Inactive)
REMARK    1  A    between atoms: C_1  and  C_2
REMARK    2  A    between atoms: C_2  and  O_3
REMARK    3  A    between atoms: O_3  and  C_4
REMARK    4  A    between atoms: C_4  and  C_6
REMARK    5  A    between atoms: C_6  and  N_7
REMARK    6  A    between atoms: C_6  and  C_25
REMARK    7  A    between atoms: N_7  and  C_8
REMARK    8  A    between atoms: C_8  and  C_9
REMARK    9  A    between atoms: C_9  and  O_10
REMARK   10  A    between atoms: C_9  and  C_11
REMARK   11  A    between atoms: C_11  and  O_12
REMARK   12  A    between atoms: O_12  and  C_13
REMARK   13  A    between atoms: C_16  and  C_17
REMARK   14  A    between atoms: C_17  and  C_18
REMARK   15  A    between atoms: C_18  and  C_19
REMARK   16  A    between atoms: C_19  and  O_21
REMARK   17  A    between atoms: O_21  and  C_22
REMARK   18  A    between atoms: C_25  and  O_27
REMARK   19  A    between atoms: O_27  and  C_28
REMARK   20  A    between atoms: C_28  and  C_29
REMARK                            x       y       z     vdW  Elec       q    Type
REMARK                         _______ _______ _______ _____ _____    ______ ____
ROOT
ATOM      1  C   UNL     1       3.278   6.141  18.800  0.00  0.00    +0.000 C 
ENDROOT
BRANCH   1   2
ATOM      2  O   UNL     1       2.600   5.016  18.223  0.00  0.00    +0.000 OA
ATOM      3  H   UNL     1       1.924   5.375  17.620  0.00  0.00    +0.000 HD
ENDBRANCH   1   2
BRANCH   1   4
ATOM      4  C   UNL     1       2.418   6.752  19.919  0.00  0.00    +0.000 C 
BRANCH   4   5
ATOM      5  O   UNL     1       1.926   8.027  19.484  0.00  0.00    +0.000 OA
BRANCH   5   6
ATOM      6  C   UNL     1       1.207   8.742  20.402  0.00  0.00    +0.000 A 
ATOM      7  C   UNL     1       0.411   9.764  19.880  0.00  0.00    +0.000 A 
ATOM      8  C   UNL     1      -0.369  10.558  20.722  0.00  0.00    +0.000 A 
ATOM      9  C   UNL     1      -0.398  10.323  22.102  0.00  0.00    +0.000 A 
ATOM     10  C   UNL     1       0.390   9.286  22.620  0.00  0.00    +0.000 A 
ATOM     11  C   UNL     1       1.182   8.499  21.776  0.00  0.00    +0.000 A 
BRANCH   9  12
ATOM     12  C   UNL     1      -1.225  11.189  23.024  0.00  0.00    +0.000 C 
BRANCH  12  13
ATOM     13  C   UNL     1      -1.362  12.628  22.523  0.00  0.00    +0.000 C 
BRANCH  13  14
ATOM     14  C   UNL     1      -2.719  13.197  22.848  0.00  0.00    +0.000 C 
ATOM     15  O   UNL     1      -2.933  14.329  23.250  0.00  0.00    +0.000 OA
BRANCH  14  16
ATOM     16  O   UNL     1      -3.679  12.254  22.615  0.00  0.00    +0.000 OA
ATOM     17  C   UNL     1      -4.772  12.717  21.823  0.00  0.00    +0.000 C 
ENDBRANCH  14  16
ENDBRANCH  13  14
ENDBRANCH  12  13
ENDBRANCH   9  12
ENDBRANCH   5   6
ENDBRANCH   4   5
ENDBRANCH   1   4
BRANCH   1  18
ATOM     18  C   UNL     1       4.651   5.701  19.352  0.00  0.00    +0.000 C 
BRANCH  18  19
ATOM     19  N   UNL     1       5.315   4.740  18.464  0.00  0.00    +0.000 NA
ATOM     20  H   UNL     1       6.155   4.372  18.930  0.00  0.00    +0.000 HD
BRANCH  19  21
ATOM     21  C   UNL     1       5.723   5.358  17.162  0.00  0.00    +0.000 C 
BRANCH  21  22
ATOM     22  C   UNL     1       5.147   4.564  15.999  0.00  0.00    +0.000 C 
ATOM     23  O   UNL     1       4.348   3.640  16.088  0.00  0.00    +0.000 OA
BRANCH  22  24
ATOM     24  O   UNL     1       5.754   4.963  14.840  0.00  0.00    +0.000 OA
BRANCH  24  26
ATOM     25  C   UNL     1       5.371   3.763  12.823  0.00  0.00    +0.000 C 
ATOM     26  C   UNL     1       6.280   3.903  14.030  0.00  0.00    +0.000 C 
ENDBRANCH  24  26
ENDBRANCH  22  24
ENDBRANCH  21  22
BRANCH  21  27
ATOM     27  C   UNL     1       7.243   5.386  17.012  0.00  0.00    +0.000 C 
ATOM     28  O   UNL     1       7.975   4.409  17.123  0.00  0.00    +0.000 OA
BRANCH  27  29
ATOM     29  O   UNL     1       7.682   6.673  16.871  0.00  0.00    +0.000 OA
BRANCH  29  30
ATOM     30  C   UNL     1       7.907   7.394  18.093  0.00  0.00    +0.000 C 
ATOM     31  C   UNL     1       8.106   8.875  17.844  0.00  0.00    +0.000 C 
ENDBRANCH  29  30
ENDBRANCH  27  29
ENDBRANCH  21  27
ENDBRANCH  19  21
ENDBRANCH  18  19
ENDBRANCH   1  18
TORSDOF 17
ENDMDL
MODEL 9
REMARK VINA RESULT:      -5.8      1.367      1.735
REMARK  Name = 
REMARK  20 active torsions:
REMARK  status: ('A' for Active; 'I' for Inactive)
REMARK    1  A    between atoms: C_1  and  C_2
REMARK    2  A    between atoms: C_2  and  O_3
REMARK    3  A    between atoms: O_3  and  C_4
REMARK    4  A    between atoms: C_4  and  C_6
REMARK    5  A    between atoms: C_6  and  N_7
REMARK    6  A    between atoms: C_6  and  C_25
REMARK    7  A    between atoms: N_7  and  C_8
REMARK    8  A    between atoms: C_8  and  C_9
REMARK    9  A    between atoms: C_9  and  O_10
REMARK   10  A    between atoms: C_9  and  C_11
REMARK   11  A    between atoms: C_11  and  O_12
REMARK   12  A    between atoms: O_12  and  C_13
REMARK   13  A    between atoms: C_16  and  C_17
REMARK   14  A    between atoms: C_17  and  C_18
REMARK   15  A    between atoms: C_18  and  C_19
REMARK   16  A    between atoms: C_19  and  O_21
REMARK   17  A    between atoms: O_21  and  C_22
REMARK   18  A    between atoms: C_25  and  O_27
REMARK   19  A    between atoms: O_27  and  C_28
REMARK   20  A    between atoms: C_28  and  C_29
REMARK                            x       y       z     vdW  Elec       q    Type
REMARK                         _______ _______ _______ _____ _____    ______ ____
ROOT
ATOM      1  C   UNL     1       4.346   3.026  18.491  0.00  0.00    +0.000 C 
ENDROOT
BRANCH   1   2
ATOM      2  O   UNL     1       4.384   2.597  19.859  0.00  0.00    +0.000 OA
ATOM      3  H   UNL     1       3.562   2.098  20.020  0.00  0.00    +0.000 HD
ENDBRANCH   1   2
BRANCH   1   4
ATOM      4  C   UNL     1       2.914   3.442  18.114  0.00  0.00    +0.000 C 
BRANCH   4   5
ATOM      5  O   UNL     1       2.270   3.992  19.272  0.00  0.00    +0.000 OA
BRANCH   5   6
ATOM      6  C   UNL     1       2.097   5.350  19.279  0.00  0.00    +0.000 A 
ATOM      7  C   UNL     1       1.792   5.911  20.520  0.00  0.00    +0.000 A 
ATOM      8  C   UNL     1       1.598   7.286  20.650  0.00  0.00    +0.000 A 
ATOM      9  C   UNL     1       1.739   8.136  19.546  0.00  0.00    +0.000 A 
ATOM     10  C   UNL     1       2.061   7.570  18.305  0.00  0.00    +0.000 A 
ATOM     11  C   UNL     1       2.243   6.188  18.173  0.00  0.00    +0.000 A 
BRANCH   9  12
ATOM     12  C   UNL     1       1.512   9.625  19.672  0.00  0.00    +0.000 C 
BRANCH  12  13
ATOM     13  C   UNL     1       0.086   9.974  20.099  0.00  0.00    +0.000 C 
BRANCH  13  14
ATOM     14  C   UNL     1       0.053  11.225  20.939  0.00  0.00    +0.000 C 
ATOM     15  O   UNL     1      -0.287  12.330  20.549  0.00  0.00    +0.000 OA
BRANCH  14  16
ATOM     16  O   UNL     1       0.454  10.933  22.212  0.00  0.00    +0.000 OA
ATOM     17  C   UNL     1      -0.356   9.961  22.871  0.00  0.00    +0.000 C 
ENDBRANCH  14  16
ENDBRANCH  13  14
ENDBRANCH  12  13
ENDBRANCH   9  12
ENDBRANCH   5   6
ENDBRANCH   4   5
ENDBRANCH   1   4
BRANCH   1  18
ATOM     18  C   UNL     1       5.325   4.202  18.282  0.00  0.00    +0.000 C 
BRANCH  18  19
ATOM     19  N   UNL     1       5.229   4.758  16.927  0.00  0.00    +0.000 NA
ATOM     20  H   UNL     1       5.078   3.992  16.257  0.00  0.00    +0.000 HD
BRANCH  19  21
ATOM     21  C   UNL     1       6.467   5.502  16.530  0.00  0.00    +0.000 C 
BRANCH  21  22
ATOM     22  C   UNL     1       7.031   4.935  15.236  0.00  0.00    +0.000 C 
ATOM     23  O   UNL     1       7.906   5.448  14.550  0.00  0.00    +0.000 OA
BRANCH  22  24
ATOM     24  O   UNL     1       6.321   3.817  14.890  0.00  0.00    +0.000 OA
BRANCH  24  26
ATOM     25  C   UNL     1       5.042   4.105  12.907  0.00  0.00    +0.000 C 
ATOM     26  C   UNL     1       6.310   3.511  13.489  0.00  0.00    +0.000 C 
ENDBRANCH  24  26
ENDBRANCH  22  24
ENDBRANCH  21  22
BRANCH  21  27
ATOM     27  C   UNL     1       7.548   5.396  17.605  0.00  0.00    +0.000 C 
ATOM     28  O   UNL     1       8.140   4.365  17.903  0.00  0.00    +0.000 OA
BRANCH  27  29
ATOM     29  O   UNL     1       7.664   6.580  18.279  0.00  0.00    +0.000 OA
BRANCH  29  30
ATOM     30  C   UNL     1       7.557   7.768  17.479  0.00  0.00    +0.000 C 
ATOM     31  C   UNL     1       8.305   8.932  18.097  0.00  0.00    +0.000 C 
ENDBRANCH  29  30
ENDBRANCH  27  29
ENDBRANCH  21  27
ENDBRANCH  19  21
ENDBRANCH  18  19
ENDBRANCH   1  18
TORSDOF 17
ENDMDL
