MODEL 1
REMARK VINA RESULT:      -7.2      0.000      0.000
REMARK  Name = 
REMARK  10 active torsions:
REMARK  status: ('A' for Active; 'I' for Inactive)
REMARK    1  A    between atoms: C_1  and  C_2
REMARK    2  A    between atoms: C_2  and  C_3
REMARK    3  A    between atoms: C_3  and  C_15
REMARK    4  A    between atoms: C_4  and  C_5
REMARK    5  A    between atoms: C_8  and  O_9
REMARK    6  A    between atoms: O_9  and  C_10
REMARK    7  A    between atoms: C_11  and  O_12
REMARK    8  A    between atoms: O_12  and  C_13
REMARK    9  A    between atoms: C_17  and  O_18
REMARK   10  A    between atoms: C_20  and  O_21
REMARK                            x       y       z     vdW  Elec       q    Type
REMARK                         _______ _______ _______ _____ _____    ______ ____
ROOT
ATOM      1  C   UNL     1       5.843   4.384  16.269  0.00  0.00    +0.000 C 
ATOM      2  C   UNL     1       4.543   4.087  16.463  0.00  0.00    +0.000 C 
ENDROOT
BRANCH   2   3
ATOM      3  C   UNL     1       3.838   4.009  17.746  0.00  0.00    +0.000 A 
ATOM      4  C   UNL     1       3.886   2.829  18.484  0.00  0.00    +0.000 A 
ATOM      5  C   UNL     1       3.344   2.791  19.768  0.00  0.00    +0.000 A 
ATOM      6  C   UNL     1       2.751   3.925  20.343  0.00  0.00    +0.000 A 
ATOM      7  C   UNL     1       2.666   5.113  19.592  0.00  0.00    +0.000 A 
ATOM      8  C   UNL     1       3.204   5.135  18.291  0.00  0.00    +0.000 A 
BRANCH   6   9
ATOM      9  O   UNL     1       2.330   3.684  21.626  0.00  0.00    +0.000 OA
ATOM     10  C   UNL     1       1.440   2.608  21.874  0.00  0.00    +0.000 C 
ENDBRANCH   6   9
BRANCH   7  11
ATOM     11  O   UNL     1       2.076   6.203  20.176  0.00  0.00    +0.000 OA
ATOM     12  C   UNL     1       2.211   7.468  19.544  0.00  0.00    +0.000 C 
ENDBRANCH   7  11
ENDBRANCH   2   3
BRANCH   1  13
ATOM     13  C   UNL     1       6.320   4.408  14.870  0.00  0.00    +0.000 A 
ATOM     14  C   UNL     1       5.750   3.561  13.909  0.00  0.00    +0.000 A 
ATOM     15  C   UNL     1       6.244   3.568  12.604  0.00  0.00    +0.000 A 
ATOM     16  C   UNL     1       7.300   4.398  12.239  0.00  0.00    +0.000 A 
ATOM     17  C   UNL     1       7.869   5.225  13.200  0.00  0.00    +0.000 A 
ATOM     18  C   UNL     1       7.393   5.236  14.509  0.00  0.00    +0.000 A 
BRANCH  15  19
ATOM     19  O   UNL     1       5.722   2.753  11.642  0.00  0.00    +0.000 OA
ATOM     20  H   UNL     1       4.948   3.192  11.250  0.00  0.00    +0.000 HD
ENDBRANCH  15  19
BRANCH  17  21
ATOM     21  O   UNL     1       8.918   6.044  12.896  0.00  0.00    +0.000 OA
ATOM     22  H   UNL     1       8.830   6.858  13.420  0.00  0.00    +0.000 HD
ENDBRANCH  17  21
ENDBRANCH   1  13
BRANCH   1  24
ATOM     23  C   UNL     1       6.843   6.035  17.906  0.00  0.00    +0.000 C 
ATOM     24  C   UNL     1       6.875   4.621  17.342  0.00  0.00    +0.000 C 
ENDBRANCH   1  24
TORSDOF 7
ENDMDL
MODEL 2
REMARK VINA RESULT:      -7.2      0.165      1.771
REMARK  Name = 
REMARK  10 active torsions:
REMARK  status: ('A' for Active; 'I' for Inactive)
REMARK    1  A    between atoms: C_1  and  C_2
REMARK    2  A    between atoms: C_2  and  C_3
REMARK    3  A    between atoms: C_3  and  C_15
REMARK    4  A    between atoms: C_4  and  C_5
REMARK    5  A    between atoms: C_8  and  O_9
REMARK    6  A    between atoms: O_9  and  C_10
REMARK    7  A    between atoms: C_11  and  O_12
REMARK    8  A    between atoms: O_12  and  C_13
REMARK    9  A    between atoms: C_17  and  O_18
REMARK   10  A    between atoms: C_20  and  O_21
REMARK                            x       y       z     vdW  Elec       q    Type
REMARK                         _______ _______ _______ _____ _____    ______ ____
ROOT
ATOM      1  C   UNL     1       5.792   4.401  16.308  0.00  0.00    +0.000 C 
ATOM      2  C   UNL     1       4.482   4.127  16.459  0.00  0.00    +0.000 C 
ENDROOT
BRANCH   2   3
ATOM      3  C   UNL     1       3.726   4.093  17.716  0.00  0.00    +0.000 A 
ATOM      4  C   UNL     1       3.625   2.897  18.422  0.00  0.00    +0.000 A 
ATOM      5  C   UNL     1       3.036   2.886  19.686  0.00  0.00    +0.000 A 
ATOM      6  C   UNL     1       2.544   4.062  20.271  0.00  0.00    +0.000 A 
ATOM      7  C   UNL     1       2.610   5.270  19.552  0.00  0.00    +0.000 A 
ATOM      8  C   UNL     1       3.194   5.266  18.270  0.00  0.00    +0.000 A 
BRANCH   6   9
ATOM      9  O   UNL     1       2.055   3.836  21.533  0.00  0.00    +0.000 OA
ATOM     10  C   UNL     1       1.471   2.579  21.837  0.00  0.00    +0.000 C 
ENDBRANCH   6   9
BRANCH   7  11
ATOM     11  O   UNL     1       2.116   6.402  20.145  0.00  0.00    +0.000 OA
ATOM     12  C   UNL     1       2.158   7.622  19.419  0.00  0.00    +0.000 C 
ENDBRANCH   7  11
ENDBRANCH   2   3
BRANCH   1  13
ATOM     13  C   UNL     1       6.323   4.382  14.929  0.00  0.00    +0.000 A 
ATOM     14  C   UNL     1       7.387   5.219  14.565  0.00  0.00    +0.000 A 
ATOM     15  C   UNL     1       7.846   5.219  13.247  0.00  0.00    +0.000 A 
ATOM     16  C   UNL     1       7.261   4.404  12.282  0.00  0.00    +0.000 A 
ATOM     17  C   UNL     1       6.197   3.587  12.646  0.00  0.00    +0.000 A 
ATOM     18  C   UNL     1       5.722   3.570  13.956  0.00  0.00    +0.000 A 
BRANCH  15  19
ATOM     19  O   UNL     1       8.873   6.025  12.852  0.00  0.00    +0.000 OA
ATOM     20  H   UNL     1       9.460   6.176  13.612  0.00  0.00    +0.000 HD
ENDBRANCH  15  19
BRANCH  17  21
ATOM     21  O   UNL     1       5.578   2.784  11.733  0.00  0.00    +0.000 OA
ATOM     22  H   UNL     1       6.110   2.781  10.920  0.00  0.00    +0.000 HD
ENDBRANCH  17  21
ENDBRANCH   1  13
BRANCH   1  24
ATOM     23  C   UNL     1       6.799   6.099  17.893  0.00  0.00    +0.000 C 
ATOM     24  C   UNL     1       6.786   4.653  17.414  0.00  0.00    +0.000 C 
ENDBRANCH   1  24
TORSDOF 7
ENDMDL
MODEL 3
REMARK VINA RESULT:      -7.0      2.932      5.016
REMARK  Name = 
REMARK  10 active torsions:
REMARK  status: ('A' for Active; 'I' for Inactive)
REMARK    1  A    between atoms: C_1  and  C_2
REMARK    2  A    between atoms: C_2  and  C_3
REMARK    3  A    between atoms: C_3  and  C_15
REMARK    4  A    between atoms: C_4  and  C_5
REMARK    5  A    between atoms: C_8  and  O_9
REMARK    6  A    between atoms: O_9  and  C_10
REMARK    7  A    between atoms: C_11  and  O_12
REMARK    8  A    between atoms: O_12  and  C_13
REMARK    9  A    between atoms: C_17  and  O_18
REMARK   10  A    between atoms: C_20  and  O_21
REMARK                            x       y       z     vdW  Elec       q    Type
REMARK                         _______ _______ _______ _____ _____    ______ ____
ROOT
ATOM      1  C   UNL     1       3.202   6.221  17.898  0.00  0.00    +0.000 C 
ATOM      2  C   UNL     1       3.167   7.495  18.335  0.00  0.00    +0.000 C 
ENDROOT
BRANCH   2   3
ATOM      3  C   UNL     1       2.049   8.168  19.006  0.00  0.00    +0.000 A 
ATOM      4  C   UNL     1       1.777   7.878  20.340  0.00  0.00    +0.000 A 
ATOM      5  C   UNL     1       0.814   8.615  21.028  0.00  0.00    +0.000 A 
ATOM      6  C   UNL     1       0.111   9.656  20.404  0.00  0.00    +0.000 A 
ATOM      7  C   UNL     1       0.353   9.934  19.045  0.00  0.00    +0.000 A 
ATOM      8  C   UNL     1       1.318   9.173  18.358  0.00  0.00    +0.000 A 
BRANCH   6   9
ATOM      9  O   UNL     1      -0.748  10.281  21.272  0.00  0.00    +0.000 OA
ATOM     10  C   UNL     1      -0.382  10.415  22.636  0.00  0.00    +0.000 C 
ENDBRANCH   6   9
BRANCH   7  11
ATOM     11  O   UNL     1      -0.353  10.951  18.459  0.00  0.00    +0.000 OA
ATOM     12  C   UNL     1      -1.591  10.646  17.833  0.00  0.00    +0.000 C 
ENDBRANCH   7  11
ENDBRANCH   2   3
BRANCH   1  13
ATOM     13  C   UNL     1       4.455   5.770  17.258  0.00  0.00    +0.000 A 
ATOM     14  C   UNL     1       4.559   4.474  16.731  0.00  0.00    +0.000 A 
ATOM     15  C   UNL     1       5.764   4.052  16.170  0.00  0.00    +0.000 A 
ATOM     16  C   UNL     1       6.872   4.893  16.128  0.00  0.00    +0.000 A 
ATOM     17  C   UNL     1       6.767   6.171  16.664  0.00  0.00    +0.000 A 
ATOM     18  C   UNL     1       5.574   6.615  17.230  0.00  0.00    +0.000 A 
BRANCH  15  19
ATOM     19  O   UNL     1       5.906   2.796  15.654  0.00  0.00    +0.000 OA
ATOM     20  H   UNL     1       6.586   2.821  14.959  0.00  0.00    +0.000 HD
ENDBRANCH  15  19
BRANCH  17  21
ATOM     21  O   UNL     1       7.830   7.027  16.664  0.00  0.00    +0.000 OA
ATOM     22  H   UNL     1       7.492   7.932  16.559  0.00  0.00    +0.000 HD
ENDBRANCH  17  21
ENDBRANCH   1  13
BRANCH   1  24
ATOM     23  C   UNL     1       2.019   4.409  19.213  0.00  0.00    +0.000 C 
ATOM     24  C   UNL     1       2.063   5.233  17.932  0.00  0.00    +0.000 C 
ENDBRANCH   1  24
TORSDOF 7
ENDMDL
MODEL 4
REMARK VINA RESULT:      -7.0      2.589      4.443
REMARK  Name = 
REMARK  10 active torsions:
REMARK  status: ('A' for Active; 'I' for Inactive)
REMARK    1  A    between atoms: C_1  and  C_2
REMARK    2  A    between atoms: C_2  and  C_3
REMARK    3  A    between atoms: C_3  and  C_15
REMARK    4  A    between atoms: C_4  and  C_5
REMARK    5  A    between atoms: C_8  and  O_9
REMARK    6  A    between atoms: O_9  and  C_10
REMARK    7  A    between atoms: C_11  and  O_12
REMARK    8  A    between atoms: O_12  and  C_13
REMARK    9  A    between atoms: C_17  and  O_18
REMARK   10  A    between atoms: C_20  and  O_21
REMARK                            x       y       z     vdW  Elec       q    Type
REMARK                         _______ _______ _______ _____ _____    ______ ____
ROOT
ATOM      1  C   UNL     1       3.577   5.599  17.635  0.00  0.00    +0.000 C 
ATOM      2  C   UNL     1       3.579   6.886  18.033  0.00  0.00    +0.000 C 
ENDROOT
BRANCH   2   3
ATOM      3  C   UNL     1       2.511   7.591  18.751  0.00  0.00    +0.000 A 
ATOM      4  C   UNL     1       2.248   7.264  20.079  0.00  0.00    +0.000 A 
ATOM      5  C   UNL     1       1.339   8.024  20.813  0.00  0.00    +0.000 A 
ATOM      6  C   UNL     1       0.681   9.124  20.243  0.00  0.00    +0.000 A 
ATOM      7  C   UNL     1       0.914   9.442  18.892  0.00  0.00    +0.000 A 
ATOM      8  C   UNL     1       1.824   8.658  18.156  0.00  0.00    +0.000 A 
BRANCH   6   9
ATOM      9  O   UNL     1      -0.127   9.760  21.151  0.00  0.00    +0.000 OA
ATOM     10  C   UNL     1      -0.130   9.325  22.501  0.00  0.00    +0.000 C 
ENDBRANCH   6   9
BRANCH   7  11
ATOM     11  O   UNL     1       0.253  10.517  18.359  0.00  0.00    +0.000 OA
ATOM     12  C   UNL     1      -1.080  10.337  17.901  0.00  0.00    +0.000 C 
ENDBRANCH   7  11
ENDBRANCH   2   3
BRANCH   1  13
ATOM     13  C   UNL     1       4.783   5.116  16.932  0.00  0.00    +0.000 A 
ATOM     14  C   UNL     1       4.742   4.839  15.557  0.00  0.00    +0.000 A 
ATOM     15  C   UNL     1       5.879   4.341  14.920  0.00  0.00    +0.000 A 
ATOM     16  C   UNL     1       7.056   4.109  15.626  0.00  0.00    +0.000 A 
ATOM     17  C   UNL     1       7.086   4.372  16.990  0.00  0.00    +0.000 A 
ATOM     18  C   UNL     1       5.963   4.869  17.649  0.00  0.00    +0.000 A 
BRANCH  15  19
ATOM     19  O   UNL     1       5.877   4.051  13.587  0.00  0.00    +0.000 OA
ATOM     20  H   UNL     1       5.000   4.264  13.224  0.00  0.00    +0.000 HD
ENDBRANCH  15  19
BRANCH  17  21
ATOM     21  O   UNL     1       8.210   4.144  17.730  0.00  0.00    +0.000 OA
ATOM     22  H   UNL     1       8.007   3.456  18.387  0.00  0.00    +0.000 HD
ENDBRANCH  17  21
ENDBRANCH   1  13
BRANCH   1  24
ATOM     23  C   UNL     1       2.594   3.673  18.952  0.00  0.00    +0.000 C 
ATOM     24  C   UNL     1       2.435   4.624  17.772  0.00  0.00    +0.000 C 
ENDBRANCH   1  24
TORSDOF 7
ENDMDL
MODEL 5
REMARK VINA RESULT:      -6.9      2.843      5.077
REMARK  Name = 
REMARK  10 active torsions:
REMARK  status: ('A' for Active; 'I' for Inactive)
REMARK    1  A    between atoms: C_1  and  C_2
REMARK    2  A    between atoms: C_2  and  C_3
REMARK    3  A    between atoms: C_3  and  C_15
REMARK    4  A    between atoms: C_4  and  C_5
REMARK    5  A    between atoms: C_8  and  O_9
REMARK    6  A    between atoms: O_9  and  C_10
REMARK    7  A    between atoms: C_11  and  O_12
REMARK    8  A    between atoms: O_12  and  C_13
REMARK    9  A    between atoms: C_17  and  O_18
REMARK   10  A    between atoms: C_20  and  O_21
REMARK                            x       y       z     vdW  Elec       q    Type
REMARK                         _______ _______ _______ _____ _____    ______ ____
ROOT
ATOM      1  C   UNL     1       3.269   5.789  18.016  0.00  0.00    +0.000 C 
ATOM      2  C   UNL     1       3.334   7.022  18.555  0.00  0.00    +0.000 C 
ENDROOT
BRANCH   2   3
ATOM      3  C   UNL     1       2.239   7.770  19.182  0.00  0.00    +0.000 A 
ATOM      4  C   UNL     1       1.886   7.492  20.500  0.00  0.00    +0.000 A 
ATOM      5  C   UNL     1       0.949   8.294  21.150  0.00  0.00    +0.000 A 
ATOM      6  C   UNL     1       0.353   9.388  20.505  0.00  0.00    +0.000 A 
ATOM      7  C   UNL     1       0.676   9.656  19.162  0.00  0.00    +0.000 A 
ATOM      8  C   UNL     1       1.613   8.831  18.511  0.00  0.00    +0.000 A 
BRANCH   6   9
ATOM      9  O   UNL     1      -0.497  10.069  21.340  0.00  0.00    +0.000 OA
ATOM     10  C   UNL     1      -0.305   9.988  22.743  0.00  0.00    +0.000 C 
ENDBRANCH   6   9
BRANCH   7  11
ATOM     11  O   UNL     1       0.074  10.727  18.555  0.00  0.00    +0.000 OA
ATOM     12  C   UNL     1      -1.196  10.537  17.947  0.00  0.00    +0.000 C 
ENDBRANCH   7  11
ENDBRANCH   2   3
BRANCH   1  13
ATOM     13  C   UNL     1       4.520   5.242  17.450  0.00  0.00    +0.000 A 
ATOM     14  C   UNL     1       5.672   5.133  18.243  0.00  0.00    +0.000 A 
ATOM     15  C   UNL     1       6.854   4.655  17.679  0.00  0.00    +0.000 A 
ATOM     16  C   UNL     1       6.915   4.287  16.338  0.00  0.00    +0.000 A 
ATOM     17  C   UNL     1       5.774   4.410  15.554  0.00  0.00    +0.000 A 
ATOM     18  C   UNL     1       4.581   4.886  16.095  0.00  0.00    +0.000 A 
BRANCH  15  19
ATOM     19  O   UNL     1       7.998   4.542  18.415  0.00  0.00    +0.000 OA
ATOM     20  H   UNL     1       8.596   3.920  17.966  0.00  0.00    +0.000 HD
ENDBRANCH  15  19
BRANCH  17  21
ATOM     21  O   UNL     1       5.786   4.081  14.230  0.00  0.00    +0.000 OA
ATOM     22  H   UNL     1       6.521   4.556  13.805  0.00  0.00    +0.000 HD
ENDBRANCH  17  21
ENDBRANCH   1  13
BRANCH   1  24
ATOM     23  C   UNL     1       2.043   3.696  18.741  0.00  0.00    +0.000 C 
ATOM     24  C   UNL     1       2.029   4.943  17.867  0.00  0.00    +0.000 C 
ENDBRANCH   1  24
TORSDOF 7
ENDMDL
MODEL 6
REMARK VINA RESULT:      -6.9      3.019      5.448
REMARK  Name = 
REMARK  10 active torsions:
REMARK  status: ('A' for Active; 'I' for Inactive)
REMARK    1  A    between atoms: C_1  and  C_2
REMARK    2  A    between atoms: C_2  and  C_3
REMARK    3  A    between atoms: C_3  and  C_15
REMARK    4  A    between atoms: C_4  and  C_5
REMARK    5  A    between atoms: C_8  and  O_9
REMARK    6  A    between atoms: O_9  and  C_10
REMARK    7  A    between atoms: C_11  and  O_12
REMARK    8  A    between atoms: O_12  and  C_13
REMARK    9  A    between atoms: C_17  and  O_18
REMARK   10  A    between atoms: C_20  and  O_21
REMARK                            x       y       z     vdW  Elec       q    Type
REMARK                         _______ _______ _______ _____ _____    ______ ____
ROOT
ATOM      1  C   UNL     1       3.243   6.279  17.980  0.00  0.00    +0.000 C 
ATOM      2  C   UNL     1       3.111   7.606  18.169  0.00  0.00    +0.000 C 
ENDROOT
BRANCH   2   3
ATOM      3  C   UNL     1       1.965   8.304  18.760  0.00  0.00    +0.000 A 
ATOM      4  C   UNL     1       1.776   8.266  20.139  0.00  0.00    +0.000 A 
ATOM      5  C   UNL     1       0.778   9.043  20.724  0.00  0.00    +0.000 A 
ATOM      6  C   UNL     1      -0.044   9.877  19.951  0.00  0.00    +0.000 A 
ATOM      7  C   UNL     1       0.115   9.896  18.553  0.00  0.00    +0.000 A 
ATOM      8  C   UNL     1       1.117   9.095  17.972  0.00  0.00    +0.000 A 
BRANCH   6   9
ATOM      9  O   UNL     1      -0.921  10.589  20.730  0.00  0.00    +0.000 OA
ATOM     10  C   UNL     1      -0.478  11.119  21.969  0.00  0.00    +0.000 C 
ENDBRANCH   6   9
BRANCH   7  11
ATOM     11  O   UNL     1      -0.706  10.714  17.822  0.00  0.00    +0.000 OA
ATOM     12  C   UNL     1      -1.856  10.149  17.208  0.00  0.00    +0.000 C 
ENDBRANCH   7  11
ENDBRANCH   2   3
BRANCH   1  13
ATOM     13  C   UNL     1       4.506   5.814  17.369  0.00  0.00    +0.000 A 
ATOM     14  C   UNL     1       5.619   6.664  17.302  0.00  0.00    +0.000 A 
ATOM     15  C   UNL     1       6.788   6.222  16.682  0.00  0.00    +0.000 A 
ATOM     16  C   UNL     1       6.869   4.950  16.123  0.00  0.00    +0.000 A 
ATOM     17  C   UNL     1       5.758   4.118  16.180  0.00  0.00    +0.000 A 
ATOM     18  C   UNL     1       4.579   4.537  16.794  0.00  0.00    +0.000 A 
BRANCH  15  19
ATOM     19  O   UNL     1       7.890   7.022  16.589  0.00  0.00    +0.000 OA
ATOM     20  H   UNL     1       8.261   6.936  15.695  0.00  0.00    +0.000 HD
ENDBRANCH  15  19
BRANCH  17  21
ATOM     21  O   UNL     1       5.781   2.869  15.630  0.00  0.00    +0.000 OA
ATOM     22  H   UNL     1       6.709   2.603  15.518  0.00  0.00    +0.000 HD
ENDBRANCH  17  21
ENDBRANCH   1  13
BRANCH   1  24
ATOM     23  C   UNL     1       2.285   4.657  19.671  0.00  0.00    +0.000 C 
ATOM     24  C   UNL     1       2.198   5.228  18.262  0.00  0.00    +0.000 C 
ENDBRANCH   1  24
TORSDOF 7
ENDMDL
MODEL 7
REMARK VINA RESULT:      -6.9      0.983      2.829
REMARK  Name = 
REMARK  10 active torsions:
REMARK  status: ('A' for Active; 'I' for Inactive)
REMARK    1  A    between atoms: C_1  and  C_2
REMARK    2  A    between atoms: C_2  and  C_3
REMARK    3  A    between atoms: C_3  and  C_15
REMARK    4  A    between atoms: C_4  and  C_5
REMARK    5  A    between atoms: C_8  and  O_9
REMARK    6  A    between atoms: O_9  and  C_10
REMARK    7  A    between atoms: C_11  and  O_12
REMARK    8  A    between atoms: O_12  and  C_13
REMARK    9  A    between atoms: C_17  and  O_18
REMARK   10  A    between atoms: C_20  and  O_21
REMARK                            x       y       z     vdW  Elec       q    Type
REMARK                         _______ _______ _______ _____ _____    ______ ____
ROOT
ATOM      1  C   UNL     1       5.930   4.847  16.154  0.00  0.00    +0.000 C 
ATOM      2  C   UNL     1       4.620   5.119  16.304  0.00  0.00    +0.000 C 
ENDROOT
BRANCH   2   3
ATOM      3  C   UNL     1       3.908   5.369  17.562  0.00  0.00    +0.000 A 
ATOM      4  C   UNL     1       3.657   6.680  17.958  0.00  0.00    +0.000 A 
ATOM      5  C   UNL     1       2.858   6.928  19.073  0.00  0.00    +0.000 A 
ATOM      6  C   UNL     1       2.288   5.877  19.808  0.00  0.00    +0.000 A 
ATOM      7  C   UNL     1       2.563   4.548  19.437  0.00  0.00    +0.000 A 
ATOM      8  C   UNL     1       3.385   4.311  18.318  0.00  0.00    +0.000 A 
BRANCH   6   9
ATOM      9  O   UNL     1       1.498   6.342  20.829  0.00  0.00    +0.000 OA
ATOM     10  C   UNL     1       1.298   7.739  20.972  0.00  0.00    +0.000 C 
ENDBRANCH   6   9
BRANCH   7  11
ATOM     11  O   UNL     1       2.000   3.542  20.177  0.00  0.00    +0.000 OA
ATOM     12  C   UNL     1       0.941   2.788  19.604  0.00  0.00    +0.000 C 
ENDBRANCH   7  11
ENDBRANCH   2   3
BRANCH   1  13
ATOM     13  C   UNL     1       6.416   4.641  14.773  0.00  0.00    +0.000 A 
ATOM     14  C   UNL     1       7.371   5.506  14.218  0.00  0.00    +0.000 A 
ATOM     15  C   UNL     1       7.784   5.321  12.899  0.00  0.00    +0.000 A 
ATOM     16  C   UNL     1       7.260   4.295  12.118  0.00  0.00    +0.000 A 
ATOM     17  C   UNL     1       6.303   3.451  12.669  0.00  0.00    +0.000 A 
ATOM     18  C   UNL     1       5.875   3.615  13.985  0.00  0.00    +0.000 A 
BRANCH  15  19
ATOM     19  O   UNL     1       8.704   6.145  12.320  0.00  0.00    +0.000 OA
ATOM     20  H   UNL     1       9.578   5.952  12.701  0.00  0.00    +0.000 HD
ENDBRANCH  15  19
BRANCH  17  21
ATOM     21  O   UNL     1       5.746   2.441  11.939  0.00  0.00    +0.000 OA
ATOM     22  H   UNL     1       5.089   1.989  12.496  0.00  0.00    +0.000 HD
ENDBRANCH  17  21
ENDBRANCH   1  13
BRANCH   1  24
ATOM     23  C   UNL     1       7.417   5.973  17.867  0.00  0.00    +0.000 C 
ATOM     24  C   UNL     1       6.937   4.660  17.262  0.00  0.00    +0.000 C 
ENDBRANCH   1  24
TORSDOF 7
ENDMDL
MODEL 8
REMARK VINA RESULT:      -6.8      0.886      2.186
REMARK  Name = 
REMARK  10 active torsions:
REMARK  status: ('A' for Active; 'I' for Inactive)
REMARK    1  A    between atoms: C_1  and  C_2
REMARK    2  A    between atoms: C_2  and  C_3
REMARK    3  A    between atoms: C_3  and  C_15
REMARK    4  A    between atoms: C_4  and  C_5
REMARK    5  A    between atoms: C_8  and  O_9
REMARK    6  A    between atoms: O_9  and  C_10
REMARK    7  A    between atoms: C_11  and  O_12
REMARK    8  A    between atoms: O_12  and  C_13
REMARK    9  A    between atoms: C_17  and  O_18
REMARK   10  A    between atoms: C_20  and  O_21
REMARK                            x       y       z     vdW  Elec       q    Type
REMARK                         _______ _______ _______ _____ _____    ______ ____
ROOT
ATOM      1  C   UNL     1       5.822   4.788  16.153  0.00  0.00    +0.000 C 
ATOM      2  C   UNL     1       4.517   5.075  16.326  0.00  0.00    +0.000 C 
ENDROOT
BRANCH   2   3
ATOM      3  C   UNL     1       3.825   5.303  17.599  0.00  0.00    +0.000 A 
ATOM      4  C   UNL     1       3.664   6.605  18.068  0.00  0.00    +0.000 A 
ATOM      5  C   UNL     1       2.883   6.843  19.198  0.00  0.00    +0.000 A 
ATOM      6  C   UNL     1       2.244   5.795  19.877  0.00  0.00    +0.000 A 
ATOM      7  C   UNL     1       2.428   4.473  19.432  0.00  0.00    +0.000 A 
ATOM      8  C   UNL     1       3.231   4.243  18.298  0.00  0.00    +0.000 A 
BRANCH   6   9
ATOM      9  O   UNL     1       1.488   6.255  20.925  0.00  0.00    +0.000 OA
ATOM     10  C   UNL     1       1.199   7.640  21.019  0.00  0.00    +0.000 C 
ENDBRANCH   6   9
BRANCH   7  11
ATOM     11  O   UNL     1       1.798   3.468  20.118  0.00  0.00    +0.000 OA
ATOM     12  C   UNL     1       2.355   3.032  21.350  0.00  0.00    +0.000 C 
ENDBRANCH   7  11
ENDBRANCH   2   3
BRANCH   1  13
ATOM     13  C   UNL     1       6.287   4.610  14.762  0.00  0.00    +0.000 A 
ATOM     14  C   UNL     1       5.778   3.572  13.968  0.00  0.00    +0.000 A 
ATOM     15  C   UNL     1       6.262   3.394  12.672  0.00  0.00    +0.000 A 
ATOM     16  C   UNL     1       7.248   4.227  12.151  0.00  0.00    +0.000 A 
ATOM     17  C   UNL     1       7.758   5.246  12.948  0.00  0.00    +0.000 A 
ATOM     18  C   UNL     1       7.290   5.443  14.245  0.00  0.00    +0.000 A 
BRANCH  15  19
ATOM     19  O   UNL     1       5.799   2.391  11.872  0.00  0.00    +0.000 OA
ATOM     20  H   UNL     1       5.461   2.782  11.047  0.00  0.00    +0.000 HD
ENDBRANCH  15  19
BRANCH  17  21
ATOM     21  O   UNL     1       8.739   6.077  12.490  0.00  0.00    +0.000 OA
ATOM     22  H   UNL     1       8.488   6.991  12.706  0.00  0.00    +0.000 HD
ENDBRANCH  17  21
ENDBRANCH   1  13
BRANCH   1  24
ATOM     23  C   UNL     1       7.395   5.846  17.831  0.00  0.00    +0.000 C 
ATOM     24  C   UNL     1       6.838   4.556  17.243  0.00  0.00    +0.000 C 
ENDBRANCH   1  24
TORSDOF 7
ENDMDL
MODEL 9
REMARK VINA RESULT:      -6.7      2.827      5.354
REMARK  Name = 
REMARK  10 active torsions:
REMARK  status: ('A' for Active; 'I' for Inactive)
REMARK    1  A    between atoms: C_1  and  C_2
REMARK    2  A    between atoms: C_2  and  C_3
REMARK    3  A    between atoms: C_3  and  C_15
REMARK    4  A    between atoms: C_4  and  C_5
REMARK    5  A    between atoms: C_8  and  O_9
REMARK    6  A    between atoms: O_9  and  C_10
REMARK    7  A    between atoms: C_11  and  O_12
REMARK    8  A    between atoms: O_12  and  C_13
REMARK    9  A    between atoms: C_17  and  O_18
REMARK   10  A    between atoms: C_20  and  O_21
REMARK                            x       y       z     vdW  Elec       q    Type
REMARK                         _______ _______ _______ _____ _____    ______ ____
ROOT
ATOM      1  C   UNL     1       3.350   6.068  17.870  0.00  0.00    +0.000 C 
ATOM      2  C   UNL     1       3.421   7.380  18.166  0.00  0.00    +0.000 C 
ENDROOT
BRANCH   2   3
ATOM      3  C   UNL     1       2.336   8.234  18.661  0.00  0.00    +0.000 A 
ATOM      4  C   UNL     1       1.731   9.142  17.795  0.00  0.00    +0.000 A 
ATOM      5  C   UNL     1       0.606   9.853  18.212  0.00  0.00    +0.000 A 
ATOM      6  C   UNL     1       0.060   9.668  19.490  0.00  0.00    +0.000 A 
ATOM      7  C   UNL     1       0.684   8.779  20.385  0.00  0.00    +0.000 A 
ATOM      8  C   UNL     1       1.829   8.078  19.958  0.00  0.00    +0.000 A 
BRANCH   6   9
ATOM      9  O   UNL     1      -1.070  10.425  19.674  0.00  0.00    +0.000 OA
ATOM     10  C   UNL     1      -1.483  11.317  18.652  0.00  0.00    +0.000 C 
ENDBRANCH   6   9
BRANCH   7  11
ATOM     11  O   UNL     1       0.134   8.624  21.630  0.00  0.00    +0.000 OA
ATOM     12  C   UNL     1       0.471   9.559  22.644  0.00  0.00    +0.000 C 
ENDBRANCH   7  11
ENDBRANCH   2   3
BRANCH   1  13
ATOM     13  C   UNL     1       4.591   5.423  17.394  0.00  0.00    +0.000 A 
ATOM     14  C   UNL     1       5.706   5.316  18.238  0.00  0.00    +0.000 A 
ATOM     15  C   UNL     1       6.884   4.743  17.756  0.00  0.00    +0.000 A 
ATOM     16  C   UNL     1       6.974   4.279  16.448  0.00  0.00    +0.000 A 
ATOM     17  C   UNL     1       5.870   4.400  15.612  0.00  0.00    +0.000 A 
ATOM     18  C   UNL     1       4.684   4.968  16.071  0.00  0.00    +0.000 A 
BRANCH  15  19
ATOM     19  O   UNL     1       7.992   4.629  18.543  0.00  0.00    +0.000 OA
ATOM     20  H   UNL     1       7.941   5.295  19.251  0.00  0.00    +0.000 HD
ENDBRANCH  15  19
BRANCH  17  21
ATOM     21  O   UNL     1       5.915   3.976  14.316  0.00  0.00    +0.000 OA
ATOM     22  H   UNL     1       5.120   3.444  14.142  0.00  0.00    +0.000 HD
ENDBRANCH  17  21
ENDBRANCH   1  13
BRANCH   1  24
ATOM     23  C   UNL     1       1.970   4.408  19.193  0.00  0.00    +0.000 C 
ATOM     24  C   UNL     1       2.110   5.210  17.906  0.00  0.00    +0.000 C 
ENDBRANCH   1  24
TORSDOF 7
ENDMDL
