MODEL 1
REMARK VINA RESULT:      -8.9      0.000      0.000
REMARK  Name = 
REMARK  7 active torsions:
REMARK  status: ('A' for Active; 'I' for Inactive)
REMARK    1  A    between atoms: C_1  and  C_2
REMARK    2  A    between atoms: C_4  and  C_5
REMARK    3  A    between atoms: C_6  and  N_7
REMARK    4  A    between atoms: N_7  and  C_8
REMARK    5  A    between atoms: C_13  and  C_14
REMARK    6  A    between atoms: C_17  and  N_18
REMARK    7  A    between atoms: C_23  and  C_24
REMARK                            x       y       z     vdW  Elec       q    Type
REMARK                         _______ _______ _______ _____ _____    ______ ____
ROOT
ATOM      1  C   UNL     1       3.583   4.243  19.856  0.00  0.00    +0.000 A 
ATOM      2  C   UNL     1       3.633   2.887  20.246  0.00  0.00    +0.000 A 
ATOM      3  C   UNL     1       2.603   2.297  20.970  0.00  0.00    +0.000 A 
ATOM      4  C   UNL     1       1.495   3.055  21.311  0.00  0.00    +0.000 A 
ATOM      5  C   UNL     1       1.404   4.387  20.893  0.00  0.00    +0.000 A 
ATOM      6  C   UNL     1       2.420   5.020  20.132  0.00  0.00    +0.000 A 
ENDROOT
BRANCH   6   7
ATOM      7  C   UNL     1       2.196   6.434  19.677  0.00  0.00    +0.000 A 
ATOM      8  C   UNL     1       2.486   6.882  18.375  0.00  0.00    +0.000 A 
ATOM      9  C   UNL     1       2.213   8.197  17.962  0.00  0.00    +0.000 A 
ATOM     10  C   UNL     1       1.693   9.119  18.873  0.00  0.00    +0.000 A 
ATOM     11  C   UNL     1       1.437   8.730  20.187  0.00  0.00    +0.000 A 
ATOM     12  C   UNL     1       1.673   7.400  20.569  0.00  0.00    +0.000 A 
BRANCH  10  13
ATOM     13  N   UNL     1       1.414  10.496  18.451  0.00  0.00    +0.000 N 
ATOM     14  O   UNL     1       2.334  11.131  17.915  0.00  0.00    +0.000 OA
ATOM     15  O   UNL     1       0.275  10.943  18.649  0.00  0.00    +0.000 OA
ENDBRANCH  10  13
ENDBRANCH   6   7
BRANCH   1  16
ATOM     16  N   UNL     1       4.741   4.791  19.265  0.00  0.00    +0.000 N 
ATOM     17  H   UNL     1       5.389   5.164  19.949  0.00  0.00    +0.000 HD
BRANCH  16  23
ATOM     18  C   UNL     1       7.113   4.747  13.998  0.00  0.00    +0.000 C 
ATOM     19  C   UNL     1       6.479   4.796  15.356  0.00  0.00    +0.000 A 
ATOM     20  C   UNL     1       7.153   5.302  16.461  0.00  0.00    +0.000 A 
ATOM     21  C   UNL     1       6.556   5.308  17.736  0.00  0.00    +0.000 A 
ATOM     22  C   UNL     1       7.343   5.914  18.871  0.00  0.00    +0.000 C 
ATOM     23  C   UNL     1       5.257   4.756  17.939  0.00  0.00    +0.000 A 
ATOM     24  C   UNL     1       4.563   4.264  16.806  0.00  0.00    +0.000 A 
ATOM     25  C   UNL     1       3.203   3.616  16.771  0.00  0.00    +0.000 C 
ATOM     26  C   UNL     1       5.196   4.288  15.540  0.00  0.00    +0.000 A 
ENDBRANCH  16  23
ENDBRANCH   1  16
TORSDOF 4
ENDMDL
MODEL 2
REMARK VINA RESULT:      -8.7      0.130      1.147
REMARK  Name = 
REMARK  7 active torsions:
REMARK  status: ('A' for Active; 'I' for Inactive)
REMARK    1  A    between atoms: C_1  and  C_2
REMARK    2  A    between atoms: C_4  and  C_5
REMARK    3  A    between atoms: C_6  and  N_7
REMARK    4  A    between atoms: N_7  and  C_8
REMARK    5  A    between atoms: C_13  and  C_14
REMARK    6  A    between atoms: C_17  and  N_18
REMARK    7  A    between atoms: C_23  and  C_24
REMARK                            x       y       z     vdW  Elec       q    Type
REMARK                         _______ _______ _______ _____ _____    ______ ____
ROOT
ATOM      1  C   UNL     1       3.609   4.217  19.888  0.00  0.00    +0.000 A 
ATOM      2  C   UNL     1       3.693   2.863  20.277  0.00  0.00    +0.000 A 
ATOM      3  C   UNL     1       2.683   2.250  21.011  0.00  0.00    +0.000 A 
ATOM      4  C   UNL     1       1.563   2.984  21.364  0.00  0.00    +0.000 A 
ATOM      5  C   UNL     1       1.439   4.314  20.948  0.00  0.00    +0.000 A 
ATOM      6  C   UNL     1       2.433   4.969  20.177  0.00  0.00    +0.000 A 
ENDROOT
BRANCH   6   7
ATOM      7  C   UNL     1       2.174   6.378  19.725  0.00  0.00    +0.000 A 
ATOM      8  C   UNL     1       1.673   7.382  20.574  0.00  0.00    +0.000 A 
ATOM      9  C   UNL     1       1.493   8.705  20.137  0.00  0.00    +0.000 A 
ATOM     10  C   UNL     1       1.758   9.040  18.807  0.00  0.00    +0.000 A 
ATOM     11  C   UNL     1       2.209   8.064  17.919  0.00  0.00    +0.000 A 
ATOM     12  C   UNL     1       2.426   6.759  18.385  0.00  0.00    +0.000 A 
BRANCH  10  13
ATOM     13  N   UNL     1       1.563  10.418  18.341  0.00  0.00    +0.000 N 
ATOM     14  O   UNL     1       0.556  11.023  18.736  0.00  0.00    +0.000 OA
ATOM     15  O   UNL     1       2.419  10.900  17.584  0.00  0.00    +0.000 OA
ENDBRANCH  10  13
ENDBRANCH   6   7
BRANCH   1  16
ATOM     16  N   UNL     1       4.749   4.790  19.285  0.00  0.00    +0.000 N 
ATOM     17  H   UNL     1       5.387   5.192  19.961  0.00  0.00    +0.000 HD
BRANCH  16  23
ATOM     18  C   UNL     1       7.108   4.729  14.012  0.00  0.00    +0.000 C 
ATOM     19  C   UNL     1       6.477   4.783  15.371  0.00  0.00    +0.000 A 
ATOM     20  C   UNL     1       7.153   5.294  16.473  0.00  0.00    +0.000 A 
ATOM     21  C   UNL     1       6.560   5.304  17.750  0.00  0.00    +0.000 A 
ATOM     22  C   UNL     1       7.348   5.916  18.880  0.00  0.00    +0.000 C 
ATOM     23  C   UNL     1       5.262   4.751  17.958  0.00  0.00    +0.000 A 
ATOM     24  C   UNL     1       4.566   4.253  16.828  0.00  0.00    +0.000 A 
ATOM     25  C   UNL     1       3.207   3.603  16.800  0.00  0.00    +0.000 C 
ATOM     26  C   UNL     1       5.195   4.273  15.561  0.00  0.00    +0.000 A 
ENDBRANCH  16  23
ENDBRANCH   1  16
TORSDOF 4
ENDMDL
MODEL 3
REMARK VINA RESULT:      -8.6      2.981      6.085
REMARK  Name = 
REMARK  7 active torsions:
REMARK  status: ('A' for Active; 'I' for Inactive)
REMARK    1  A    between atoms: C_1  and  C_2
REMARK    2  A    between atoms: C_4  and  C_5
REMARK    3  A    between atoms: C_6  and  N_7
REMARK    4  A    between atoms: N_7  and  C_8
REMARK    5  A    between atoms: C_13  and  C_14
REMARK    6  A    between atoms: C_17  and  N_18
REMARK    7  A    between atoms: C_23  and  C_24
REMARK                            x       y       z     vdW  Elec       q    Type
REMARK                         _______ _______ _______ _____ _____    ______ ____
ROOT
ATOM      1  C   UNL     1       2.756   5.065  20.084  0.00  0.00    +0.000 A 
ATOM      2  C   UNL     1       1.923   4.730  21.174  0.00  0.00    +0.000 A 
ATOM      3  C   UNL     1       1.450   3.436  21.361  0.00  0.00    +0.000 A 
ATOM      4  C   UNL     1       1.809   2.448  20.460  0.00  0.00    +0.000 A 
ATOM      5  C   UNL     1       2.672   2.748  19.401  0.00  0.00    +0.000 A 
ATOM      6  C   UNL     1       3.197   4.048  19.188  0.00  0.00    +0.000 A 
ENDROOT
BRANCH   6   7
ATOM      7  C   UNL     1       4.168   4.251  18.060  0.00  0.00    +0.000 A 
ATOM      8  C   UNL     1       5.483   4.717  18.246  0.00  0.00    +0.000 A 
ATOM      9  C   UNL     1       6.386   4.844  17.177  0.00  0.00    +0.000 A 
ATOM     10  C   UNL     1       5.967   4.560  15.875  0.00  0.00    +0.000 A 
ATOM     11  C   UNL     1       4.658   4.143  15.640  0.00  0.00    +0.000 A 
ATOM     12  C   UNL     1       3.784   3.979  16.725  0.00  0.00    +0.000 A 
BRANCH  10  13
ATOM     13  N   UNL     1       6.903   4.699  14.753  0.00  0.00    +0.000 N 
ATOM     14  O   UNL     1       6.705   4.003  13.747  0.00  0.00    +0.000 OA
ATOM     15  O   UNL     1       7.835   5.508  14.875  0.00  0.00    +0.000 OA
ENDBRANCH  10  13
ENDBRANCH   6   7
BRANCH   1  16
ATOM     16  N   UNL     1       3.054   6.431  19.892  0.00  0.00    +0.000 N 
ATOM     17  H   UNL     1       4.050   6.610  19.848  0.00  0.00    +0.000 HD
BRANCH  16  23
ATOM     18  C   UNL     1      -0.126  10.971  18.266  0.00  0.00    +0.000 C 
ATOM     19  C   UNL     1       0.729   9.820  18.702  0.00  0.00    +0.000 A 
ATOM     20  C   UNL     1       1.598   9.179  17.826  0.00  0.00    +0.000 A 
ATOM     21  C   UNL     1       2.368   8.076  18.242  0.00  0.00    +0.000 A 
ATOM     22  C   UNL     1       3.315   7.469  17.238  0.00  0.00    +0.000 C 
ATOM     23  C   UNL     1       2.248   7.558  19.566  0.00  0.00    +0.000 A 
ATOM     24  C   UNL     1       1.381   8.229  20.463  0.00  0.00    +0.000 A 
ATOM     25  C   UNL     1       1.070   7.858  21.890  0.00  0.00    +0.000 C 
ATOM     26  C   UNL     1       0.634   9.340  20.006  0.00  0.00    +0.000 A 
ENDBRANCH  16  23
ENDBRANCH   1  16
TORSDOF 4
ENDMDL
MODEL 4
REMARK VINA RESULT:      -8.2      0.334      1.883
REMARK  Name = 
REMARK  7 active torsions:
REMARK  status: ('A' for Active; 'I' for Inactive)
REMARK    1  A    between atoms: C_1  and  C_2
REMARK    2  A    between atoms: C_4  and  C_5
REMARK    3  A    between atoms: C_6  and  N_7
REMARK    4  A    between atoms: N_7  and  C_8
REMARK    5  A    between atoms: C_13  and  C_14
REMARK    6  A    between atoms: C_17  and  N_18
REMARK    7  A    between atoms: C_23  and  C_24
REMARK                            x       y       z     vdW  Elec       q    Type
REMARK                         _______ _______ _______ _____ _____    ______ ____
ROOT
ATOM      1  C   UNL     1       3.575   4.575  19.807  0.00  0.00    +0.000 A 
ATOM      2  C   UNL     1       3.679   3.207  20.139  0.00  0.00    +0.000 A 
ATOM      3  C   UNL     1       2.665   2.540  20.818  0.00  0.00    +0.000 A 
ATOM      4  C   UNL     1       1.519   3.233  21.172  0.00  0.00    +0.000 A 
ATOM      5  C   UNL     1       1.376   4.577  20.811  0.00  0.00    +0.000 A 
ATOM      6  C   UNL     1       2.374   5.287  20.096  0.00  0.00    +0.000 A 
ENDROOT
BRANCH   6   7
ATOM      7  C   UNL     1       2.094   6.708  19.699  0.00  0.00    +0.000 A 
ATOM      8  C   UNL     1       2.368   7.221  18.417  0.00  0.00    +0.000 A 
ATOM      9  C   UNL     1       2.044   8.540  18.058  0.00  0.00    +0.000 A 
ATOM     10  C   UNL     1       1.486   9.402  19.005  0.00  0.00    +0.000 A 
ATOM     11  C   UNL     1       1.244   8.949  20.301  0.00  0.00    +0.000 A 
ATOM     12  C   UNL     1       1.532   7.616  20.629  0.00  0.00    +0.000 A 
BRANCH  10  13
ATOM     13  N   UNL     1       1.153  10.783  18.638  0.00  0.00    +0.000 N 
ATOM     14  O   UNL     1      -0.029  11.139  18.745  0.00  0.00    +0.000 OA
ATOM     15  O   UNL     1       2.074  11.516  18.247  0.00  0.00    +0.000 OA
ENDBRANCH  10  13
ENDBRANCH   6   7
BRANCH   1  16
ATOM     16  N   UNL     1       4.717   5.199  19.260  0.00  0.00    +0.000 N 
ATOM     17  H   UNL     1       5.243   5.721  19.951  0.00  0.00    +0.000 HD
BRANCH  16  23
ATOM     18  C   UNL     1       7.074   4.668  14.014  0.00  0.00    +0.000 C 
ATOM     19  C   UNL     1       6.478   4.767  15.386  0.00  0.00    +0.000 A 
ATOM     20  C   UNL     1       5.163   4.395  15.642  0.00  0.00    +0.000 A 
ATOM     21  C   UNL     1       4.608   4.528  16.929  0.00  0.00    +0.000 A 
ATOM     22  C   UNL     1       3.188   4.062  17.126  0.00  0.00    +0.000 C 
ATOM     23  C   UNL     1       5.366   5.088  17.999  0.00  0.00    +0.000 A 
ATOM     24  C   UNL     1       6.713   5.443  17.741  0.00  0.00    +0.000 A 
ATOM     25  C   UNL     1       7.698   6.071  18.694  0.00  0.00    +0.000 C 
ATOM     26  C   UNL     1       7.235   5.282  16.435  0.00  0.00    +0.000 A 
ENDBRANCH  16  23
ENDBRANCH   1  16
TORSDOF 4
ENDMDL
MODEL 5
REMARK VINA RESULT:      -8.1      2.946      5.966
REMARK  Name = 
REMARK  7 active torsions:
REMARK  status: ('A' for Active; 'I' for Inactive)
REMARK    1  A    between atoms: C_1  and  C_2
REMARK    2  A    between atoms: C_4  and  C_5
REMARK    3  A    between atoms: C_6  and  N_7
REMARK    4  A    between atoms: N_7  and  C_8
REMARK    5  A    between atoms: C_13  and  C_14
REMARK    6  A    between atoms: C_17  and  N_18
REMARK    7  A    between atoms: C_23  and  C_24
REMARK                            x       y       z     vdW  Elec       q    Type
REMARK                         _______ _______ _______ _____ _____    ______ ____
ROOT
ATOM      1  C   UNL     1       2.723   4.955  20.108  0.00  0.00    +0.000 A 
ATOM      2  C   UNL     1       1.854   4.576  21.154  0.00  0.00    +0.000 A 
ATOM      3  C   UNL     1       1.331   3.291  21.239  0.00  0.00    +0.000 A 
ATOM      4  C   UNL     1       1.674   2.356  20.277  0.00  0.00    +0.000 A 
ATOM      5  C   UNL     1       2.571   2.697  19.259  0.00  0.00    +0.000 A 
ATOM      6  C   UNL     1       3.148   3.989  19.150  0.00  0.00    +0.000 A 
ENDROOT
BRANCH   6   7
ATOM      7  C   UNL     1       4.150   4.234  18.059  0.00  0.00    +0.000 A 
ATOM      8  C   UNL     1       5.456   4.700  18.299  0.00  0.00    +0.000 A 
ATOM      9  C   UNL     1       6.389   4.867  17.262  0.00  0.00    +0.000 A 
ATOM     10  C   UNL     1       6.011   4.625  15.940  0.00  0.00    +0.000 A 
ATOM     11  C   UNL     1       4.711   4.210  15.652  0.00  0.00    +0.000 A 
ATOM     12  C   UNL     1       3.807   4.005  16.705  0.00  0.00    +0.000 A 
BRANCH  10  13
ATOM     13  N   UNL     1       6.978   4.806  14.851  0.00  0.00    +0.000 N 
ATOM     14  O   UNL     1       7.813   5.715  14.968  0.00  0.00    +0.000 OA
ATOM     15  O   UNL     1       6.909   4.038  13.881  0.00  0.00    +0.000 OA
ENDBRANCH  10  13
ENDBRANCH   6   7
BRANCH   1  16
ATOM     16  N   UNL     1       3.075   6.319  20.019  0.00  0.00    +0.000 N 
ATOM     17  H   UNL     1       4.045   6.488  20.258  0.00  0.00    +0.000 HD
BRANCH  16  23
ATOM     18  C   UNL     1       0.229  10.992  18.168  0.00  0.00    +0.000 C 
ATOM     19  C   UNL     1       0.937   9.755  18.632  0.00  0.00    +0.000 A 
ATOM     20  C   UNL     1       0.769   9.253  19.917  0.00  0.00    +0.000 A 
ATOM     21  C   UNL     1       1.468   8.110  20.349  0.00  0.00    +0.000 A 
ATOM     22  C   UNL     1       1.193   7.611  21.745  0.00  0.00    +0.000 C 
ATOM     23  C   UNL     1       2.402   7.457  19.492  0.00  0.00    +0.000 A 
ATOM     24  C   UNL     1       2.553   7.956  18.174  0.00  0.00    +0.000 A 
ATOM     25  C   UNL     1       3.489   7.457  17.104  0.00  0.00    +0.000 C 
ATOM     26  C   UNL     1       1.822   9.101  17.778  0.00  0.00    +0.000 A 
ENDBRANCH  16  23
ENDBRANCH   1  16
TORSDOF 4
ENDMDL
MODEL 6
REMARK VINA RESULT:      -8.1      2.823      5.930
REMARK  Name = 
REMARK  7 active torsions:
REMARK  status: ('A' for Active; 'I' for Inactive)
REMARK    1  A    between atoms: C_1  and  C_2
REMARK    2  A    between atoms: C_4  and  C_5
REMARK    3  A    between atoms: C_6  and  N_7
REMARK    4  A    between atoms: N_7  and  C_8
REMARK    5  A    between atoms: C_13  and  C_14
REMARK    6  A    between atoms: C_17  and  N_18
REMARK    7  A    between atoms: C_23  and  C_24
REMARK                            x       y       z     vdW  Elec       q    Type
REMARK                         _______ _______ _______ _____ _____    ______ ____
ROOT
ATOM      1  C   UNL     1       2.212   5.150  19.961  0.00  0.00    +0.000 A 
ATOM      2  C   UNL     1       1.150   4.639  20.738  0.00  0.00    +0.000 A 
ATOM      3  C   UNL     1       0.639   3.363  20.527  0.00  0.00    +0.000 A 
ATOM      4  C   UNL     1       1.188   2.570  19.533  0.00  0.00    +0.000 A 
ATOM      5  C   UNL     1       2.271   3.040  18.783  0.00  0.00    +0.000 A 
ATOM      6  C   UNL     1       2.839   4.324  18.983  0.00  0.00    +0.000 A 
ENDROOT
BRANCH   6   7
ATOM      7  C   UNL     1       4.043   4.708  18.170  0.00  0.00    +0.000 A 
ATOM      8  C   UNL     1       4.153   4.464  16.789  0.00  0.00    +0.000 A 
ATOM      9  C   UNL     1       5.268   4.884  16.045  0.00  0.00    +0.000 A 
ATOM     10  C   UNL     1       6.337   5.513  16.688  0.00  0.00    +0.000 A 
ATOM     11  C   UNL     1       6.291   5.730  18.064  0.00  0.00    +0.000 A 
ATOM     12  C   UNL     1       5.149   5.344  18.783  0.00  0.00    +0.000 A 
BRANCH  10  13
ATOM     13  N   UNL     1       7.508   5.946  15.918  0.00  0.00    +0.000 N 
ATOM     14  O   UNL     1       8.145   6.923  16.338  0.00  0.00    +0.000 OA
ATOM     15  O   UNL     1       7.796   5.308  14.895  0.00  0.00    +0.000 OA
ENDBRANCH  10  13
ENDBRANCH   6   7
BRANCH   1  16
ATOM     16  N   UNL     1       2.555   6.507  20.144  0.00  0.00    +0.000 N 
ATOM     17  H   UNL     1       3.460   6.624  20.585  0.00  0.00    +0.000 HD
BRANCH  16  23
ATOM     18  C   UNL     1       0.109  11.484  18.526  0.00  0.00    +0.000 C 
ATOM     19  C   UNL     1       0.711  10.171  18.929  0.00  0.00    +0.000 A 
ATOM     20  C   UNL     1       0.514   9.632  20.195  0.00  0.00    +0.000 A 
ATOM     21  C   UNL     1       1.115   8.416  20.569  0.00  0.00    +0.000 A 
ATOM     22  C   UNL     1       0.813   7.885  21.948  0.00  0.00    +0.000 C 
ATOM     23  C   UNL     1       1.979   7.720  19.673  0.00  0.00    +0.000 A 
ATOM     24  C   UNL     1       2.158   8.259  18.375  0.00  0.00    +0.000 A 
ATOM     25  C   UNL     1       3.034   7.725  17.271  0.00  0.00    +0.000 C 
ATOM     26  C   UNL     1       1.525   9.479  18.036  0.00  0.00    +0.000 A 
ENDBRANCH  16  23
ENDBRANCH   1  16
TORSDOF 4
ENDMDL
MODEL 7
REMARK VINA RESULT:      -8.1      2.930      5.905
REMARK  Name = 
REMARK  7 active torsions:
REMARK  status: ('A' for Active; 'I' for Inactive)
REMARK    1  A    between atoms: C_1  and  C_2
REMARK    2  A    between atoms: C_4  and  C_5
REMARK    3  A    between atoms: C_6  and  N_7
REMARK    4  A    between atoms: N_7  and  C_8
REMARK    5  A    between atoms: C_13  and  C_14
REMARK    6  A    between atoms: C_17  and  N_18
REMARK    7  A    between atoms: C_23  and  C_24
REMARK                            x       y       z     vdW  Elec       q    Type
REMARK                         _______ _______ _______ _____ _____    ______ ____
ROOT
ATOM      1  C   UNL     1       2.703   4.907  20.077  0.00  0.00    +0.000 A 
ATOM      2  C   UNL     1       1.832   4.556  21.131  0.00  0.00    +0.000 A 
ATOM      3  C   UNL     1       1.273   3.286  21.223  0.00  0.00    +0.000 A 
ATOM      4  C   UNL     1       1.583   2.339  20.263  0.00  0.00    +0.000 A 
ATOM      5  C   UNL     1       2.482   2.652  19.237  0.00  0.00    +0.000 A 
ATOM      6  C   UNL     1       3.094   3.926  19.120  0.00  0.00    +0.000 A 
ENDROOT
BRANCH   6   7
ATOM      7  C   UNL     1       4.095   4.139  18.021  0.00  0.00    +0.000 A 
ATOM      8  C   UNL     1       3.815   3.903  16.663  0.00  0.00    +0.000 A 
ATOM      9  C   UNL     1       4.754   4.166  15.651  0.00  0.00    +0.000 A 
ATOM     10  C   UNL     1       6.031   4.619  15.989  0.00  0.00    +0.000 A 
ATOM     11  C   UNL     1       6.368   4.819  17.327  0.00  0.00    +0.000 A 
ATOM     12  C   UNL     1       5.402   4.595  18.320  0.00  0.00    +0.000 A 
BRANCH  10  13
ATOM     13  N   UNL     1       7.020   4.886  14.938  0.00  0.00    +0.000 N 
ATOM     14  O   UNL     1       6.978   4.187  13.916  0.00  0.00    +0.000 OA
ATOM     15  O   UNL     1       7.838   5.798  15.131  0.00  0.00    +0.000 OA
ENDBRANCH  10  13
ENDBRANCH   6   7
BRANCH   1  16
ATOM     16  N   UNL     1       3.093   6.260  19.981  0.00  0.00    +0.000 N 
ATOM     17  H   UNL     1       4.071   6.401  20.204  0.00  0.00    +0.000 HD
BRANCH  16  23
ATOM     18  C   UNL     1       0.348  11.009  18.169  0.00  0.00    +0.000 C 
ATOM     19  C   UNL     1       1.028   9.752  18.623  0.00  0.00    +0.000 A 
ATOM     20  C   UNL     1       0.851   9.244  19.904  0.00  0.00    +0.000 A 
ATOM     21  C   UNL     1       1.526   8.083  20.326  0.00  0.00    +0.000 A 
ATOM     22  C   UNL     1       1.242   7.580  21.719  0.00  0.00    +0.000 C 
ATOM     23  C   UNL     1       2.445   7.417  19.463  0.00  0.00    +0.000 A 
ATOM     24  C   UNL     1       2.604   7.922  18.149  0.00  0.00    +0.000 A 
ATOM     25  C   UNL     1       3.528   7.411  17.074  0.00  0.00    +0.000 C 
ATOM     26  C   UNL     1       1.898   9.086  17.763  0.00  0.00    +0.000 A 
ENDBRANCH  16  23
ENDBRANCH   1  16
TORSDOF 4
ENDMDL
MODEL 8
REMARK VINA RESULT:      -8.0      2.803      6.028
REMARK  Name = 
REMARK  7 active torsions:
REMARK  status: ('A' for Active; 'I' for Inactive)
REMARK    1  A    between atoms: C_1  and  C_2
REMARK    2  A    between atoms: C_4  and  C_5
REMARK    3  A    between atoms: C_6  and  N_7
REMARK    4  A    between atoms: N_7  and  C_8
REMARK    5  A    between atoms: C_13  and  C_14
REMARK    6  A    between atoms: C_17  and  N_18
REMARK    7  A    between atoms: C_23  and  C_24
REMARK                            x       y       z     vdW  Elec       q    Type
REMARK                         _______ _______ _______ _____ _____    ______ ____
ROOT
ATOM      1  C   UNL     1       2.257   5.369  20.069  0.00  0.00    +0.000 A 
ATOM      2  C   UNL     1       1.223   4.883  20.897  0.00  0.00    +0.000 A 
ATOM      3  C   UNL     1       0.756   3.577  20.792  0.00  0.00    +0.000 A 
ATOM      4  C   UNL     1       1.323   2.729  19.856  0.00  0.00    +0.000 A 
ATOM      5  C   UNL     1       2.381   3.177  19.058  0.00  0.00    +0.000 A 
ATOM      6  C   UNL     1       2.905   4.492  19.151  0.00  0.00    +0.000 A 
ENDROOT
BRANCH   6   7
ATOM      7  C   UNL     1       4.085   4.853  18.295  0.00  0.00    +0.000 A 
ATOM      8  C   UNL     1       4.071   4.788  16.890  0.00  0.00    +0.000 A 
ATOM      9  C   UNL     1       5.173   5.185  16.114  0.00  0.00    +0.000 A 
ATOM     10  C   UNL     1       6.349   5.606  16.740  0.00  0.00    +0.000 A 
ATOM     11  C   UNL     1       6.423   5.638  18.132  0.00  0.00    +0.000 A 
ATOM     12  C   UNL     1       5.297   5.281  18.889  0.00  0.00    +0.000 A 
BRANCH  10  13
ATOM     13  N   UNL     1       7.507   6.013  15.936  0.00  0.00    +0.000 N 
ATOM     14  O   UNL     1       8.138   7.015  16.301  0.00  0.00    +0.000 OA
ATOM     15  O   UNL     1       7.789   5.330  14.941  0.00  0.00    +0.000 OA
ENDBRANCH  10  13
ENDBRANCH   6   7
BRANCH   1  16
ATOM     16  N   UNL     1       2.553   6.747  20.142  0.00  0.00    +0.000 N 
ATOM     17  H   UNL     1       3.531   6.926  20.336  0.00  0.00    +0.000 HD
BRANCH  16  23
ATOM     18  C   UNL     1      -0.374  11.460  18.531  0.00  0.00    +0.000 C 
ATOM     19  C   UNL     1       0.416  10.262  18.967  0.00  0.00    +0.000 A 
ATOM     20  C   UNL     1       1.336   9.645  18.128  0.00  0.00    +0.000 A 
ATOM     21  C   UNL     1       2.043   8.500  18.540  0.00  0.00    +0.000 A 
ATOM     22  C   UNL     1       3.052   7.921  17.581  0.00  0.00    +0.000 C 
ATOM     23  C   UNL     1       1.804   7.913  19.818  0.00  0.00    +0.000 A 
ATOM     24  C   UNL     1       0.884   8.558  20.681  0.00  0.00    +0.000 A 
ATOM     25  C   UNL     1       0.449   8.119  22.055  0.00  0.00    +0.000 C 
ATOM     26  C   UNL     1       0.203   9.714  20.230  0.00  0.00    +0.000 A 
ENDBRANCH  16  23
ENDBRANCH   1  16
TORSDOF 4
ENDMDL
MODEL 9
REMARK VINA RESULT:      -7.8      2.837      6.134
REMARK  Name = 
REMARK  7 active torsions:
REMARK  status: ('A' for Active; 'I' for Inactive)
REMARK    1  A    between atoms: C_1  and  C_2
REMARK    2  A    between atoms: C_4  and  C_5
REMARK    3  A    between atoms: C_6  and  N_7
REMARK    4  A    between atoms: N_7  and  C_8
REMARK    5  A    between atoms: C_13  and  C_14
REMARK    6  A    between atoms: C_17  and  N_18
REMARK    7  A    between atoms: C_23  and  C_24
REMARK                            x       y       z     vdW  Elec       q    Type
REMARK                         _______ _______ _______ _____ _____    ______ ____
ROOT
ATOM      1  C   UNL     1       2.203   5.466  20.064  0.00  0.00    +0.000 A 
ATOM      2  C   UNL     1       1.152   4.958  20.859  0.00  0.00    +0.000 A 
ATOM      3  C   UNL     1       0.716   3.643  20.739  0.00  0.00    +0.000 A 
ATOM      4  C   UNL     1       1.332   2.807  19.823  0.00  0.00    +0.000 A 
ATOM      5  C   UNL     1       2.406   3.277  19.059  0.00  0.00    +0.000 A 
ATOM      6  C   UNL     1       2.898   4.603  19.168  0.00  0.00    +0.000 A 
ENDROOT
BRANCH   6   7
ATOM      7  C   UNL     1       4.098   4.989  18.351  0.00  0.00    +0.000 A 
ATOM      8  C   UNL     1       5.349   5.301  18.915  0.00  0.00    +0.000 A 
ATOM      9  C   UNL     1       6.468   5.605  18.122  0.00  0.00    +0.000 A 
ATOM     10  C   UNL     1       6.342   5.660  16.732  0.00  0.00    +0.000 A 
ATOM     11  C   UNL     1       5.108   5.406  16.134  0.00  0.00    +0.000 A 
ATOM     12  C   UNL     1       4.013   5.060  16.940  0.00  0.00    +0.000 A 
BRANCH  10  13
ATOM     13  N   UNL     1       7.505   5.986  15.899  0.00  0.00    +0.000 N 
ATOM     14  O   UNL     1       7.761   5.234  14.947  0.00  0.00    +0.000 OA
ATOM     15  O   UNL     1       8.162   6.995  16.192  0.00  0.00    +0.000 OA
ENDBRANCH  10  13
ENDBRANCH   6   7
BRANCH   1  16
ATOM     16  N   UNL     1       2.466   6.850  20.146  0.00  0.00    +0.000 N 
ATOM     17  H   UNL     1       3.439   7.050  20.348  0.00  0.00    +0.000 HD
BRANCH  16  23
ATOM     18  C   UNL     1      -0.555  11.502  18.534  0.00  0.00    +0.000 C 
ATOM     19  C   UNL     1       0.258  10.320  18.971  0.00  0.00    +0.000 A 
ATOM     20  C   UNL     1       1.195   9.726  18.133  0.00  0.00    +0.000 A 
ATOM     21  C   UNL     1       1.925   8.595  18.546  0.00  0.00    +0.000 A 
ATOM     22  C   UNL     1       2.951   8.040  17.590  0.00  0.00    +0.000 C 
ATOM     23  C   UNL     1       1.694   8.000  19.821  0.00  0.00    +0.000 A 
ATOM     24  C   UNL     1       0.756   8.623  20.682  0.00  0.00    +0.000 A 
ATOM     25  C   UNL     1       0.326   8.171  22.054  0.00  0.00    +0.000 C 
ATOM     26  C   UNL     1       0.053   9.765  20.231  0.00  0.00    +0.000 A 
ENDBRANCH  16  23
ENDBRANCH   1  16
TORSDOF 4
ENDMDL
