MODEL 1
REMARK VINA RESULT:      -8.1      0.000      0.000
REMARK  Name = 
REMARK  5 active torsions:
REMARK  status: ('A' for Active; 'I' for Inactive)
REMARK    1  A    between atoms: C_1  and  C_2
REMARK    2  A    between atoms: C_4  and  C_5
REMARK    3  A    between atoms: C_10  and  C_11
REMARK    4  A    between atoms: N_13  and  C_14
REMARK    5  A    between atoms: C_14  and  C_15
REMARK                            x       y       z     vdW  Elec       q    Type
REMARK                         _______ _______ _______ _____ _____    ______ ____
ROOT
ATOM      1  C   UNL     1       1.535   2.924  21.651  0.00  0.00    +0.000 C 
ATOM      2  C   UNL     1       2.149   3.803  20.600  0.00  0.00    +0.000 A 
ATOM      3  C   UNL     1       3.167   3.302  19.777  0.00  0.00    +0.000 A 
ATOM      4  C   UNL     1       3.762   4.100  18.790  0.00  0.00    +0.000 A 
ATOM      5  C   UNL     1       4.856   3.507  17.943  0.00  0.00    +0.000 C 
ATOM      6  C   UNL     1       3.312   5.426  18.633  0.00  0.00    +0.000 A 
ATOM      7  C   UNL     1       3.886   6.336  17.619  0.00  0.00    +0.000 A 
ATOM      8  O   UNL     1       4.777   6.019  16.843  0.00  0.00    +0.000 OA
ATOM      9  C   UNL     1       3.339   7.697  17.562  0.00  0.00    +0.000 A 
ATOM     10  C   UNL     1       2.354   8.071  18.392  0.00  0.00    +0.000 A 
ATOM     11  O   UNL     1       1.804   7.219  19.345  0.00  0.00    +0.000 OA
ATOM     12  C   UNL     1       2.294   5.936  19.446  0.00  0.00    +0.000 A 
ATOM     13  C   UNL     1       1.717   5.125  20.428  0.00  0.00    +0.000 A 
ENDROOT
BRANCH  10  14
ATOM     14  C   UNL     1       1.808   9.488  18.304  0.00  0.00    +0.000 C 
ATOM     15  O   UNL     1       2.371  10.359  17.674  0.00  0.00    +0.000 OA
ATOM     16  N   UNL     1       0.628   9.684  19.004  0.00  0.00    +0.000 N 
ATOM     17  H   UNL     1       0.261   8.945  19.581  0.00  0.00    +0.000 HD
BRANCH  16  18
ATOM     18  C   UNL     1      -0.062  10.964  19.063  0.00  0.00    +0.000 C 
BRANCH  18  19
ATOM     19  C   UNL     1      -1.472  10.924  18.494  0.00  0.00    +0.000 A 
ATOM     20  C   UNL     1      -1.787   9.960  17.521  0.00  0.00    +0.000 A 
ATOM     21  C   UNL     1      -3.087   9.830  17.021  0.00  0.00    +0.000 A 
ATOM     22  C   UNL     1      -4.098  10.677  17.465  0.00  0.00    +0.000 A 
ATOM     23  C   UNL     1      -3.807  11.653  18.410  0.00  0.00    +0.000 A 
ATOM     24  C   UNL     1      -2.509  11.769  18.928  0.00  0.00    +0.000 A 
ENDBRANCH  18  19
ENDBRANCH  16  18
ENDBRANCH  10  14
TORSDOF 3
ENDMDL
MODEL 2
REMARK VINA RESULT:      -8.1      0.351      1.059
REMARK  Name = 
REMARK  5 active torsions:
REMARK  status: ('A' for Active; 'I' for Inactive)
REMARK    1  A    between atoms: C_1  and  C_2
REMARK    2  A    between atoms: C_4  and  C_5
REMARK    3  A    between atoms: C_10  and  C_11
REMARK    4  A    between atoms: N_13  and  C_14
REMARK    5  A    between atoms: C_14  and  C_15
REMARK                            x       y       z     vdW  Elec       q    Type
REMARK                         _______ _______ _______ _____ _____    ______ ____
ROOT
ATOM      1  C   UNL     1       1.847   2.882  21.631  0.00  0.00    +0.000 C 
ATOM      2  C   UNL     1       2.422   3.815  20.604  0.00  0.00    +0.000 A 
ATOM      3  C   UNL     1       3.520   3.414  19.831  0.00  0.00    +0.000 A 
ATOM      4  C   UNL     1       4.081   4.265  18.869  0.00  0.00    +0.000 A 
ATOM      5  C   UNL     1       5.265   3.781  18.076  0.00  0.00    +0.000 C 
ATOM      6  C   UNL     1       3.512   5.542  18.684  0.00  0.00    +0.000 A 
ATOM      7  C   UNL     1       4.043   6.502  17.694  0.00  0.00    +0.000 A 
ATOM      8  O   UNL     1       4.995   6.272  16.961  0.00  0.00    +0.000 OA
ATOM      9  C   UNL     1       3.370   7.804  17.604  0.00  0.00    +0.000 A 
ATOM     10  C   UNL     1       2.316   8.081  18.386  0.00  0.00    +0.000 A 
ATOM     11  O   UNL     1       1.807   7.181  19.316  0.00  0.00    +0.000 OA
ATOM     12  C   UNL     1       2.414   5.951  19.447  0.00  0.00    +0.000 A 
ATOM     13  C   UNL     1       1.873   5.089  20.405  0.00  0.00    +0.000 A 
ENDROOT
BRANCH  10  14
ATOM     14  C   UNL     1       1.640   9.438  18.266  0.00  0.00    +0.000 C 
ATOM     15  O   UNL     1       2.063  10.307  17.531  0.00  0.00    +0.000 OA
ATOM     16  N   UNL     1       0.518   9.584  19.065  0.00  0.00    +0.000 N 
ATOM     17  H   UNL     1       0.273   8.860  19.719  0.00  0.00    +0.000 HD
BRANCH  16  18
ATOM     18  C   UNL     1      -0.275  10.804  19.113  0.00  0.00    +0.000 C 
BRANCH  18  19
ATOM     19  C   UNL     1      -1.556  10.732  18.296  0.00  0.00    +0.000 A 
ATOM     20  C   UNL     1      -2.636  11.559  18.649  0.00  0.00    +0.000 A 
ATOM     21  C   UNL     1      -3.809  11.587  17.886  0.00  0.00    +0.000 A 
ATOM     22  C   UNL     1      -3.937  10.772  16.766  0.00  0.00    +0.000 A 
ATOM     23  C   UNL     1      -2.892   9.928  16.410  0.00  0.00    +0.000 A 
ATOM     24  C   UNL     1      -1.708   9.915  17.161  0.00  0.00    +0.000 A 
ENDBRANCH  18  19
ENDBRANCH  16  18
ENDBRANCH  10  14
TORSDOF 3
ENDMDL
MODEL 3
REMARK VINA RESULT:      -8.1      1.643      3.150
REMARK  Name = 
REMARK  5 active torsions:
REMARK  status: ('A' for Active; 'I' for Inactive)
REMARK    1  A    between atoms: C_1  and  C_2
REMARK    2  A    between atoms: C_4  and  C_5
REMARK    3  A    between atoms: C_10  and  C_11
REMARK    4  A    between atoms: N_13  and  C_14
REMARK    5  A    between atoms: C_14  and  C_15
REMARK                            x       y       z     vdW  Elec       q    Type
REMARK                         _______ _______ _______ _____ _____    ______ ____
ROOT
ATOM      1  C   UNL     1       6.008   5.134  15.191  0.00  0.00    +0.000 C 
ATOM      2  C   UNL     1       5.079   4.927  16.352  0.00  0.00    +0.000 A 
ATOM      3  C   UNL     1       4.793   3.629  16.796  0.00  0.00    +0.000 A 
ATOM      4  C   UNL     1       3.925   3.404  17.874  0.00  0.00    +0.000 A 
ATOM      5  C   UNL     1       3.651   1.987  18.299  0.00  0.00    +0.000 C 
ATOM      6  C   UNL     1       3.343   4.518  18.514  0.00  0.00    +0.000 A 
ATOM      7  C   UNL     1       2.415   4.371  19.655  0.00  0.00    +0.000 A 
ATOM      8  O   UNL     1       2.087   3.294  20.135  0.00  0.00    +0.000 OA
ATOM      9  C   UNL     1       1.867   5.606  20.229  0.00  0.00    +0.000 A 
ATOM     10  C   UNL     1       2.217   6.802  19.732  0.00  0.00    +0.000 A 
ATOM     11  O   UNL     1       3.094   6.948  18.662  0.00  0.00    +0.000 OA
ATOM     12  C   UNL     1       3.624   5.817  18.081  0.00  0.00    +0.000 A 
ATOM     13  C   UNL     1       4.488   6.019  17.001  0.00  0.00    +0.000 A 
ENDROOT
BRANCH  10  14
ATOM     14  C   UNL     1       1.633   8.062  20.351  0.00  0.00    +0.000 C 
ATOM     15  O   UNL     1       1.474   8.178  21.549  0.00  0.00    +0.000 OA
ATOM     16  N   UNL     1       1.304   9.045  19.432  0.00  0.00    +0.000 N 
ATOM     17  H   UNL     1       1.377   8.851  18.446  0.00  0.00    +0.000 HD
BRANCH  16  18
ATOM     18  C   UNL     1       0.724  10.326  19.806  0.00  0.00    +0.000 C 
BRANCH  18  19
ATOM     19  C   UNL     1      -0.561  10.654  19.062  0.00  0.00    +0.000 A 
ATOM     20  C   UNL     1      -0.868   9.946  17.887  0.00  0.00    +0.000 A 
ATOM     21  C   UNL     1      -2.073  10.156  17.206  0.00  0.00    +0.000 A 
ATOM     22  C   UNL     1      -2.988  11.094  17.672  0.00  0.00    +0.000 A 
ATOM     23  C   UNL     1      -2.698  11.823  18.819  0.00  0.00    +0.000 A 
ATOM     24  C   UNL     1      -1.501  11.599  19.514  0.00  0.00    +0.000 A 
ENDBRANCH  18  19
ENDBRANCH  16  18
ENDBRANCH  10  14
TORSDOF 3
ENDMDL
MODEL 4
REMARK VINA RESULT:      -8.0      1.237      2.821
REMARK  Name = 
REMARK  5 active torsions:
REMARK  status: ('A' for Active; 'I' for Inactive)
REMARK    1  A    between atoms: C_1  and  C_2
REMARK    2  A    between atoms: C_4  and  C_5
REMARK    3  A    between atoms: C_10  and  C_11
REMARK    4  A    between atoms: N_13  and  C_14
REMARK    5  A    between atoms: C_14  and  C_15
REMARK                            x       y       z     vdW  Elec       q    Type
REMARK                         _______ _______ _______ _____ _____    ______ ____
ROOT
ATOM      1  C   UNL     1       6.469   4.513  15.275  0.00  0.00    +0.000 C 
ATOM      2  C   UNL     1       5.519   4.878  16.378  0.00  0.00    +0.000 A 
ATOM      3  C   UNL     1       5.263   3.966  17.411  0.00  0.00    +0.000 A 
ATOM      4  C   UNL     1       4.377   4.277  18.452  0.00  0.00    +0.000 A 
ATOM      5  C   UNL     1       4.137   3.253  19.529  0.00  0.00    +0.000 C 
ATOM      6  C   UNL     1       3.745   5.537  18.447  0.00  0.00    +0.000 A 
ATOM      7  C   UNL     1       2.795   5.944  19.503  0.00  0.00    +0.000 A 
ATOM      8  O   UNL     1       2.490   5.240  20.456  0.00  0.00    +0.000 OA
ATOM      9  C   UNL     1       2.195   7.279  19.379  0.00  0.00    +0.000 A 
ATOM     10  C   UNL     1       2.520   8.079  18.352  0.00  0.00    +0.000 A 
ATOM     11  O   UNL     1       3.417   7.705  17.357  0.00  0.00    +0.000 OA
ATOM     12  C   UNL     1       3.995   6.456  17.423  0.00  0.00    +0.000 A 
ATOM     13  C   UNL     1       4.879   6.125  16.391  0.00  0.00    +0.000 A 
ENDROOT
BRANCH  10  14
ATOM     14  C   UNL     1       1.882   9.456  18.255  0.00  0.00    +0.000 C 
ATOM     15  O   UNL     1       2.284  10.300  17.481  0.00  0.00    +0.000 OA
ATOM     16  N   UNL     1       0.819   9.650  19.122  0.00  0.00    +0.000 N 
ATOM     17  H   UNL     1       0.594   8.942  19.802  0.00  0.00    +0.000 HD
BRANCH  16  18
ATOM     18  C   UNL     1       0.071  10.896  19.202  0.00  0.00    +0.000 C 
BRANCH  18  19
ATOM     19  C   UNL     1      -1.271  10.848  18.488  0.00  0.00    +0.000 A 
ATOM     20  C   UNL     1      -1.442   9.954  17.418  0.00  0.00    +0.000 A 
ATOM     21  C   UNL     1      -2.679   9.816  16.777  0.00  0.00    +0.000 A 
ATOM     22  C   UNL     1      -3.766  10.586  17.176  0.00  0.00    +0.000 A 
ATOM     23  C   UNL     1      -3.616  11.495  18.217  0.00  0.00    +0.000 A 
ATOM     24  C   UNL     1      -2.384  11.618  18.874  0.00  0.00    +0.000 A 
ENDBRANCH  18  19
ENDBRANCH  16  18
ENDBRANCH  10  14
TORSDOF 3
ENDMDL
MODEL 5
REMARK VINA RESULT:      -8.0      1.622      3.292
REMARK  Name = 
REMARK  5 active torsions:
REMARK  status: ('A' for Active; 'I' for Inactive)
REMARK    1  A    between atoms: C_1  and  C_2
REMARK    2  A    between atoms: C_4  and  C_5
REMARK    3  A    between atoms: C_10  and  C_11
REMARK    4  A    between atoms: N_13  and  C_14
REMARK    5  A    between atoms: C_14  and  C_15
REMARK                            x       y       z     vdW  Elec       q    Type
REMARK                         _______ _______ _______ _____ _____    ______ ____
ROOT
ATOM      1  C   UNL     1       5.893   5.050  15.256  0.00  0.00    +0.000 C 
ATOM      2  C   UNL     1       4.984   4.868  16.437  0.00  0.00    +0.000 A 
ATOM      3  C   UNL     1       4.713   3.581  16.920  0.00  0.00    +0.000 A 
ATOM      4  C   UNL     1       3.865   3.379  18.018  0.00  0.00    +0.000 A 
ATOM      5  C   UNL     1       3.607   1.972  18.484  0.00  0.00    +0.000 C 
ATOM      6  C   UNL     1       3.287   4.506  18.638  0.00  0.00    +0.000 A 
ATOM      7  C   UNL     1       2.379   4.383  19.798  0.00  0.00    +0.000 A 
ATOM      8  O   UNL     1       2.066   3.318  20.311  0.00  0.00    +0.000 OA
ATOM      9  C   UNL     1       1.833   5.630  20.349  0.00  0.00    +0.000 A 
ATOM     10  C   UNL     1       2.167   6.814  19.815  0.00  0.00    +0.000 A 
ATOM     11  O   UNL     1       3.025   6.938  18.727  0.00  0.00    +0.000 OA
ATOM     12  C   UNL     1       3.552   5.795  18.167  0.00  0.00    +0.000 A 
ATOM     13  C   UNL     1       4.397   5.974  17.067  0.00  0.00    +0.000 A 
ENDROOT
BRANCH  10  14
ATOM     14  C   UNL     1       1.586   8.087  20.411  0.00  0.00    +0.000 C 
ATOM     15  O   UNL     1       1.375   8.205  21.601  0.00  0.00    +0.000 OA
ATOM     16  N   UNL     1       1.322   9.078  19.480  0.00  0.00    +0.000 N 
ATOM     17  H   UNL     1       1.434   8.885  18.498  0.00  0.00    +0.000 HD
BRANCH  16  18
ATOM     18  C   UNL     1       0.755  10.373  19.831  0.00  0.00    +0.000 C 
BRANCH  18  19
ATOM     19  C   UNL     1      -0.577  10.658  19.157  0.00  0.00    +0.000 A 
ATOM     20  C   UNL     1      -1.448  11.595  19.739  0.00  0.00    +0.000 A 
ATOM     21  C   UNL     1      -2.652  11.951  19.120  0.00  0.00    +0.000 A 
ATOM     22  C   UNL     1      -3.024  11.361  17.916  0.00  0.00    +0.000 A 
ATOM     23  C   UNL     1      -2.191  10.415  17.332  0.00  0.00    +0.000 A 
ATOM     24  C   UNL     1      -0.974  10.074  17.940  0.00  0.00    +0.000 A 
ENDBRANCH  18  19
ENDBRANCH  16  18
ENDBRANCH  10  14
TORSDOF 3
ENDMDL
MODEL 6
REMARK VINA RESULT:      -8.0      4.149      8.192
REMARK  Name = 
REMARK  5 active torsions:
REMARK  status: ('A' for Active; 'I' for Inactive)
REMARK    1  A    between atoms: C_1  and  C_2
REMARK    2  A    between atoms: C_4  and  C_5
REMARK    3  A    between atoms: C_10  and  C_11
REMARK    4  A    between atoms: N_13  and  C_14
REMARK    5  A    between atoms: C_14  and  C_15
REMARK                            x       y       z     vdW  Elec       q    Type
REMARK                         _______ _______ _______ _____ _____    ______ ____
ROOT
ATOM      1  C   UNL     1       2.165   3.407  21.610  0.00  0.00    +0.000 C 
ATOM      2  C   UNL     1       2.614   4.391  20.570  0.00  0.00    +0.000 A 
ATOM      3  C   UNL     1       2.035   5.666  20.517  0.00  0.00    +0.000 A 
ATOM      4  C   UNL     1       2.431   6.605  19.554  0.00  0.00    +0.000 A 
ATOM      5  C   UNL     1       1.766   7.955  19.542  0.00  0.00    +0.000 C 
ATOM      6  C   UNL     1       3.436   6.243  18.633  0.00  0.00    +0.000 A 
ATOM      7  C   UNL     1       3.911   7.171  17.584  0.00  0.00    +0.000 A 
ATOM      8  O   UNL     1       3.485   8.308  17.435  0.00  0.00    +0.000 OA
ATOM      9  C   UNL     1       4.954   6.672  16.680  0.00  0.00    +0.000 A 
ATOM     10  C   UNL     1       5.449   5.434  16.827  0.00  0.00    +0.000 A 
ATOM     11  O   UNL     1       5.011   4.558  17.815  0.00  0.00    +0.000 OA
ATOM     12  C   UNL     1       4.023   4.975  18.679  0.00  0.00    +0.000 A 
ATOM     13  C   UNL     1       3.611   4.052  19.644  0.00  0.00    +0.000 A 
ENDROOT
BRANCH  10  14
ATOM     14  C   UNL     1       6.531   4.950  15.874  0.00  0.00    +0.000 C 
ATOM     15  O   UNL     1       7.494   4.319  16.259  0.00  0.00    +0.000 OA
ATOM     16  N   UNL     1       6.316   5.296  14.550  0.00  0.00    +0.000 N 
ATOM     17  H   UNL     1       5.545   5.897  14.310  0.00  0.00    +0.000 HD
BRANCH  16  18
ATOM     18  C   UNL     1       7.230   4.942  13.474  0.00  0.00    +0.000 C 
BRANCH  18  19
ATOM     19  C   UNL     1       6.716   3.826  12.579  0.00  0.00    +0.000 A 
ATOM     20  C   UNL     1       7.642   3.024  11.889  0.00  0.00    +0.000 A 
ATOM     21  C   UNL     1       7.226   1.936  11.114  0.00  0.00    +0.000 A 
ATOM     22  C   UNL     1       5.873   1.639  10.990  0.00  0.00    +0.000 A 
ATOM     23  C   UNL     1       4.936   2.430  11.644  0.00  0.00    +0.000 A 
ATOM     24  C   UNL     1       5.353   3.507  12.439  0.00  0.00    +0.000 A 
ENDBRANCH  18  19
ENDBRANCH  16  18
ENDBRANCH  10  14
TORSDOF 3
ENDMDL
MODEL 7
REMARK VINA RESULT:      -8.0      1.250      3.014
REMARK  Name = 
REMARK  5 active torsions:
REMARK  status: ('A' for Active; 'I' for Inactive)
REMARK    1  A    between atoms: C_1  and  C_2
REMARK    2  A    between atoms: C_4  and  C_5
REMARK    3  A    between atoms: C_10  and  C_11
REMARK    4  A    between atoms: N_13  and  C_14
REMARK    5  A    between atoms: C_14  and  C_15
REMARK                            x       y       z     vdW  Elec       q    Type
REMARK                         _______ _______ _______ _____ _____    ______ ____
ROOT
ATOM      1  C   UNL     1       6.469   4.587  15.200  0.00  0.00    +0.000 C 
ATOM      2  C   UNL     1       5.512   4.955  16.297  0.00  0.00    +0.000 A 
ATOM      3  C   UNL     1       5.239   4.040  17.323  0.00  0.00    +0.000 A 
ATOM      4  C   UNL     1       4.346   4.353  18.358  0.00  0.00    +0.000 A 
ATOM      5  C   UNL     1       4.088   3.326  19.427  0.00  0.00    +0.000 C 
ATOM      6  C   UNL     1       3.726   5.619  18.353  0.00  0.00    +0.000 A 
ATOM      7  C   UNL     1       2.770   6.029  19.403  0.00  0.00    +0.000 A 
ATOM      8  O   UNL     1       2.450   5.323  20.349  0.00  0.00    +0.000 OA
ATOM      9  C   UNL     1       2.183   7.369  19.280  0.00  0.00    +0.000 A 
ATOM     10  C   UNL     1       2.523   8.171  18.260  0.00  0.00    +0.000 A 
ATOM     11  O   UNL     1       3.426   7.795  17.271  0.00  0.00    +0.000 OA
ATOM     12  C   UNL     1       3.993   6.541  17.336  0.00  0.00    +0.000 A 
ATOM     13  C   UNL     1       4.882   6.207  16.310  0.00  0.00    +0.000 A 
ENDROOT
BRANCH  10  14
ATOM     14  C   UNL     1       1.898   9.555  18.164  0.00  0.00    +0.000 C 
ATOM     15  O   UNL     1       2.457  10.478  17.610  0.00  0.00    +0.000 OA
ATOM     16  N   UNL     1       0.653   9.656  18.763  0.00  0.00    +0.000 N 
ATOM     17  H   UNL     1       0.285   8.877  19.285  0.00  0.00    +0.000 HD
BRANCH  16  18
ATOM     18  C   UNL     1      -0.119  10.889  18.796  0.00  0.00    +0.000 C 
BRANCH  18  19
ATOM     19  C   UNL     1      -1.499  10.763  18.170  0.00  0.00    +0.000 A 
ATOM     20  C   UNL     1      -2.555  11.532  18.687  0.00  0.00    +0.000 A 
ATOM     21  C   UNL     1      -3.825  11.510  18.100  0.00  0.00    +0.000 A 
ATOM     22  C   UNL     1      -4.075  10.701  16.996  0.00  0.00    +0.000 A 
ATOM     23  C   UNL     1      -3.053   9.913  16.480  0.00  0.00    +0.000 A 
ATOM     24  C   UNL     1      -1.774   9.951  17.054  0.00  0.00    +0.000 A 
ENDBRANCH  18  19
ENDBRANCH  16  18
ENDBRANCH  10  14
TORSDOF 3
ENDMDL
MODEL 8
REMARK VINA RESULT:      -8.0      4.081      7.936
REMARK  Name = 
REMARK  5 active torsions:
REMARK  status: ('A' for Active; 'I' for Inactive)
REMARK    1  A    between atoms: C_1  and  C_2
REMARK    2  A    between atoms: C_4  and  C_5
REMARK    3  A    between atoms: C_10  and  C_11
REMARK    4  A    between atoms: N_13  and  C_14
REMARK    5  A    between atoms: C_14  and  C_15
REMARK                            x       y       z     vdW  Elec       q    Type
REMARK                         _______ _______ _______ _____ _____    ______ ____
ROOT
ATOM      1  C   UNL     1       0.934   8.653  20.664  0.00  0.00    +0.000 C 
ATOM      2  C   UNL     1       1.646   7.431  20.160  0.00  0.00    +0.000 A 
ATOM      3  C   UNL     1       1.515   6.214  20.842  0.00  0.00    +0.000 A 
ATOM      4  C   UNL     1       2.171   5.057  20.398  0.00  0.00    +0.000 A 
ATOM      5  C   UNL     1       1.997   3.782  21.178  0.00  0.00    +0.000 C 
ATOM      6  C   UNL     1       2.969   5.138  19.239  0.00  0.00    +0.000 A 
ATOM      7  C   UNL     1       3.698   3.968  18.704  0.00  0.00    +0.000 A 
ATOM      8  O   UNL     1       3.664   2.854  19.207  0.00  0.00    +0.000 OA
ATOM      9  C   UNL     1       4.504   4.184  17.496  0.00  0.00    +0.000 A 
ATOM     10  C   UNL     1       4.552   5.392  16.915  0.00  0.00    +0.000 A 
ATOM     11  O   UNL     1       3.865   6.496  17.409  0.00  0.00    +0.000 OA
ATOM     12  C   UNL     1       3.105   6.347  18.549  0.00  0.00    +0.000 A 
ATOM     13  C   UNL     1       2.446   7.490  19.011  0.00  0.00    +0.000 A 
ENDROOT
BRANCH  10  14
ATOM     14  C   UNL     1       5.395   5.580  15.663  0.00  0.00    +0.000 C 
ATOM     15  O   UNL     1       5.551   6.668  15.148  0.00  0.00    +0.000 OA
ATOM     16  N   UNL     1       5.954   4.409  15.176  0.00  0.00    +0.000 N 
ATOM     17  H   UNL     1       5.711   3.527  15.597  0.00  0.00    +0.000 HD
BRANCH  16  18
ATOM     18  C   UNL     1       6.788   4.359  13.985  0.00  0.00    +0.000 C 
BRANCH  18  19
ATOM     19  C   UNL     1       6.152   3.607  12.826  0.00  0.00    +0.000 A 
ATOM     20  C   UNL     1       6.928   2.682  12.106  0.00  0.00    +0.000 A 
ATOM     21  C   UNL     1       6.371   1.909  11.081  0.00  0.00    +0.000 A 
ATOM     22  C   UNL     1       5.032   2.060  10.736  0.00  0.00    +0.000 A 
ATOM     23  C   UNL     1       4.250   2.985  11.417  0.00  0.00    +0.000 A 
ATOM     24  C   UNL     1       4.801   3.744  12.460  0.00  0.00    +0.000 A 
ENDBRANCH  18  19
ENDBRANCH  16  18
ENDBRANCH  10  14
TORSDOF 3
ENDMDL
MODEL 9
REMARK VINA RESULT:      -7.8      2.684      7.729
REMARK  Name = 
REMARK  5 active torsions:
REMARK  status: ('A' for Active; 'I' for Inactive)
REMARK    1  A    between atoms: C_1  and  C_2
REMARK    2  A    between atoms: C_4  and  C_5
REMARK    3  A    between atoms: C_10  and  C_11
REMARK    4  A    between atoms: N_13  and  C_14
REMARK    5  A    between atoms: C_14  and  C_15
REMARK                            x       y       z     vdW  Elec       q    Type
REMARK                         _______ _______ _______ _____ _____    ______ ____
ROOT
ATOM      1  C   UNL     1      -1.204  10.758  23.236  0.00  0.00    +0.000 C 
ATOM      2  C   UNL     1      -0.449  10.392  21.991  0.00  0.00    +0.000 A 
ATOM      3  C   UNL     1      -0.414  11.279  20.907  0.00  0.00    +0.000 A 
ATOM      4  C   UNL     1       0.278  10.963  19.730  0.00  0.00    +0.000 A 
ATOM      5  C   UNL     1       0.273  11.955  18.598  0.00  0.00    +0.000 C 
ATOM      6  C   UNL     1       0.951   9.726  19.656  0.00  0.00    +0.000 A 
ATOM      7  C   UNL     1       1.702   9.312  18.452  0.00  0.00    +0.000 A 
ATOM      8  O   UNL     1       1.807   9.997  17.443  0.00  0.00    +0.000 OA
ATOM      9  C   UNL     1       2.350   7.996  18.494  0.00  0.00    +0.000 A 
ATOM     10  C   UNL     1       2.263   7.227  19.590  0.00  0.00    +0.000 A 
ATOM     11  O   UNL     1       1.563   7.612  20.728  0.00  0.00    +0.000 OA
ATOM     12  C   UNL     1       0.925   8.834  20.732  0.00  0.00    +0.000 A 
ATOM     13  C   UNL     1       0.225   9.166  21.895  0.00  0.00    +0.000 A 
ENDROOT
BRANCH  10  14
ATOM     14  C   UNL     1       2.949   5.870  19.601  0.00  0.00    +0.000 C 
ATOM     15  O   UNL     1       2.743   5.050  20.472  0.00  0.00    +0.000 OA
ATOM     16  N   UNL     1       3.817   5.666  18.541  0.00  0.00    +0.000 N 
ATOM     17  H   UNL     1       4.012   6.420  17.903  0.00  0.00    +0.000 HD
BRANCH  16  18
ATOM     18  C   UNL     1       4.584   4.442  18.361  0.00  0.00    +0.000 C 
BRANCH  18  19
ATOM     19  C   UNL     1       5.455   4.445  17.115  0.00  0.00    +0.000 A 
ATOM     20  C   UNL     1       4.891   4.056  15.888  0.00  0.00    +0.000 A 
ATOM     21  C   UNL     1       5.627   4.113  14.699  0.00  0.00    +0.000 A 
ATOM     22  C   UNL     1       6.951   4.539  14.713  0.00  0.00    +0.000 A 
ATOM     23  C   UNL     1       7.540   4.907  15.917  0.00  0.00    +0.000 A 
ATOM     24  C   UNL     1       6.796   4.871  17.106  0.00  0.00    +0.000 A 
ENDBRANCH  18  19
ENDBRANCH  16  18
ENDBRANCH  10  14
TORSDOF 3
ENDMDL
