MODEL 1
REMARK VINA RESULT:      -8.0      0.000      0.000
REMARK  Name = 
REMARK  2 active torsions:
REMARK  status: ('A' for Active; 'I' for Inactive)
REMARK    1  A    between atoms: C_8  and  C_9
REMARK    2  A    between atoms: C_15  and  O_16
REMARK                            x       y       z     vdW  Elec       q    Type
REMARK                         _______ _______ _______ _____ _____    ______ ____
ROOT
ATOM      1  C   UNL     1       7.569   4.568  17.830  0.00  0.00    +0.000 C 
ATOM      2  C   UNL     1       6.456   5.298  17.731  0.00  0.00    +0.000 C 
ATOM      3  C   UNL     1       6.383   6.670  17.172  0.00  0.00    +0.000 C 
ATOM      4  O   UNL     1       7.309   7.313  16.713  0.00  0.00    +0.000 OA
ATOM      5  O   UNL     1       5.093   7.102  17.311  0.00  0.00    +0.000 OA
ATOM      6  C   UNL     1       4.240   5.972  17.542  0.00  0.00    +0.000 C 
ATOM      7  C   UNL     1       2.969   6.376  18.314  0.00  0.00    +0.000 C 
ATOM      8  C   UNL     1       1.985   5.221  18.713  0.00  0.00    +0.000 C 
ATOM      9  C   UNL     1       1.303   4.646  17.473  0.00  0.00    +0.000 C 
ATOM     10  C   UNL     1       2.717   4.206  19.620  0.00  0.00    +0.000 C 
ATOM     11  C   UNL     1       2.061   3.385  20.725  0.00  0.00    +0.000 C 
ATOM     12  C   UNL     1       2.904   2.441  21.191  0.00  0.00    +0.000 C 
ATOM     13  C   UNL     1       4.043   2.468  20.235  0.00  0.00    +0.000 C 
ATOM     14  O   UNL     1       5.178   2.121  20.517  0.00  0.00    +0.000 OA
ATOM     15  C   UNL     1       3.560   3.108  18.936  0.00  0.00    +0.000 C 
ATOM     16  C   UNL     1       4.652   3.545  17.985  0.00  0.00    +0.000 C 
ATOM     17  C   UNL     1       5.121   4.969  18.266  0.00  0.00    +0.000 C 
ENDROOT
BRANCH  15  18
ATOM     18  O   UNL     1       2.761   2.165  18.209  0.00  0.00    +0.000 OA
ATOM     19  H   UNL     1       2.317   1.567  18.834  0.00  0.00    +0.000 HD
ENDBRANCH  15  18
TORSDOF 1
ENDMDL
MODEL 2
REMARK VINA RESULT:      -6.9      1.535      1.867
REMARK  Name = 
REMARK  2 active torsions:
REMARK  status: ('A' for Active; 'I' for Inactive)
REMARK    1  A    between atoms: C_8  and  C_9
REMARK    2  A    between atoms: C_15  and  O_16
REMARK                            x       y       z     vdW  Elec       q    Type
REMARK                         _______ _______ _______ _____ _____    ______ ____
ROOT
ATOM      1  C   UNL     1       6.079   3.522  15.442  0.00  0.00    +0.000 C 
ATOM      2  C   UNL     1       5.845   4.527  16.288  0.00  0.00    +0.000 C 
ATOM      3  C   UNL     1       6.696   5.733  16.436  0.00  0.00    +0.000 C 
ATOM      4  O   UNL     1       7.705   5.987  15.805  0.00  0.00    +0.000 OA
ATOM      5  O   UNL     1       6.167   6.488  17.448  0.00  0.00    +0.000 OA
ATOM      6  C   UNL     1       4.817   6.070  17.690  0.00  0.00    +0.000 C 
ATOM      7  C   UNL     1       4.386   6.375  19.138  0.00  0.00    +0.000 C 
ATOM      8  C   UNL     1       2.958   5.890  19.570  0.00  0.00    +0.000 C 
ATOM      9  C   UNL     1       1.879   6.701  18.854  0.00  0.00    +0.000 C 
ATOM     10  C   UNL     1       2.865   4.354  19.424  0.00  0.00    +0.000 C 
ATOM     11  C   UNL     1       2.015   3.441  20.300  0.00  0.00    +0.000 C 
ATOM     12  C   UNL     1       1.975   2.190  19.797  0.00  0.00    +0.000 C 
ATOM     13  C   UNL     1       2.598   2.319  18.453  0.00  0.00    +0.000 C 
ATOM     14  O   UNL     1       3.154   1.404  17.868  0.00  0.00    +0.000 OA
ATOM     15  C   UNL     1       2.522   3.784  18.031  0.00  0.00    +0.000 C 
ATOM     16  C   UNL     1       3.410   4.171  16.870  0.00  0.00    +0.000 C 
ATOM     17  C   UNL     1       4.801   4.595  17.330  0.00  0.00    +0.000 C 
ENDROOT
BRANCH  15  18
ATOM     18  O   UNL     1       1.182   4.092  17.619  0.00  0.00    +0.000 OA
ATOM     19  H   UNL     1       0.713   3.267  17.407  0.00  0.00    +0.000 HD
ENDBRANCH  15  18
TORSDOF 1
ENDMDL
MODEL 3
REMARK VINA RESULT:      -6.9      1.967      2.905
REMARK  Name = 
REMARK  2 active torsions:
REMARK  status: ('A' for Active; 'I' for Inactive)
REMARK    1  A    between atoms: C_8  and  C_9
REMARK    2  A    between atoms: C_15  and  O_16
REMARK                            x       y       z     vdW  Elec       q    Type
REMARK                         _______ _______ _______ _____ _____    ______ ____
ROOT
ATOM      1  C   UNL     1       5.502   7.125  17.446  0.00  0.00    +0.000 C 
ATOM      2  C   UNL     1       5.151   5.933  16.957  0.00  0.00    +0.000 C 
ATOM      3  C   UNL     1       5.560   5.399  15.635  0.00  0.00    +0.000 C 
ATOM      4  O   UNL     1       6.279   5.953  14.823  0.00  0.00    +0.000 OA
ATOM      5  O   UNL     1       4.943   4.190  15.471  0.00  0.00    +0.000 OA
ATOM      6  C   UNL     1       4.494   3.713  16.747  0.00  0.00    +0.000 C 
ATOM      7  C   UNL     1       3.295   2.756  16.599  0.00  0.00    +0.000 C 
ATOM      8  C   UNL     1       2.643   2.227  17.925  0.00  0.00    +0.000 C 
ATOM      9  C   UNL     1       3.591   1.267  18.641  0.00  0.00    +0.000 C 
ATOM     10  C   UNL     1       2.122   3.419  18.759  0.00  0.00    +0.000 C 
ATOM     11  C   UNL     1       0.910   3.379  19.683  0.00  0.00    +0.000 C 
ATOM     12  C   UNL     1       0.835   4.499  20.430  0.00  0.00    +0.000 C 
ATOM     13  C   UNL     1       2.131   5.186  20.186  0.00  0.00    +0.000 C 
ATOM     14  O   UNL     1       2.295   6.390  20.293  0.00  0.00    +0.000 OA
ATOM     15  C   UNL     1       3.129   4.151  19.672  0.00  0.00    +0.000 C 
ATOM     16  C   UNL     1       4.379   4.718  19.035  0.00  0.00    +0.000 C 
ATOM     17  C   UNL     1       4.196   4.973  17.543  0.00  0.00    +0.000 C 
ENDROOT
BRANCH  15  18
ATOM     18  O   UNL     1       3.580   3.341  20.766  0.00  0.00    +0.000 OA
ATOM     19  H   UNL     1       3.799   3.912  21.522  0.00  0.00    +0.000 HD
ENDBRANCH  15  18
TORSDOF 1
ENDMDL
MODEL 4
REMARK VINA RESULT:      -6.9      1.764      3.581
REMARK  Name = 
REMARK  2 active torsions:
REMARK  status: ('A' for Active; 'I' for Inactive)
REMARK    1  A    between atoms: C_8  and  C_9
REMARK    2  A    between atoms: C_15  and  O_16
REMARK                            x       y       z     vdW  Elec       q    Type
REMARK                         _______ _______ _______ _____ _____    ______ ____
ROOT
ATOM      1  C   UNL     1       1.808   7.248  20.153  0.00  0.00    +0.000 C 
ATOM      2  C   UNL     1       2.549   7.160  19.047  0.00  0.00    +0.000 C 
ATOM      3  C   UNL     1       2.745   8.251  18.061  0.00  0.00    +0.000 C 
ATOM      4  O   UNL     1       2.280   9.374  18.126  0.00  0.00    +0.000 OA
ATOM      5  O   UNL     1       3.504   7.750  17.039  0.00  0.00    +0.000 OA
ATOM      6  C   UNL     1       4.153   6.549  17.479  0.00  0.00    +0.000 C 
ATOM      7  C   UNL     1       4.476   5.619  16.293  0.00  0.00    +0.000 C 
ATOM      8  C   UNL     1       5.110   4.226  16.638  0.00  0.00    +0.000 C 
ATOM      9  C   UNL     1       6.534   4.401  17.161  0.00  0.00    +0.000 C 
ATOM     10  C   UNL     1       4.145   3.426  17.543  0.00  0.00    +0.000 C 
ATOM     11  C   UNL     1       4.011   1.908  17.555  0.00  0.00    +0.000 C 
ATOM     12  C   UNL     1       3.252   1.498  18.592  0.00  0.00    +0.000 C 
ATOM     13  C   UNL     1       3.075   2.722  19.418  0.00  0.00    +0.000 C 
ATOM     14  O   UNL     1       2.129   2.909  20.165  0.00  0.00    +0.000 OA
ATOM     15  C   UNL     1       4.189   3.703  19.061  0.00  0.00    +0.000 C 
ATOM     16  C   UNL     1       3.973   5.125  19.527  0.00  0.00    +0.000 C 
ATOM     17  C   UNL     1       3.203   5.953  18.503  0.00  0.00    +0.000 C 
ENDROOT
BRANCH  15  18
ATOM     18  O   UNL     1       5.414   3.273  19.670  0.00  0.00    +0.000 OA
ATOM     19  H   UNL     1       5.924   2.744  19.033  0.00  0.00    +0.000 HD
ENDBRANCH  15  18
TORSDOF 1
ENDMDL
MODEL 5
REMARK VINA RESULT:      -6.8      2.435      4.354
REMARK  Name = 
REMARK  2 active torsions:
REMARK  status: ('A' for Active; 'I' for Inactive)
REMARK    1  A    between atoms: C_8  and  C_9
REMARK    2  A    between atoms: C_15  and  O_16
REMARK                            x       y       z     vdW  Elec       q    Type
REMARK                         _______ _______ _______ _____ _____    ______ ____
ROOT
ATOM      1  C   UNL     1       2.258   8.876  17.965  0.00  0.00    +0.000 C 
ATOM      2  C   UNL     1       2.009   8.069  18.999  0.00  0.00    +0.000 C 
ATOM      3  C   UNL     1       1.453   8.502  20.304  0.00  0.00    +0.000 C 
ATOM      4  O   UNL     1       1.132   9.635  20.612  0.00  0.00    +0.000 OA
ATOM      5  O   UNL     1       1.413   7.404  21.118  0.00  0.00    +0.000 OA
ATOM      6  C   UNL     1       1.515   6.219  20.316  0.00  0.00    +0.000 C 
ATOM      7  C   UNL     1       2.104   5.044  21.122  0.00  0.00    +0.000 C 
ATOM      8  C   UNL     1       2.355   3.706  20.342  0.00  0.00    +0.000 C 
ATOM      9  C   UNL     1       1.029   3.053  19.959  0.00  0.00    +0.000 C 
ATOM     10  C   UNL     1       3.350   3.957  19.187  0.00  0.00    +0.000 C 
ATOM     11  C   UNL     1       4.347   2.935  18.651  0.00  0.00    +0.000 C 
ATOM     12  C   UNL     1       4.921   3.373  17.512  0.00  0.00    +0.000 C 
ATOM     13  C   UNL     1       4.135   4.582  17.149  0.00  0.00    +0.000 C 
ATOM     14  O   UNL     1       4.570   5.503  16.480  0.00  0.00    +0.000 OA
ATOM     15  C   UNL     1       2.785   4.501  17.857  0.00  0.00    +0.000 C 
ATOM     16  C   UNL     1       1.998   5.792  17.899  0.00  0.00    +0.000 C 
ATOM     17  C   UNL     1       2.350   6.638  19.118  0.00  0.00    +0.000 C 
ENDROOT
BRANCH  15  18
ATOM     18  O   UNL     1       1.947   3.554  17.179  0.00  0.00    +0.000 OA
ATOM     19  H   UNL     1       2.126   3.590  16.224  0.00  0.00    +0.000 HD
ENDBRANCH  15  18
TORSDOF 1
ENDMDL
MODEL 6
REMARK VINA RESULT:      -6.4      1.738      4.952
REMARK  Name = 
REMARK  2 active torsions:
REMARK  status: ('A' for Active; 'I' for Inactive)
REMARK    1  A    between atoms: C_8  and  C_9
REMARK    2  A    between atoms: C_15  and  O_16
REMARK                            x       y       z     vdW  Elec       q    Type
REMARK                         _______ _______ _______ _____ _____    ______ ____
ROOT
ATOM      1  C   UNL     1       2.480   4.587  20.680  0.00  0.00    +0.000 C 
ATOM      2  C   UNL     1       2.573   4.148  19.423  0.00  0.00    +0.000 C 
ATOM      3  C   UNL     1       1.554   3.321  18.730  0.00  0.00    +0.000 C 
ATOM      4  O   UNL     1       0.494   2.944  19.194  0.00  0.00    +0.000 OA
ATOM      5  O   UNL     1       2.045   3.018  17.490  0.00  0.00    +0.000 OA
ATOM      6  C   UNL     1       3.117   3.918  17.175  0.00  0.00    +0.000 C 
ATOM      7  C   UNL     1       4.100   3.289  16.167  0.00  0.00    +0.000 C 
ATOM      8  C   UNL     1       5.371   4.131  15.800  0.00  0.00    +0.000 C 
ATOM      9  C   UNL     1       4.982   5.357  14.975  0.00  0.00    +0.000 C 
ATOM     10  C   UNL     1       6.201   4.403  17.075  0.00  0.00    +0.000 C 
ATOM     11  C   UNL     1       7.718   4.548  17.119  0.00  0.00    +0.000 C 
ATOM     12  C   UNL     1       8.126   4.990  18.326  0.00  0.00    +0.000 C 
ATOM     13  C   UNL     1       6.866   5.375  19.017  0.00  0.00    +0.000 C 
ATOM     14  O   UNL     1       6.731   5.393  20.228  0.00  0.00    +0.000 OA
ATOM     15  C   UNL     1       5.792   5.603  17.956  0.00  0.00    +0.000 C 
ATOM     16  C   UNL     1       4.371   5.649  18.472  0.00  0.00    +0.000 C 
ATOM     17  C   UNL     1       3.733   4.265  18.519  0.00  0.00    +0.000 C 
ENDROOT
BRANCH  15  18
ATOM     18  O   UNL     1       6.017   6.866  17.315  0.00  0.00    +0.000 OA
ATOM     19  H   UNL     1       6.514   7.449  17.914  0.00  0.00    +0.000 HD
ENDBRANCH  15  18
TORSDOF 1
ENDMDL
MODEL 7
REMARK VINA RESULT:      -6.3      2.423      3.585
REMARK  Name = 
REMARK  2 active torsions:
REMARK  status: ('A' for Active; 'I' for Inactive)
REMARK    1  A    between atoms: C_8  and  C_9
REMARK    2  A    between atoms: C_15  and  O_16
REMARK                            x       y       z     vdW  Elec       q    Type
REMARK                         _______ _______ _______ _____ _____    ______ ____
ROOT
ATOM      1  C   UNL     1       4.870   3.951  13.420  0.00  0.00    +0.000 C 
ATOM      2  C   UNL     1       5.747   4.297  14.365  0.00  0.00    +0.000 C 
ATOM      3  C   UNL     1       7.137   4.750  14.115  0.00  0.00    +0.000 C 
ATOM      4  O   UNL     1       7.667   4.887  13.028  0.00  0.00    +0.000 OA
ATOM      5  O   UNL     1       7.733   4.940  15.332  0.00  0.00    +0.000 OA
ATOM      6  C   UNL     1       6.719   5.039  16.342  0.00  0.00    +0.000 C 
ATOM      7  C   UNL     1       7.260   4.618  17.723  0.00  0.00    +0.000 C 
ATOM      8  C   UNL     1       6.232   4.593  18.908  0.00  0.00    +0.000 C 
ATOM      9  C   UNL     1       5.803   6.013  19.274  0.00  0.00    +0.000 C 
ATOM     10  C   UNL     1       5.094   3.598  18.588  0.00  0.00    +0.000 C 
ATOM     11  C   UNL     1       4.327   2.782  19.622  0.00  0.00    +0.000 C 
ATOM     12  C   UNL     1       3.261   2.174  19.062  0.00  0.00    +0.000 C 
ATOM     13  C   UNL     1       3.171   2.774  17.705  0.00  0.00    +0.000 C 
ATOM     14  O   UNL     1       2.664   2.218  16.746  0.00  0.00    +0.000 OA
ATOM     15  C   UNL     1       3.921   4.104  17.722  0.00  0.00    +0.000 C 
ATOM     16  C   UNL     1       4.244   4.683  16.362  0.00  0.00    +0.000 C 
ATOM     17  C   UNL     1       5.579   4.177  15.827  0.00  0.00    +0.000 C 
ENDROOT
BRANCH  15  18
ATOM     18  O   UNL     1       3.122   5.092  18.388  0.00  0.00    +0.000 OA
ATOM     19  H   UNL     1       3.660   5.886  18.550  0.00  0.00    +0.000 HD
ENDBRANCH  15  18
TORSDOF 1
ENDMDL
MODEL 8
REMARK VINA RESULT:      -6.2      2.209      4.823
REMARK  Name = 
REMARK  2 active torsions:
REMARK  status: ('A' for Active; 'I' for Inactive)
REMARK    1  A    between atoms: C_8  and  C_9
REMARK    2  A    between atoms: C_15  and  O_16
REMARK                            x       y       z     vdW  Elec       q    Type
REMARK                         _______ _______ _______ _____ _____    ______ ____
ROOT
ATOM      1  C   UNL     1       2.224   8.617  18.546  0.00  0.00    +0.000 C 
ATOM      2  C   UNL     1       2.331   7.456  19.196  0.00  0.00    +0.000 C 
ATOM      3  C   UNL     1       1.569   7.087  20.414  0.00  0.00    +0.000 C 
ATOM      4  O   UNL     1       0.735   7.771  20.979  0.00  0.00    +0.000 OA
ATOM      5  O   UNL     1       2.010   5.857  20.818  0.00  0.00    +0.000 OA
ATOM      6  C   UNL     1       2.701   5.225  19.731  0.00  0.00    +0.000 C 
ATOM      7  C   UNL     1       3.732   4.199  20.243  0.00  0.00    +0.000 C 
ATOM      8  C   UNL     1       4.626   3.495  19.162  0.00  0.00    +0.000 C 
ATOM      9  C   UNL     1       3.786   2.543  18.312  0.00  0.00    +0.000 C 
ATOM     10  C   UNL     1       5.443   4.556  18.392  0.00  0.00    +0.000 C 
ATOM     11  C   UNL     1       6.831   4.334  17.801  0.00  0.00    +0.000 C 
ATOM     12  C   UNL     1       7.189   5.367  17.010  0.00  0.00    +0.000 C 
ATOM     13  C   UNL     1       5.945   6.170  16.875  0.00  0.00    +0.000 C 
ATOM     14  O   UNL     1       5.929   7.366  16.639  0.00  0.00    +0.000 OA
ATOM     15  C   UNL     1       4.759   5.269  17.207  0.00  0.00    +0.000 C 
ATOM     16  C   UNL     1       3.454   5.988  17.471  0.00  0.00    +0.000 C 
ATOM     17  C   UNL     1       3.300   6.374  18.939  0.00  0.00    +0.000 C 
ENDROOT
BRANCH  15  18
ATOM     18  O   UNL     1       4.504   4.391  16.101  0.00  0.00    +0.000 OA
ATOM     19  H   UNL     1       4.039   3.598  16.418  0.00  0.00    +0.000 HD
ENDBRANCH  15  18
TORSDOF 1
ENDMDL
MODEL 9
REMARK VINA RESULT:      -6.1      8.526     11.406
REMARK  Name = 
REMARK  2 active torsions:
REMARK  status: ('A' for Active; 'I' for Inactive)
REMARK    1  A    between atoms: C_8  and  C_9
REMARK    2  A    between atoms: C_15  and  O_16
REMARK                            x       y       z     vdW  Elec       q    Type
REMARK                         _______ _______ _______ _____ _____    ______ ____
ROOT
ATOM      1  C   UNL     1       8.466  15.664  21.939  0.00  0.00    +0.000 C 
ATOM      2  C   UNL     1       8.769  14.366  21.867  0.00  0.00    +0.000 C 
ATOM      3  C   UNL     1       8.746  13.419  23.007  0.00  0.00    +0.000 C 
ATOM      4  O   UNL     1       8.435  13.678  24.155  0.00  0.00    +0.000 OA
ATOM      5  O   UNL     1       9.186  12.209  22.546  0.00  0.00    +0.000 OA
ATOM      6  C   UNL     1       9.104  12.192  21.114  0.00  0.00    +0.000 C 
ATOM      7  C   UNL     1      10.119  11.205  20.505  0.00  0.00    +0.000 C 
ATOM      8  C   UNL     1      10.200  11.149  18.939  0.00  0.00    +0.000 C 
ATOM      9  C   UNL     1       8.930  10.529  18.359  0.00  0.00    +0.000 C 
ATOM     10  C   UNL     1      10.593  12.540  18.390  0.00  0.00    +0.000 C 
ATOM     11  C   UNL     1      11.406  12.784  17.124  0.00  0.00    +0.000 C 
ATOM     12  C   UNL     1      11.401  14.092  16.792  0.00  0.00    +0.000 C 
ATOM     13  C   UNL     1      10.385  14.692  17.696  0.00  0.00    +0.000 C 
ATOM     14  O   UNL     1      10.384  15.862  18.039  0.00  0.00    +0.000 OA
ATOM     15  C   UNL     1       9.467  13.576  18.189  0.00  0.00    +0.000 C 
ATOM     16  C   UNL     1       8.605  13.925  19.382  0.00  0.00    +0.000 C 
ATOM     17  C   UNL     1       9.312  13.639  20.702  0.00  0.00    +0.000 C 
ENDROOT
BRANCH  15  18
ATOM     18  O   UNL     1       8.556  13.212  17.141  0.00  0.00    +0.000 OA
ATOM     19  H   UNL     1       7.711  13.674  17.274  0.00  0.00    +0.000 HD
ENDBRANCH  15  18
TORSDOF 1
ENDMDL
