MODEL 1
REMARK VINA RESULT:      -8.6      0.000      0.000
REMARK  Name = 
REMARK  10 active torsions:
REMARK  status: ('A' for Active; 'I' for Inactive)
REMARK    1  A    between atoms: C_1  and  O_2
REMARK    2  A    between atoms: O_2  and  C_3
REMARK    3  A    between atoms: C_6  and  O_7
REMARK    4  A    between atoms: O_7  and  C_8
REMARK    5  A    between atoms: C_8  and  C_9
REMARK    6  A    between atoms: C_12  and  C_13
REMARK    7  A    between atoms: C_13  and  O_15
REMARK    8  A    between atoms: C_19  and  C_20
REMARK    9  A    between atoms: C_20  and  C_21
REMARK   10  A    between atoms: C_27  and  N_28
REMARK                            x       y       z     vdW  Elec       q    Type
REMARK                         _______ _______ _______ _____ _____    ______ ____
ROOT
ATOM      1  C   UNL     1       5.114   4.703  15.983  0.00  0.00    +0.000 A 
ATOM      2  C   UNL     1       5.683   5.968  15.794  0.00  0.00    +0.000 A 
ATOM      3  C   UNL     1       5.216   7.072  16.501  0.00  0.00    +0.000 A 
ATOM      4  C   UNL     1       4.158   6.933  17.388  0.00  0.00    +0.000 A 
ATOM      5  C   UNL     1       3.639   5.664  17.649  0.00  0.00    +0.000 A 
ATOM      6  C   UNL     1       4.122   4.525  16.968  0.00  0.00    +0.000 A 
ENDROOT
BRANCH   1   8
ATOM      7  C   UNL     1       6.308   3.883  14.106  0.00  0.00    +0.000 C 
ATOM      8  O   UNL     1       5.510   3.607  15.259  0.00  0.00    +0.000 OA
ENDBRANCH   1   8
BRANCH   4   9
ATOM      9  O   UNL     1       3.572   7.981  18.048  0.00  0.00    +0.000 OA
BRANCH   9  10
ATOM     10  C   UNL     1       2.161   8.098  17.830  0.00  0.00    +0.000 C 
BRANCH  10  11
ATOM     11  C   UNL     1       1.504   8.623  19.077  0.00  0.00    +0.000 A 
ATOM     12  C   UNL     1       1.703   7.987  20.306  0.00  0.00    +0.000 A 
ATOM     13  C   UNL     1       1.105   8.494  21.464  0.00  0.00    +0.000 A 
ATOM     14  C   UNL     1       0.308   9.643  21.394  0.00  0.00    +0.000 A 
ATOM     15  C   UNL     1       0.147  10.310  20.173  0.00  0.00    +0.000 A 
ATOM     16  C   UNL     1       0.738   9.797  19.019  0.00  0.00    +0.000 A 
BRANCH  14  17
ATOM     17  C   UNL     1      -0.316  10.139  22.646  0.00  0.00    +0.000 C 
ATOM     18  O   UNL     1      -0.312  11.316  22.963  0.00  0.00    +0.000 OA
BRANCH  17  19
ATOM     19  O   UNL     1      -0.830   9.164  23.425  0.00  0.00    +0.000 OA
ATOM     20  H   UNL     1      -1.492   8.596  22.990  0.00  0.00    +0.000 HD
ENDBRANCH  17  19
ENDBRANCH  14  17
ENDBRANCH  10  11
ENDBRANCH   9  10
ENDBRANCH   4   9
BRANCH   6  21
ATOM     21  C   UNL     1       3.558   3.158  17.328  0.00  0.00    +0.000 C 
BRANCH  21  22
ATOM     22  C   UNL     1       2.978   3.060  18.710  0.00  0.00    +0.000 A 
ATOM     23  C   UNL     1       1.639   3.297  18.950  0.00  0.00    +0.000 A 
ATOM     24  N   UNL     1       1.049   3.149  20.151  0.00  0.00    +0.000 NA
ATOM     25  C   UNL     1       1.845   2.773  21.151  0.00  0.00    +0.000 A 
ATOM     26  N   UNL     1       1.248   2.485  22.365  0.00  0.00    +0.000 N 
ATOM     27  N   UNL     1       3.157   2.559  21.045  0.00  0.00    +0.000 NA
ATOM     28  C   UNL     1       3.707   2.717  19.832  0.00  0.00    +0.000 A 
ATOM     29  H   UNL     1       0.280   2.246  22.198  0.00  0.00    +0.000 HD
ATOM     30  H   UNL     1       1.811   1.796  22.844  0.00  0.00    +0.000 HD
BRANCH  28  31
ATOM     31  N   UNL     1       5.094   2.580  19.790  0.00  0.00    +0.000 N 
ATOM     32  H   UNL     1       5.440   3.116  19.003  0.00  0.00    +0.000 HD
ATOM     33  H   UNL     1       5.525   2.842  20.673  0.00  0.00    +0.000 HD
ENDBRANCH  28  31
ENDBRANCH  21  22
ENDBRANCH   6  21
TORSDOF 9
ENDMDL
MODEL 2
REMARK VINA RESULT:      -8.5      0.315      1.082
REMARK  Name = 
REMARK  10 active torsions:
REMARK  status: ('A' for Active; 'I' for Inactive)
REMARK    1  A    between atoms: C_1  and  O_2
REMARK    2  A    between atoms: O_2  and  C_3
REMARK    3  A    between atoms: C_6  and  O_7
REMARK    4  A    between atoms: O_7  and  C_8
REMARK    5  A    between atoms: C_8  and  C_9
REMARK    6  A    between atoms: C_12  and  C_13
REMARK    7  A    between atoms: C_13  and  O_15
REMARK    8  A    between atoms: C_19  and  C_20
REMARK    9  A    between atoms: C_20  and  C_21
REMARK   10  A    between atoms: C_27  and  N_28
REMARK                            x       y       z     vdW  Elec       q    Type
REMARK                         _______ _______ _______ _____ _____    ______ ____
ROOT
ATOM      1  C   UNL     1       5.274   4.701  16.202  0.00  0.00    +0.000 A 
ATOM      2  C   UNL     1       5.931   5.932  16.093  0.00  0.00    +0.000 A 
ATOM      3  C   UNL     1       5.406   7.075  16.689  0.00  0.00    +0.000 A 
ATOM      4  C   UNL     1       4.205   7.009  17.381  0.00  0.00    +0.000 A 
ATOM      5  C   UNL     1       3.585   5.773  17.570  0.00  0.00    +0.000 A 
ATOM      6  C   UNL     1       4.119   4.595  17.002  0.00  0.00    +0.000 A 
ENDROOT
BRANCH   1   8
ATOM      7  C   UNL     1       6.251   3.758  14.259  0.00  0.00    +0.000 C 
ATOM      8  O   UNL     1       5.733   3.569  15.577  0.00  0.00    +0.000 OA
ENDBRANCH   1   8
BRANCH   4   9
ATOM      9  O   UNL     1       3.568   8.100  17.911  0.00  0.00    +0.000 OA
BRANCH   9  10
ATOM     10  C   UNL     1       2.139   8.034  17.848  0.00  0.00    +0.000 C 
BRANCH  10  11
ATOM     11  C   UNL     1       1.555   8.605  19.111  0.00  0.00    +0.000 A 
ATOM     12  C   UNL     1       0.714   9.722  19.063  0.00  0.00    +0.000 A 
ATOM     13  C   UNL     1       0.161  10.234  20.241  0.00  0.00    +0.000 A 
ATOM     14  C   UNL     1       0.445   9.627  21.470  0.00  0.00    +0.000 A 
ATOM     15  C   UNL     1       1.246   8.479  21.515  0.00  0.00    +0.000 A 
ATOM     16  C   UNL     1       1.804   7.977  20.340  0.00  0.00    +0.000 A 
BRANCH  14  17
ATOM     17  C   UNL     1      -0.156  10.211  22.695  0.00  0.00    +0.000 C 
ATOM     18  O   UNL     1       0.048   9.760  23.808  0.00  0.00    +0.000 OA
BRANCH  17  19
ATOM     19  O   UNL     1      -0.994  11.242  22.455  0.00  0.00    +0.000 OA
ATOM     20  H   UNL     1      -1.866  10.989  22.102  0.00  0.00    +0.000 HD
ENDBRANCH  17  19
ENDBRANCH  14  17
ENDBRANCH  10  11
ENDBRANCH   9  10
ENDBRANCH   4   9
BRANCH   6  21
ATOM     21  C   UNL     1       3.433   3.266  17.283  0.00  0.00    +0.000 C 
BRANCH  21  22
ATOM     22  C   UNL     1       2.890   3.118  18.675  0.00  0.00    +0.000 A 
ATOM     23  C   UNL     1       1.555   3.326  18.957  0.00  0.00    +0.000 A 
ATOM     24  N   UNL     1       0.999   3.134  20.167  0.00  0.00    +0.000 NA
ATOM     25  C   UNL     1       1.826   2.743  21.136  0.00  0.00    +0.000 A 
ATOM     26  N   UNL     1       1.266   2.410  22.355  0.00  0.00    +0.000 N 
ATOM     27  N   UNL     1       3.138   2.553  20.990  0.00  0.00    +0.000 NA
ATOM     28  C   UNL     1       3.654   2.755  19.768  0.00  0.00    +0.000 A 
ATOM     29  H   UNL     1       0.297   2.160  22.206  0.00  0.00    +0.000 HD
ATOM     30  H   UNL     1       1.851   1.716  22.799  0.00  0.00    +0.000 HD
BRANCH  28  31
ATOM     31  N   UNL     1       5.042   2.642  19.686  0.00  0.00    +0.000 N 
ATOM     32  H   UNL     1       5.371   3.301  18.990  0.00  0.00    +0.000 HD
ATOM     33  H   UNL     1       5.483   2.764  20.594  0.00  0.00    +0.000 HD
ENDBRANCH  28  31
ENDBRANCH  21  22
ENDBRANCH   6  21
TORSDOF 9
ENDMDL
MODEL 3
REMARK VINA RESULT:      -8.1      2.506      4.434
REMARK  Name = 
REMARK  10 active torsions:
REMARK  status: ('A' for Active; 'I' for Inactive)
REMARK    1  A    between atoms: C_1  and  O_2
REMARK    2  A    between atoms: O_2  and  C_3
REMARK    3  A    between atoms: C_6  and  O_7
REMARK    4  A    between atoms: O_7  and  C_8
REMARK    5  A    between atoms: C_8  and  C_9
REMARK    6  A    between atoms: C_12  and  C_13
REMARK    7  A    between atoms: C_13  and  O_15
REMARK    8  A    between atoms: C_19  and  C_20
REMARK    9  A    between atoms: C_20  and  C_21
REMARK   10  A    between atoms: C_27  and  N_28
REMARK                            x       y       z     vdW  Elec       q    Type
REMARK                         _______ _______ _______ _____ _____    ______ ____
ROOT
ATOM      1  C   UNL     1       2.317   3.218  18.600  0.00  0.00    +0.000 A 
ATOM      2  C   UNL     1       1.385   3.171  19.642  0.00  0.00    +0.000 A 
ATOM      3  C   UNL     1       1.100   4.306  20.395  0.00  0.00    +0.000 A 
ATOM      4  C   UNL     1       1.761   5.497  20.134  0.00  0.00    +0.000 A 
ATOM      5  C   UNL     1       2.628   5.580  19.044  0.00  0.00    +0.000 A 
ATOM      6  C   UNL     1       2.906   4.448  18.245  0.00  0.00    +0.000 A 
ENDROOT
BRANCH   1   8
ATOM      7  C   UNL     1       3.537   1.186  18.539  0.00  0.00    +0.000 C 
ATOM      8  O   UNL     1       2.664   2.103  17.878  0.00  0.00    +0.000 OA
ENDBRANCH   1   8
BRANCH   4   9
ATOM      9  O   UNL     1       1.616   6.632  20.888  0.00  0.00    +0.000 OA
BRANCH   9  10
ATOM     10  C   UNL     1       1.818   7.850  20.160  0.00  0.00    +0.000 C 
BRANCH  10  11
ATOM     11  C   UNL     1       0.990   8.944  20.778  0.00  0.00    +0.000 A 
ATOM     12  C   UNL     1       0.565  10.032  20.009  0.00  0.00    +0.000 A 
ATOM     13  C   UNL     1      -0.221  11.034  20.586  0.00  0.00    +0.000 A 
ATOM     14  C   UNL     1      -0.586  10.948  21.935  0.00  0.00    +0.000 A 
ATOM     15  C   UNL     1      -0.204   9.835  22.693  0.00  0.00    +0.000 A 
ATOM     16  C   UNL     1       0.587   8.841  22.117  0.00  0.00    +0.000 A 
BRANCH  14  17
ATOM     17  C   UNL     1      -1.412  12.040  22.508  0.00  0.00    +0.000 C 
ATOM     18  O   UNL     1      -1.249  13.212  22.218  0.00  0.00    +0.000 OA
BRANCH  17  19
ATOM     19  O   UNL     1      -2.311  11.622  23.424  0.00  0.00    +0.000 OA
ATOM     20  H   UNL     1      -2.374  10.655  23.527  0.00  0.00    +0.000 HD
ENDBRANCH  17  19
ENDBRANCH  14  17
ENDBRANCH  10  11
ENDBRANCH   9  10
ENDBRANCH   4   9
BRANCH   6  21
ATOM     21  C   UNL     1       3.817   4.605  17.038  0.00  0.00    +0.000 C 
BRANCH  21  22
ATOM     22  C   UNL     1       5.053   5.423  17.282  0.00  0.00    +0.000 A 
ATOM     23  C   UNL     1       5.254   6.635  16.654  0.00  0.00    +0.000 A 
ATOM     24  N   UNL     1       6.302   7.445  16.892  0.00  0.00    +0.000 NA
ATOM     25  C   UNL     1       7.195   7.002  17.777  0.00  0.00    +0.000 A 
ATOM     26  N   UNL     1       8.212   7.865  18.141  0.00  0.00    +0.000 N 
ATOM     27  N   UNL     1       7.127   5.830  18.410  0.00  0.00    +0.000 NA
ATOM     28  C   UNL     1       6.066   5.053  18.146  0.00  0.00    +0.000 A 
ATOM     29  H   UNL     1       7.908   8.814  17.964  0.00  0.00    +0.000 HD
ATOM     30  H   UNL     1       8.496   7.647  19.086  0.00  0.00    +0.000 HD
BRANCH  28  31
ATOM     31  N   UNL     1       6.088   3.798  18.754  0.00  0.00    +0.000 N 
ATOM     32  H   UNL     1       5.138   3.447  18.787  0.00  0.00    +0.000 HD
ATOM     33  H   UNL     1       6.733   3.165  18.288  0.00  0.00    +0.000 HD
ENDBRANCH  28  31
ENDBRANCH  21  22
ENDBRANCH   6  21
TORSDOF 9
ENDMDL
MODEL 4
REMARK VINA RESULT:      -8.0      1.259      1.642
REMARK  Name = 
REMARK  10 active torsions:
REMARK  status: ('A' for Active; 'I' for Inactive)
REMARK    1  A    between atoms: C_1  and  O_2
REMARK    2  A    between atoms: O_2  and  C_3
REMARK    3  A    between atoms: C_6  and  O_7
REMARK    4  A    between atoms: O_7  and  C_8
REMARK    5  A    between atoms: C_8  and  C_9
REMARK    6  A    between atoms: C_12  and  C_13
REMARK    7  A    between atoms: C_13  and  O_15
REMARK    8  A    between atoms: C_19  and  C_20
REMARK    9  A    between atoms: C_20  and  C_21
REMARK   10  A    between atoms: C_27  and  N_28
REMARK                            x       y       z     vdW  Elec       q    Type
REMARK                         _______ _______ _______ _____ _____    ______ ____
ROOT
ATOM      1  C   UNL     1       5.279   4.769  16.356  0.00  0.00    +0.000 A 
ATOM      2  C   UNL     1       5.839   6.047  16.252  0.00  0.00    +0.000 A 
ATOM      3  C   UNL     1       5.194   7.154  16.796  0.00  0.00    +0.000 A 
ATOM      4  C   UNL     1       3.970   7.003  17.431  0.00  0.00    +0.000 A 
ATOM      5  C   UNL     1       3.444   5.724  17.617  0.00  0.00    +0.000 A 
ATOM      6  C   UNL     1       4.098   4.583  17.102  0.00  0.00    +0.000 A 
ENDROOT
BRANCH   1   8
ATOM      7  C   UNL     1       6.147   3.779  14.384  0.00  0.00    +0.000 C 
ATOM      8  O   UNL     1       5.859   3.666  15.779  0.00  0.00    +0.000 OA
ENDBRANCH   1   8
BRANCH   4   9
ATOM      9  O   UNL     1       3.222   8.048  17.905  0.00  0.00    +0.000 OA
BRANCH   9  10
ATOM     10  C   UNL     1       2.354   7.703  18.992  0.00  0.00    +0.000 C 
BRANCH  10  11
ATOM     11  C   UNL     1       1.346   8.800  19.194  0.00  0.00    +0.000 A 
ATOM     12  C   UNL     1       0.919   9.145  20.481  0.00  0.00    +0.000 A 
ATOM     13  C   UNL     1      -0.003  10.180  20.660  0.00  0.00    +0.000 A 
ATOM     14  C   UNL     1      -0.499  10.876  19.552  0.00  0.00    +0.000 A 
ATOM     15  C   UNL     1      -0.037  10.566  18.267  0.00  0.00    +0.000 A 
ATOM     16  C   UNL     1       0.876   9.528  18.090  0.00  0.00    +0.000 A 
BRANCH  14  17
ATOM     17  C   UNL     1      -1.485  11.960  19.789  0.00  0.00    +0.000 C 
ATOM     18  O   UNL     1      -1.841  12.295  20.905  0.00  0.00    +0.000 OA
BRANCH  17  19
ATOM     19  O   UNL     1      -1.995  12.492  18.658  0.00  0.00    +0.000 OA
ATOM     20  H   UNL     1      -1.343  12.666  17.955  0.00  0.00    +0.000 HD
ENDBRANCH  17  19
ENDBRANCH  14  17
ENDBRANCH  10  11
ENDBRANCH   9  10
ENDBRANCH   4   9
BRANCH   6  21
ATOM     21  C   UNL     1       3.509   3.208  17.379  0.00  0.00    +0.000 C 
BRANCH  21  22
ATOM     22  C   UNL     1       2.918   3.040  18.749  0.00  0.00    +0.000 A 
ATOM     23  C   UNL     1       1.570   3.226  18.984  0.00  0.00    +0.000 A 
ATOM     24  N   UNL     1       0.973   3.015  20.172  0.00  0.00    +0.000 NA
ATOM     25  C   UNL     1       1.771   2.626  21.166  0.00  0.00    +0.000 A 
ATOM     26  N   UNL     1       1.171   2.274  22.361  0.00  0.00    +0.000 N 
ATOM     27  N   UNL     1       3.090   2.457  21.067  0.00  0.00    +0.000 NA
ATOM     28  C   UNL     1       3.646   2.677  19.866  0.00  0.00    +0.000 A 
ATOM     29  H   UNL     1       0.213   2.012  22.175  0.00  0.00    +0.000 HD
ATOM     30  H   UNL     1       1.751   1.585  22.821  0.00  0.00    +0.000 HD
BRANCH  28  31
ATOM     31  N   UNL     1       5.038   2.586  19.834  0.00  0.00    +0.000 N 
ATOM     32  H   UNL     1       5.381   3.236  19.138  0.00  0.00    +0.000 HD
ATOM     33  H   UNL     1       5.446   2.731  20.754  0.00  0.00    +0.000 HD
ENDBRANCH  28  31
ENDBRANCH  21  22
ENDBRANCH   6  21
TORSDOF 9
ENDMDL
MODEL 5
REMARK VINA RESULT:      -8.0      3.121      4.909
REMARK  Name = 
REMARK  10 active torsions:
REMARK  status: ('A' for Active; 'I' for Inactive)
REMARK    1  A    between atoms: C_1  and  O_2
REMARK    2  A    between atoms: O_2  and  C_3
REMARK    3  A    between atoms: C_6  and  O_7
REMARK    4  A    between atoms: O_7  and  C_8
REMARK    5  A    between atoms: C_8  and  C_9
REMARK    6  A    between atoms: C_12  and  C_13
REMARK    7  A    between atoms: C_13  and  O_15
REMARK    8  A    between atoms: C_19  and  C_20
REMARK    9  A    between atoms: C_20  and  C_21
REMARK   10  A    between atoms: C_27  and  N_28
REMARK                            x       y       z     vdW  Elec       q    Type
REMARK                         _______ _______ _______ _____ _____    ______ ____
ROOT
ATOM      1  C   UNL     1       3.480   3.682  19.365  0.00  0.00    +0.000 A 
ATOM      2  C   UNL     1       2.104   3.504  19.536  0.00  0.00    +0.000 A 
ATOM      3  C   UNL     1       1.299   4.551  19.976  0.00  0.00    +0.000 A 
ATOM      4  C   UNL     1       1.862   5.783  20.275  0.00  0.00    +0.000 A 
ATOM      5  C   UNL     1       3.218   5.999  20.027  0.00  0.00    +0.000 A 
ATOM      6  C   UNL     1       4.047   4.960  19.548  0.00  0.00    +0.000 A 
ENDROOT
BRANCH   1   8
ATOM      7  C   UNL     1       3.665   1.511  18.430  0.00  0.00    +0.000 C 
ATOM      8  O   UNL     1       4.311   2.655  18.990  0.00  0.00    +0.000 OA
ENDBRANCH   1   8
BRANCH   4   9
ATOM      9  O   UNL     1       1.163   6.834  20.807  0.00  0.00    +0.000 OA
BRANCH   9  10
ATOM     10  C   UNL     1       1.820   8.101  20.680  0.00  0.00    +0.000 C 
BRANCH  10  11
ATOM     11  C   UNL     1       0.897   9.078  20.005  0.00  0.00    +0.000 A 
ATOM     12  C   UNL     1       0.915   9.228  18.615  0.00  0.00    +0.000 A 
ATOM     13  C   UNL     1       0.040  10.124  17.994  0.00  0.00    +0.000 A 
ATOM     14  C   UNL     1      -0.860  10.870  18.764  0.00  0.00    +0.000 A 
ATOM     15  C   UNL     1      -0.915  10.686  20.151  0.00  0.00    +0.000 A 
ATOM     16  C   UNL     1      -0.035   9.798  20.768  0.00  0.00    +0.000 A 
BRANCH  14  17
ATOM     17  C   UNL     1      -1.764  11.817  18.064  0.00  0.00    +0.000 C 
ATOM     18  O   UNL     1      -2.977  11.762  18.157  0.00  0.00    +0.000 OA
BRANCH  17  19
ATOM     19  O   UNL     1      -1.121  12.700  17.270  0.00  0.00    +0.000 OA
ATOM     20  H   UNL     1      -0.190  12.864  17.506  0.00  0.00    +0.000 HD
ENDBRANCH  17  19
ENDBRANCH  14  17
ENDBRANCH  10  11
ENDBRANCH   9  10
ENDBRANCH   4   9
BRANCH   6  21
ATOM     21  C   UNL     1       5.506   5.263  19.244  0.00  0.00    +0.000 C 
BRANCH  21  22
ATOM     22  C   UNL     1       5.888   5.142  17.797  0.00  0.00    +0.000 A 
ATOM     23  C   UNL     1       5.004   5.460  16.786  0.00  0.00    +0.000 A 
ATOM     24  N   UNL     1       5.314   5.444  15.477  0.00  0.00    +0.000 NA
ATOM     25  C   UNL     1       6.556   5.068  15.175  0.00  0.00    +0.000 A 
ATOM     26  N   UNL     1       6.947   5.167  13.853  0.00  0.00    +0.000 N 
ATOM     27  N   UNL     1       7.480   4.697  16.063  0.00  0.00    +0.000 NA
ATOM     28  C   UNL     1       7.131   4.727  17.358  0.00  0.00    +0.000 A 
ATOM     29  H   UNL     1       6.361   5.852  13.394  0.00  0.00    +0.000 HD
ATOM     30  H   UNL     1       7.945   5.330  13.823  0.00  0.00    +0.000 HD
BRANCH  28  31
ATOM     31  N   UNL     1       8.094   4.237  18.240  0.00  0.00    +0.000 N 
ATOM     32  H   UNL     1       8.431   5.011  18.800  0.00  0.00    +0.000 HD
ATOM     33  H   UNL     1       7.736   3.466  18.798  0.00  0.00    +0.000 HD
ENDBRANCH  28  31
ENDBRANCH  21  22
ENDBRANCH   6  21
TORSDOF 9
ENDMDL
MODEL 6
REMARK VINA RESULT:      -7.9      2.791      4.661
REMARK  Name = 
REMARK  10 active torsions:
REMARK  status: ('A' for Active; 'I' for Inactive)
REMARK    1  A    between atoms: C_1  and  O_2
REMARK    2  A    between atoms: O_2  and  C_3
REMARK    3  A    between atoms: C_6  and  O_7
REMARK    4  A    between atoms: O_7  and  C_8
REMARK    5  A    between atoms: C_8  and  C_9
REMARK    6  A    between atoms: C_12  and  C_13
REMARK    7  A    between atoms: C_13  and  O_15
REMARK    8  A    between atoms: C_19  and  C_20
REMARK    9  A    between atoms: C_20  and  C_21
REMARK   10  A    between atoms: C_27  and  N_28
REMARK                            x       y       z     vdW  Elec       q    Type
REMARK                         _______ _______ _______ _____ _____    ______ ____
ROOT
ATOM      1  C   UNL     1       2.374   2.870  18.845  0.00  0.00    +0.000 A 
ATOM      2  C   UNL     1       1.476   2.887  19.918  0.00  0.00    +0.000 A 
ATOM      3  C   UNL     1       1.117   4.085  20.528  0.00  0.00    +0.000 A 
ATOM      4  C   UNL     1       1.668   5.281  20.091  0.00  0.00    +0.000 A 
ATOM      5  C   UNL     1       2.497   5.287  18.968  0.00  0.00    +0.000 A 
ATOM      6  C   UNL     1       2.848   4.085  18.313  0.00  0.00    +0.000 A 
ENDROOT
BRANCH   1   8
ATOM      7  C   UNL     1       3.921   1.073  18.877  0.00  0.00    +0.000 C 
ATOM      8  O   UNL     1       2.795   1.701  18.261  0.00  0.00    +0.000 OA
ENDBRANCH   1   8
BRANCH   4   9
ATOM      9  O   UNL     1       1.448   6.490  20.695  0.00  0.00    +0.000 OA
BRANCH   9  10
ATOM     10  C   UNL     1       2.221   7.567  20.153  0.00  0.00    +0.000 C 
BRANCH  10  11
ATOM     11  C   UNL     1       1.302   8.685  19.743  0.00  0.00    +0.000 A 
ATOM     12  C   UNL     1       1.274   9.131  18.417  0.00  0.00    +0.000 A 
ATOM     13  C   UNL     1       0.402  10.156  18.040  0.00  0.00    +0.000 A 
ATOM     14  C   UNL     1      -0.447  10.738  18.989  0.00  0.00    +0.000 A 
ATOM     15  C   UNL     1      -0.456  10.260  20.305  0.00  0.00    +0.000 A 
ATOM     16  C   UNL     1       0.420   9.243  20.680  0.00  0.00    +0.000 A 
BRANCH  14  17
ATOM     17  C   UNL     1      -1.348  11.831  18.547  0.00  0.00    +0.000 C 
ATOM     18  O   UNL     1      -0.941  12.836  17.992  0.00  0.00    +0.000 OA
BRANCH  17  19
ATOM     19  O   UNL     1      -2.644  11.637  18.872  0.00  0.00    +0.000 OA
ATOM     20  H   UNL     1      -2.836  10.785  19.306  0.00  0.00    +0.000 HD
ENDBRANCH  17  19
ENDBRANCH  14  17
ENDBRANCH  10  11
ENDBRANCH   9  10
ENDBRANCH   4   9
BRANCH   6  21
ATOM     21  C   UNL     1       3.711   4.154  17.062  0.00  0.00    +0.000 C 
BRANCH  21  22
ATOM     22  C   UNL     1       4.871   5.104  17.148  0.00  0.00    +0.000 A 
ATOM     23  C   UNL     1       4.984   6.186  16.298  0.00  0.00    +0.000 A 
ATOM     24  N   UNL     1       5.958   7.111  16.378  0.00  0.00    +0.000 NA
ATOM     25  C   UNL     1       6.867   6.923  17.334  0.00  0.00    +0.000 A 
ATOM     26  N   UNL     1       7.802   7.923  17.527  0.00  0.00    +0.000 N 
ATOM     27  N   UNL     1       6.883   5.894  18.181  0.00  0.00    +0.000 NA
ATOM     28  C   UNL     1       5.894   4.993  18.070  0.00  0.00    +0.000 A 
ATOM     29  H   UNL     1       7.425   8.790  17.171  0.00  0.00    +0.000 HD
ATOM     30  H   UNL     1       8.085   7.915  18.498  0.00  0.00    +0.000 HD
BRANCH  28  31
ATOM     31  N   UNL     1       6.008   3.885  18.909  0.00  0.00    +0.000 N 
ATOM     32  H   UNL     1       6.880   3.417  18.696  0.00  0.00    +0.000 HD
ATOM     33  H   UNL     1       5.920   4.143  19.888  0.00  0.00    +0.000 HD
ENDBRANCH  28  31
ENDBRANCH  21  22
ENDBRANCH   6  21
TORSDOF 9
ENDMDL
MODEL 7
REMARK VINA RESULT:      -7.8      3.110      4.999
REMARK  Name = 
REMARK  10 active torsions:
REMARK  status: ('A' for Active; 'I' for Inactive)
REMARK    1  A    between atoms: C_1  and  O_2
REMARK    2  A    between atoms: O_2  and  C_3
REMARK    3  A    between atoms: C_6  and  O_7
REMARK    4  A    between atoms: O_7  and  C_8
REMARK    5  A    between atoms: C_8  and  C_9
REMARK    6  A    between atoms: C_12  and  C_13
REMARK    7  A    between atoms: C_13  and  O_15
REMARK    8  A    between atoms: C_19  and  C_20
REMARK    9  A    between atoms: C_20  and  C_21
REMARK   10  A    between atoms: C_27  and  N_28
REMARK                            x       y       z     vdW  Elec       q    Type
REMARK                         _______ _______ _______ _____ _____    ______ ____
ROOT
ATOM      1  C   UNL     1       2.834   4.323  19.810  0.00  0.00    +0.000 A 
ATOM      2  C   UNL     1       2.177   5.305  20.559  0.00  0.00    +0.000 A 
ATOM      3  C   UNL     1       1.936   6.567  20.023  0.00  0.00    +0.000 A 
ATOM      4  C   UNL     1       2.370   6.873  18.742  0.00  0.00    +0.000 A 
ATOM      5  C   UNL     1       2.949   5.877  17.954  0.00  0.00    +0.000 A 
ATOM      6  C   UNL     1       3.172   4.580  18.467  0.00  0.00    +0.000 A 
ENDROOT
BRANCH   1   8
ATOM      7  C   UNL     1       2.525   2.774  21.579  0.00  0.00    +0.000 C 
ATOM      8  O   UNL     1       3.141   3.089  20.329  0.00  0.00    +0.000 OA
ENDBRANCH   1   8
BRANCH   4   9
ATOM      9  O   UNL     1       2.264   8.116  18.176  0.00  0.00    +0.000 OA
BRANCH   9  10
ATOM     10  C   UNL     1       2.049   9.174  19.118  0.00  0.00    +0.000 C 
BRANCH  10  11
ATOM     11  C   UNL     1       0.698   9.789  18.879  0.00  0.00    +0.000 A 
ATOM     12  C   UNL     1       0.178  10.732  19.772  0.00  0.00    +0.000 A 
ATOM     13  C   UNL     1      -1.070  11.313  19.532  0.00  0.00    +0.000 A 
ATOM     14  C   UNL     1      -1.802  10.956  18.393  0.00  0.00    +0.000 A 
ATOM     15  C   UNL     1      -1.262  10.050  17.472  0.00  0.00    +0.000 A 
ATOM     16  C   UNL     1      -0.021   9.465  17.719  0.00  0.00    +0.000 A 
BRANCH  14  17
ATOM     17  C   UNL     1      -3.127  11.590  18.184  0.00  0.00    +0.000 C 
ATOM     18  O   UNL     1      -3.895  11.830  19.099  0.00  0.00    +0.000 OA
BRANCH  17  19
ATOM     19  O   UNL     1      -3.426  11.816  16.887  0.00  0.00    +0.000 OA
ATOM     20  H   UNL     1      -2.971  11.233  16.252  0.00  0.00    +0.000 HD
ENDBRANCH  17  19
ENDBRANCH  14  17
ENDBRANCH  10  11
ENDBRANCH   9  10
ENDBRANCH   4   9
BRANCH   6  21
ATOM     21  C   UNL     1       3.759   3.517  17.549  0.00  0.00    +0.000 C 
BRANCH  21  22
ATOM     22  C   UNL     1       4.918   3.976  16.712  0.00  0.00    +0.000 A 
ATOM     23  C   UNL     1       4.811   4.117  15.343  0.00  0.00    +0.000 A 
ATOM     24  N   UNL     1       5.790   4.596  14.554  0.00  0.00    +0.000 NA
ATOM     25  C   UNL     1       6.929   4.920  15.166  0.00  0.00    +0.000 A 
ATOM     26  N   UNL     1       7.906   5.537  14.407  0.00  0.00    +0.000 N 
ATOM     27  N   UNL     1       7.160   4.785  16.473  0.00  0.00    +0.000 NA
ATOM     28  C   UNL     1       6.159   4.304  17.225  0.00  0.00    +0.000 A 
ATOM     29  H   UNL     1       7.465   5.977  13.610  0.00  0.00    +0.000 HD
ATOM     30  H   UNL     1       8.454   6.135  15.011  0.00  0.00    +0.000 HD
BRANCH  28  31
ATOM     31  N   UNL     1       6.478   4.087  18.565  0.00  0.00    +0.000 N 
ATOM     32  H   UNL     1       6.240   4.922  19.085  0.00  0.00    +0.000 HD
ATOM     33  H   UNL     1       6.033   3.248  18.927  0.00  0.00    +0.000 HD
ENDBRANCH  28  31
ENDBRANCH  21  22
ENDBRANCH   6  21
TORSDOF 9
ENDMDL
MODEL 8
REMARK VINA RESULT:      -7.8      1.083      1.545
REMARK  Name = 
REMARK  10 active torsions:
REMARK  status: ('A' for Active; 'I' for Inactive)
REMARK    1  A    between atoms: C_1  and  O_2
REMARK    2  A    between atoms: O_2  and  C_3
REMARK    3  A    between atoms: C_6  and  O_7
REMARK    4  A    between atoms: O_7  and  C_8
REMARK    5  A    between atoms: C_8  and  C_9
REMARK    6  A    between atoms: C_12  and  C_13
REMARK    7  A    between atoms: C_13  and  O_15
REMARK    8  A    between atoms: C_19  and  C_20
REMARK    9  A    between atoms: C_20  and  C_21
REMARK   10  A    between atoms: C_27  and  N_28
REMARK                            x       y       z     vdW  Elec       q    Type
REMARK                         _______ _______ _______ _____ _____    ______ ____
ROOT
ATOM      1  C   UNL     1       5.188   4.582  15.995  0.00  0.00    +0.000 A 
ATOM      2  C   UNL     1       5.659   5.877  15.754  0.00  0.00    +0.000 A 
ATOM      3  C   UNL     1       5.100   6.972  16.408  0.00  0.00    +0.000 A 
ATOM      4  C   UNL     1       4.046   6.790  17.291  0.00  0.00    +0.000 A 
ATOM      5  C   UNL     1       3.625   5.497  17.605  0.00  0.00    +0.000 A 
ATOM      6  C   UNL     1       4.201   4.370  16.978  0.00  0.00    +0.000 A 
ENDROOT
BRANCH   1   8
ATOM      7  C   UNL     1       6.416   3.774  14.135  0.00  0.00    +0.000 C 
ATOM      8  O   UNL     1       5.676   3.489  15.323  0.00  0.00    +0.000 OA
ENDBRANCH   1   8
BRANCH   4   9
ATOM      9  O   UNL     1       3.374   7.817  17.900  0.00  0.00    +0.000 OA
BRANCH   9  10
ATOM     10  C   UNL     1       2.389   7.393  18.850  0.00  0.00    +0.000 C 
BRANCH  10  11
ATOM     11  C   UNL     1       1.580   8.580  19.295  0.00  0.00    +0.000 A 
ATOM     12  C   UNL     1       1.146   9.532  18.367  0.00  0.00    +0.000 A 
ATOM     13  C   UNL     1       0.378  10.622  18.787  0.00  0.00    +0.000 A 
ATOM     14  C   UNL     1       0.039  10.761  20.138  0.00  0.00    +0.000 A 
ATOM     15  C   UNL     1       0.430   9.783  21.061  0.00  0.00    +0.000 A 
ATOM     16  C   UNL     1       1.204   8.702  20.641  0.00  0.00    +0.000 A 
BRANCH  14  17
ATOM     17  C   UNL     1      -0.769  11.939  20.540  0.00  0.00    +0.000 C 
ATOM     18  O   UNL     1      -1.941  12.072  20.233  0.00  0.00    +0.000 OA
BRANCH  17  19
ATOM     19  O   UNL     1      -0.071  12.874  21.220  0.00  0.00    +0.000 OA
ATOM     20  H   UNL     1       0.859  12.644  21.398  0.00  0.00    +0.000 HD
ENDBRANCH  17  19
ENDBRANCH  14  17
ENDBRANCH  10  11
ENDBRANCH   9  10
ENDBRANCH   4   9
BRANCH   6  21
ATOM     21  C   UNL     1       3.741   2.981  17.395  0.00  0.00    +0.000 C 
BRANCH  21  22
ATOM     22  C   UNL     1       3.062   2.916  18.733  0.00  0.00    +0.000 A 
ATOM     23  C   UNL     1       1.715   3.182  18.873  0.00  0.00    +0.000 A 
ATOM     24  N   UNL     1       1.038   3.065  20.031  0.00  0.00    +0.000 NA
ATOM     25  C   UNL     1       1.753   2.691  21.091  0.00  0.00    +0.000 A 
ATOM     26  N   UNL     1       1.066   2.434  22.263  0.00  0.00    +0.000 N 
ATOM     27  N   UNL     1       3.065   2.451  21.083  0.00  0.00    +0.000 NA
ATOM     28  C   UNL     1       3.703   2.578  19.909  0.00  0.00    +0.000 A 
ATOM     29  H   UNL     1       0.108   2.211  22.032  0.00  0.00    +0.000 HD
ATOM     30  H   UNL     1       1.580   1.743  22.792  0.00  0.00    +0.000 HD
BRANCH  28  31
ATOM     31  N   UNL     1       5.087   2.415  19.969  0.00  0.00    +0.000 N 
ATOM     32  H   UNL     1       5.442   2.388  19.020  0.00  0.00    +0.000 HD
ATOM     33  H   UNL     1       5.526   3.132  20.541  0.00  0.00    +0.000 HD
ENDBRANCH  28  31
ENDBRANCH  21  22
ENDBRANCH   6  21
TORSDOF 9
ENDMDL
MODEL 9
REMARK VINA RESULT:      -7.7      2.697      4.539
REMARK  Name = 
REMARK  10 active torsions:
REMARK  status: ('A' for Active; 'I' for Inactive)
REMARK    1  A    between atoms: C_1  and  O_2
REMARK    2  A    between atoms: O_2  and  C_3
REMARK    3  A    between atoms: C_6  and  O_7
REMARK    4  A    between atoms: O_7  and  C_8
REMARK    5  A    between atoms: C_8  and  C_9
REMARK    6  A    between atoms: C_12  and  C_13
REMARK    7  A    between atoms: C_13  and  O_15
REMARK    8  A    between atoms: C_19  and  C_20
REMARK    9  A    between atoms: C_20  and  C_21
REMARK   10  A    between atoms: C_27  and  N_28
REMARK                            x       y       z     vdW  Elec       q    Type
REMARK                         _______ _______ _______ _____ _____    ______ ____
ROOT
ATOM      1  C   UNL     1       3.359   3.335  19.497  0.00  0.00    +0.000 A 
ATOM      2  C   UNL     1       2.613   3.170  20.670  0.00  0.00    +0.000 A 
ATOM      3  C   UNL     1       1.906   4.235  21.220  0.00  0.00    +0.000 A 
ATOM      4  C   UNL     1       1.953   5.485  20.621  0.00  0.00    +0.000 A 
ATOM      5  C   UNL     1       2.622   5.642  19.406  0.00  0.00    +0.000 A 
ATOM      6  C   UNL     1       3.318   4.566  18.812  0.00  0.00    +0.000 A 
ENDROOT
BRANCH   1   8
ATOM      7  C   UNL     1       3.401   1.363  18.181  0.00  0.00    +0.000 C 
ATOM      8  O   UNL     1       4.115   2.323  18.962  0.00  0.00    +0.000 OA
ENDBRANCH   1   8
BRANCH   4   9
ATOM      9  O   UNL     1       1.370   6.608  21.147  0.00  0.00    +0.000 OA
BRANCH   9  10
ATOM     10  C   UNL     1       1.462   7.766  20.309  0.00  0.00    +0.000 C 
BRANCH  10  11
ATOM     11  C   UNL     1       0.780   8.925  20.982  0.00  0.00    +0.000 A 
ATOM     12  C   UNL     1       0.000   8.724  22.126  0.00  0.00    +0.000 A 
ATOM     13  C   UNL     1      -0.614   9.810  22.756  0.00  0.00    +0.000 A 
ATOM     14  C   UNL     1      -0.446  11.103  22.246  0.00  0.00    +0.000 A 
ATOM     15  C   UNL     1       0.374  11.313  21.131  0.00  0.00    +0.000 A 
ATOM     16  C   UNL     1       0.978  10.227  20.498  0.00  0.00    +0.000 A 
BRANCH  14  17
ATOM     17  C   UNL     1      -1.125  12.224  22.941  0.00  0.00    +0.000 C 
ATOM     18  O   UNL     1      -0.546  13.246  23.267  0.00  0.00    +0.000 OA
BRANCH  17  19
ATOM     19  O   UNL     1      -2.420  11.982  23.233  0.00  0.00    +0.000 OA
ATOM     20  H   UNL     1      -2.567  11.424  24.019  0.00  0.00    +0.000 HD
ENDBRANCH  17  19
ENDBRANCH  14  17
ENDBRANCH  10  11
ENDBRANCH   9  10
ENDBRANCH   4   9
BRANCH   6  21
ATOM     21  C   UNL     1       3.986   4.777  17.461  0.00  0.00    +0.000 C 
BRANCH  21  22
ATOM     22  C   UNL     1       5.178   5.690  17.483  0.00  0.00    +0.000 A 
ATOM     23  C   UNL     1       5.130   6.957  16.937  0.00  0.00    +0.000 A 
ATOM     24  N   UNL     1       6.140   7.844  16.995  0.00  0.00    +0.000 NA
ATOM     25  C   UNL     1       7.250   7.428  17.603  0.00  0.00    +0.000 A 
ATOM     26  N   UNL     1       8.256   8.356  17.795  0.00  0.00    +0.000 N 
ATOM     27  N   UNL     1       7.425   6.214  18.127  0.00  0.00    +0.000 NA
ATOM     28  C   UNL     1       6.394   5.359  18.049  0.00  0.00    +0.000 A 
ATOM     29  H   UNL     1       7.847   9.281  17.781  0.00  0.00    +0.000 HD
ATOM     30  H   UNL     1       8.775   8.101  18.625  0.00  0.00    +0.000 HD
BRANCH  28  31
ATOM     31  N   UNL     1       6.657   4.072  18.520  0.00  0.00    +0.000 N 
ATOM     32  H   UNL     1       5.791   3.548  18.502  0.00  0.00    +0.000 HD
ATOM     33  H   UNL     1       7.407   3.626  17.997  0.00  0.00    +0.000 HD
ENDBRANCH  28  31
ENDBRANCH  21  22
ENDBRANCH   6  21
TORSDOF 9
ENDMDL
