MODEL 1
REMARK VINA RESULT:      -7.9      0.000      0.000
REMARK  Name = 
REMARK  1 active torsions:
REMARK  status: ('A' for Active; 'I' for Inactive)
REMARK    1  A    between atoms: C_2  and  C_3
REMARK                            x       y       z     vdW  Elec       q    Type
REMARK                         _______ _______ _______ _____ _____    ______ ____
ROOT
ATOM      1  O   UNL     1      -0.330  11.395  21.965  0.00  0.00    +0.000 OA
ATOM      2  C   UNL     1      -0.071  11.325  20.763  0.00  0.00    +0.000 C 
ATOM      3  N   UNL     1       0.212  10.089  20.173  0.00  0.00    +0.000 N 
ATOM      4  C   UNL     1       0.782   9.883  18.835  0.00  0.00    +0.000 C 
ATOM      5  C   UNL     1       2.155   9.195  18.906  0.00  0.00    +0.000 C 
ATOM      6  N   UNL     1       2.058   7.955  19.684  0.00  0.00    +0.000 N 
ATOM      7  C   UNL     1       2.372   6.706  19.164  0.00  0.00    +0.000 A 
ATOM      8  N   UNL     1       1.780   5.648  19.673  0.00  0.00    +0.000 NA
ATOM      9  C   UNL     1       2.052   4.352  19.177  0.00  0.00    +0.000 A 
ATOM     10  C   UNL     1       1.373   3.264  19.718  0.00  0.00    +0.000 A 
ATOM     11  C   UNL     1       1.635   1.965  19.260  0.00  0.00    +0.000 A 
ATOM     12  C   UNL     1       2.580   1.742  18.255  0.00  0.00    +0.000 A 
ATOM     13  C   UNL     1       3.264   2.818  17.689  0.00  0.00    +0.000 A 
ATOM     14  C   UNL     1       2.981   4.103  18.156  0.00  0.00    +0.000 A 
ATOM     15  N   UNL     1       3.595   5.235  17.641  0.00  0.00    +0.000 N 
ATOM     16  N   UNL     1       4.512   5.291  16.661  0.00  0.00    +0.000 NA
ATOM     17  N   UNL     1       4.798   6.585  16.537  0.00  0.00    +0.000 NA
ATOM     18  N   UNL     1       4.071   7.344  17.430  0.00  0.00    +0.000 NA
ATOM     19  C   UNL     1       3.322   6.487  18.092  0.00  0.00    +0.000 A 
ATOM     20  C   UNL     1       1.496   8.136  21.034  0.00  0.00    +0.000 C 
ATOM     21  C   UNL     1       0.138   8.861  20.978  0.00  0.00    +0.000 C 
ENDROOT
BRANCH   2  22
ATOM     22  C   UNL     1       0.000  12.529  19.949  0.00  0.00    +0.000 A 
ATOM     23  C   UNL     1      -0.960  13.123  19.149  0.00  0.00    +0.000 A 
ATOM     24  C   UNL     1      -0.386  14.307  18.624  0.00  0.00    +0.000 A 
ATOM     25  C   UNL     1       0.908  14.338  19.084  0.00  0.00    +0.000 A 
ATOM     26  O   UNL     1       1.163  13.248  19.849  0.00  0.00    +0.000 OA
ENDBRANCH   2  22
TORSDOF 1
ENDMDL
MODEL 2
REMARK VINA RESULT:      -7.8      2.054      3.562
REMARK  Name = 
REMARK  1 active torsions:
REMARK  status: ('A' for Active; 'I' for Inactive)
REMARK    1  A    between atoms: C_2  and  C_3
REMARK                            x       y       z     vdW  Elec       q    Type
REMARK                         _______ _______ _______ _____ _____    ______ ____
ROOT
ATOM      1  O   UNL     1      -0.579  12.949  18.977  0.00  0.00    +0.000 OA
ATOM      2  C   UNL     1      -0.159  12.341  19.963  0.00  0.00    +0.000 C 
ATOM      3  N   UNL     1       0.786  11.319  19.812  0.00  0.00    +0.000 N 
ATOM      4  C   UNL     1       1.178  10.350  20.843  0.00  0.00    +0.000 C 
ATOM      5  C   UNL     1       0.825   8.912  20.429  0.00  0.00    +0.000 C 
ATOM      6  N   UNL     1       1.398   8.611  19.113  0.00  0.00    +0.000 N 
ATOM      7  C   UNL     1       2.302   7.580  18.896  0.00  0.00    +0.000 A 
ATOM      8  N   UNL     1       3.154   7.692  17.899  0.00  0.00    +0.000 NA
ATOM      9  C   UNL     1       4.105   6.678  17.638  0.00  0.00    +0.000 A 
ATOM     10  C   UNL     1       5.014   6.855  16.598  0.00  0.00    +0.000 A 
ATOM     11  C   UNL     1       5.956   5.861  16.302  0.00  0.00    +0.000 A 
ATOM     12  C   UNL     1       5.998   4.677  17.044  0.00  0.00    +0.000 A 
ATOM     13  C   UNL     1       5.105   4.482  18.098  0.00  0.00    +0.000 A 
ATOM     14  C   UNL     1       4.181   5.490  18.379  0.00  0.00    +0.000 A 
ATOM     15  N   UNL     1       3.269   5.396  19.419  0.00  0.00    +0.000 N 
ATOM     16  N   UNL     1       3.124   4.381  20.287  0.00  0.00    +0.000 NA
ATOM     17  N   UNL     1       2.121   4.751  21.079  0.00  0.00    +0.000 NA
ATOM     18  N   UNL     1       1.630   5.989  20.717  0.00  0.00    +0.000 NA
ATOM     19  C   UNL     1       2.368   6.374  19.696  0.00  0.00    +0.000 A 
ATOM     20  C   UNL     1       1.013   9.566  18.058  0.00  0.00    +0.000 C 
ATOM     21  C   UNL     1       1.325  11.014  18.479  0.00  0.00    +0.000 C 
ENDROOT
BRANCH   2  22
ATOM     22  C   UNL     1      -0.676  12.634  21.290  0.00  0.00    +0.000 A 
ATOM     23  C   UNL     1      -0.308  13.614  22.195  0.00  0.00    +0.000 A 
ATOM     24  C   UNL     1      -1.170  13.490  23.312  0.00  0.00    +0.000 A 
ATOM     25  C   UNL     1      -1.975  12.407  23.053  0.00  0.00    +0.000 A 
ATOM     26  O   UNL     1      -1.655  11.858  21.855  0.00  0.00    +0.000 OA
ENDBRANCH   2  22
TORSDOF 1
ENDMDL
MODEL 3
REMARK VINA RESULT:      -7.6      3.171      8.412
REMARK  Name = 
REMARK  1 active torsions:
REMARK  status: ('A' for Active; 'I' for Inactive)
REMARK    1  A    between atoms: C_2  and  C_3
REMARK                            x       y       z     vdW  Elec       q    Type
REMARK                         _______ _______ _______ _____ _____    ______ ____
ROOT
ATOM      1  O   UNL     1       4.159   5.221  16.738  0.00  0.00    +0.000 OA
ATOM      2  C   UNL     1       3.514   4.966  17.756  0.00  0.00    +0.000 C 
ATOM      3  N   UNL     1       2.548   5.866  18.222  0.00  0.00    +0.000 N 
ATOM      4  C   UNL     1       1.896   5.823  19.537  0.00  0.00    +0.000 C 
ATOM      5  C   UNL     1       2.222   7.074  20.370  0.00  0.00    +0.000 C 
ATOM      6  N   UNL     1       1.898   8.285  19.608  0.00  0.00    +0.000 N 
ATOM      7  C   UNL     1       0.984   9.235  20.045  0.00  0.00    +0.000 A 
ATOM      8  N   UNL     1       0.354   9.959  19.146  0.00  0.00    +0.000 NA
ATOM      9  C   UNL     1      -0.595  10.933  19.532  0.00  0.00    +0.000 A 
ATOM     10  C   UNL     1      -1.269  11.649  18.546  0.00  0.00    +0.000 A 
ATOM     11  C   UNL     1      -2.202  12.635  18.897  0.00  0.00    +0.000 A 
ATOM     12  C   UNL     1      -2.470  12.915  20.240  0.00  0.00    +0.000 A 
ATOM     13  C   UNL     1      -1.816  12.202  21.245  0.00  0.00    +0.000 A 
ATOM     14  C   UNL     1      -0.897  11.221  20.871  0.00  0.00    +0.000 A 
ATOM     15  N   UNL     1      -0.215  10.447  21.798  0.00  0.00    +0.000 N 
ATOM     16  N   UNL     1      -0.313  10.502  23.137  0.00  0.00    +0.000 NA
ATOM     17  N   UNL     1       0.540   9.581  23.578  0.00  0.00    +0.000 NA
ATOM     18  N   UNL     1       1.176   8.947  22.531  0.00  0.00    +0.000 NA
ATOM     19  C   UNL     1       0.680   9.490  21.438  0.00  0.00    +0.000 A 
ATOM     20  C   UNL     1       2.547   8.356  18.287  0.00  0.00    +0.000 C 
ATOM     21  C   UNL     1       2.260   7.089  17.459  0.00  0.00    +0.000 C 
ENDROOT
BRANCH   2  22
ATOM     22  C   UNL     1       3.781   3.758  18.520  0.00  0.00    +0.000 A 
ATOM     23  C   UNL     1       4.634   3.549  19.590  0.00  0.00    +0.000 A 
ATOM     24  C   UNL     1       4.467   2.201  19.994  0.00  0.00    +0.000 A 
ATOM     25  C   UNL     1       3.569   1.649  19.113  0.00  0.00    +0.000 A 
ATOM     26  O   UNL     1       3.182   2.568  18.194  0.00  0.00    +0.000 OA
ENDBRANCH   2  22
TORSDOF 1
ENDMDL
MODEL 4
REMARK VINA RESULT:      -7.2      3.708      7.817
REMARK  Name = 
REMARK  1 active torsions:
REMARK  status: ('A' for Active; 'I' for Inactive)
REMARK    1  A    between atoms: C_2  and  C_3
REMARK                            x       y       z     vdW  Elec       q    Type
REMARK                         _______ _______ _______ _____ _____    ______ ____
ROOT
ATOM      1  O   UNL     1       3.550   3.238  17.141  0.00  0.00    +0.000 OA
ATOM      2  C   UNL     1       4.208   4.280  17.170  0.00  0.00    +0.000 C 
ATOM      3  N   UNL     1       3.790   5.356  17.960  0.00  0.00    +0.000 N 
ATOM      4  C   UNL     1       4.316   6.726  17.898  0.00  0.00    +0.000 C 
ATOM      5  C   UNL     1       3.230   7.729  17.474  0.00  0.00    +0.000 C 
ATOM      6  N   UNL     1       2.060   7.604  18.349  0.00  0.00    +0.000 N 
ATOM      7  C   UNL     1       1.573   8.652  19.120  0.00  0.00    +0.000 A 
ATOM      8  N   UNL     1       0.923   8.368  20.227  0.00  0.00    +0.000 NA
ATOM      9  C   UNL     1       0.415   9.394  21.056  0.00  0.00    +0.000 A 
ATOM     10  C   UNL     1      -0.232   9.049  22.240  0.00  0.00    +0.000 A 
ATOM     11  C   UNL     1      -0.763  10.042  23.074  0.00  0.00    +0.000 A 
ATOM     12  C   UNL     1      -0.654  11.393  22.731  0.00  0.00    +0.000 A 
ATOM     13  C   UNL     1       0.000  11.763  21.556  0.00  0.00    +0.000 A 
ATOM     14  C   UNL     1       0.528  10.757  20.746  0.00  0.00    +0.000 A 
ATOM     15  N   UNL     1       1.213  11.029  19.570  0.00  0.00    +0.000 N 
ATOM     16  N   UNL     1       1.473  12.234  19.038  0.00  0.00    +0.000 NA
ATOM     17  N   UNL     1       2.137  11.973  17.915  0.00  0.00    +0.000 NA
ATOM     18  N   UNL     1       2.295  10.615  17.733  0.00  0.00    +0.000 NA
ATOM     19  C   UNL     1       1.728  10.052  18.779  0.00  0.00    +0.000 A 
ATOM     20  C   UNL     1       1.508   6.240  18.424  0.00  0.00    +0.000 C 
ATOM     21  C   UNL     1       2.597   5.220  18.808  0.00  0.00    +0.000 C 
ENDROOT
BRANCH   2  22
ATOM     22  C   UNL     1       5.395   4.430  16.342  0.00  0.00    +0.000 A 
ATOM     23  C   UNL     1       5.515   4.556  14.969  0.00  0.00    +0.000 A 
ATOM     24  C   UNL     1       6.893   4.729  14.690  0.00  0.00    +0.000 A 
ATOM     25  C   UNL     1       7.540   4.640  15.899  0.00  0.00    +0.000 A 
ATOM     26  O   UNL     1       6.649   4.416  16.896  0.00  0.00    +0.000 OA
ENDBRANCH   2  22
TORSDOF 1
ENDMDL
MODEL 5
REMARK VINA RESULT:      -7.2      3.596      7.853
REMARK  Name = 
REMARK  1 active torsions:
REMARK  status: ('A' for Active; 'I' for Inactive)
REMARK    1  A    between atoms: C_2  and  C_3
REMARK                            x       y       z     vdW  Elec       q    Type
REMARK                         _______ _______ _______ _____ _____    ______ ____
ROOT
ATOM      1  O   UNL     1       4.000   2.984  18.827  0.00  0.00    +0.000 OA
ATOM      2  C   UNL     1       4.544   4.071  18.629  0.00  0.00    +0.000 C 
ATOM      3  N   UNL     1       4.020   5.237  19.200  0.00  0.00    +0.000 N 
ATOM      4  C   UNL     1       4.397   6.612  18.850  0.00  0.00    +0.000 C 
ATOM      5  C   UNL     1       3.209   7.392  18.265  0.00  0.00    +0.000 C 
ATOM      6  N   UNL     1       2.064   7.328  19.179  0.00  0.00    +0.000 N 
ATOM      7  C   UNL     1       1.474   8.454  19.738  0.00  0.00    +0.000 A 
ATOM      8  N   UNL     1       0.864   8.333  20.897  0.00  0.00    +0.000 NA
ATOM      9  C   UNL     1       0.255   9.448  21.518  0.00  0.00    +0.000 A 
ATOM     10  C   UNL     1      -0.344   9.284  22.765  0.00  0.00    +0.000 A 
ATOM     11  C   UNL     1      -0.972  10.365  23.398  0.00  0.00    +0.000 A 
ATOM     12  C   UNL     1      -1.009  11.622  22.789  0.00  0.00    +0.000 A 
ATOM     13  C   UNL     1      -0.405  11.814  21.546  0.00  0.00    +0.000 A 
ATOM     14  C   UNL     1       0.221  10.724  20.939  0.00  0.00    +0.000 A 
ATOM     15  N   UNL     1       0.866  10.822  19.714  0.00  0.00    +0.000 N 
ATOM     16  N   UNL     1       0.994  11.916  18.946  0.00  0.00    +0.000 NA
ATOM     17  N   UNL     1       1.675  11.504  17.879  0.00  0.00    +0.000 NA
ATOM     18  N   UNL     1       1.975  10.161  17.967  0.00  0.00    +0.000 NA
ATOM     19  C   UNL     1       1.477   9.764  19.121  0.00  0.00    +0.000 A 
ATOM     20  C   UNL     1       1.660   5.957  19.540  0.00  0.00    +0.000 C 
ATOM     21  C   UNL     1       2.853   5.153  20.090  0.00  0.00    +0.000 C 
ENDROOT
BRANCH   2  22
ATOM     22  C   UNL     1       5.703   4.173  17.756  0.00  0.00    +0.000 A 
ATOM     23  C   UNL     1       5.793   4.083  16.377  0.00  0.00    +0.000 A 
ATOM     24  C   UNL     1       7.149   4.310  16.036  0.00  0.00    +0.000 A 
ATOM     25  C   UNL     1       7.819   4.466  17.225  0.00  0.00    +0.000 A 
ATOM     26  O   UNL     1       6.963   4.341  18.270  0.00  0.00    +0.000 OA
ENDBRANCH   2  22
TORSDOF 1
ENDMDL
MODEL 6
REMARK VINA RESULT:      -6.6      2.325      3.852
REMARK  Name = 
REMARK  1 active torsions:
REMARK  status: ('A' for Active; 'I' for Inactive)
REMARK    1  A    between atoms: C_2  and  C_3
REMARK                            x       y       z     vdW  Elec       q    Type
REMARK                         _______ _______ _______ _____ _____    ______ ____
ROOT
ATOM      1  O   UNL     1      -0.599  11.192  18.873  0.00  0.00    +0.000 OA
ATOM      2  C   UNL     1      -0.018  10.633  19.805  0.00  0.00    +0.000 C 
ATOM      3  N   UNL     1       1.095   9.822  19.556  0.00  0.00    +0.000 N 
ATOM      4  C   UNL     1       1.722   8.902  20.515  0.00  0.00    +0.000 C 
ATOM      5  C   UNL     1       1.628   7.443  20.040  0.00  0.00    +0.000 C 
ATOM      6  N   UNL     1       2.175   7.317  18.684  0.00  0.00    +0.000 N 
ATOM      7  C   UNL     1       3.247   6.492  18.372  0.00  0.00    +0.000 A 
ATOM      8  N   UNL     1       4.006   6.811  17.345  0.00  0.00    +0.000 NA
ATOM      9  C   UNL     1       5.117   6.013  16.987  0.00  0.00    +0.000 A 
ATOM     10  C   UNL     1       5.917   6.409  15.919  0.00  0.00    +0.000 A 
ATOM     11  C   UNL     1       7.015   5.630  15.527  0.00  0.00    +0.000 A 
ATOM     12  C   UNL     1       7.322   4.445  16.201  0.00  0.00    +0.000 A 
ATOM     13  C   UNL     1       6.543   4.034  17.282  0.00  0.00    +0.000 A 
ATOM     14  C   UNL     1       5.459   4.830  17.658  0.00  0.00    +0.000 A 
ATOM     15  N   UNL     1       4.640   4.515  18.732  0.00  0.00    +0.000 N 
ATOM     16  N   UNL     1       4.739   3.454  19.549  0.00  0.00    +0.000 NA
ATOM     17  N   UNL     1       3.728   3.587  20.404  0.00  0.00    +0.000 NA
ATOM     18  N   UNL     1       2.991   4.721  20.132  0.00  0.00    +0.000 NA
ATOM     19  C   UNL     1       3.586   5.287  19.102  0.00  0.00    +0.000 A 
ATOM     20  C   UNL     1       1.558   8.226  17.701  0.00  0.00    +0.000 C 
ATOM     21  C   UNL     1       1.610   9.687  18.186  0.00  0.00    +0.000 C 
ENDROOT
BRANCH   2  22
ATOM     22  C   UNL     1      -0.508  10.761  21.168  0.00  0.00    +0.000 A 
ATOM     23  C   UNL     1      -0.552   9.830  22.192  0.00  0.00    +0.000 A 
ATOM     24  C   UNL     1      -1.074  10.492  23.330  0.00  0.00    +0.000 A 
ATOM     25  C   UNL     1      -1.373  11.769  22.923  0.00  0.00    +0.000 A 
ATOM     26  O   UNL     1      -1.076  11.928  21.609  0.00  0.00    +0.000 OA
ENDBRANCH   2  22
TORSDOF 1
ENDMDL
MODEL 7
REMARK VINA RESULT:      -6.5      5.590      7.839
REMARK  Name = 
REMARK  1 active torsions:
REMARK  status: ('A' for Active; 'I' for Inactive)
REMARK    1  A    between atoms: C_2  and  C_3
REMARK                            x       y       z     vdW  Elec       q    Type
REMARK                         _______ _______ _______ _____ _____    ______ ____
ROOT
ATOM      1  O   UNL     1      -3.962  16.176  25.229  0.00  0.00    +0.000 OA
ATOM      2  C   UNL     1      -2.795  16.039  24.859  0.00  0.00    +0.000 C 
ATOM      3  N   UNL     1      -2.507  15.360  23.670  0.00  0.00    +0.000 N 
ATOM      4  C   UNL     1      -1.180  14.901  23.239  0.00  0.00    +0.000 C 
ATOM      5  C   UNL     1      -1.125  13.369  23.120  0.00  0.00    +0.000 C 
ATOM      6  N   UNL     1      -2.206  12.892  22.250  0.00  0.00    +0.000 N 
ATOM      7  C   UNL     1      -1.980  12.173  21.084  0.00  0.00    +0.000 A 
ATOM      8  N   UNL     1      -2.871  12.249  20.118  0.00  0.00    +0.000 NA
ATOM      9  C   UNL     1      -2.689  11.547  18.904  0.00  0.00    +0.000 A 
ATOM     10  C   UNL     1      -3.636  11.687  17.893  0.00  0.00    +0.000 A 
ATOM     11  C   UNL     1      -3.493  10.991  16.685  0.00  0.00    +0.000 A 
ATOM     12  C   UNL     1      -2.401  10.145  16.477  0.00  0.00    +0.000 A 
ATOM     13  C   UNL     1      -1.432   9.998  17.470  0.00  0.00    +0.000 A 
ATOM     14  C   UNL     1      -1.592  10.708  18.661  0.00  0.00    +0.000 A 
ATOM     15  N   UNL     1      -0.671  10.642  19.697  0.00  0.00    +0.000 N 
ATOM     16  N   UNL     1       0.466   9.929  19.733  0.00  0.00    +0.000 NA
ATOM     17  N   UNL     1       0.989  10.184  20.930  0.00  0.00    +0.000 NA
ATOM     18  N   UNL     1       0.192  11.050  21.649  0.00  0.00    +0.000 NA
ATOM     19  C   UNL     1      -0.823  11.332  20.858  0.00  0.00    +0.000 A 
ATOM     20  C   UNL     1      -3.549  13.334  22.664  0.00  0.00    +0.000 C 
ATOM     21  C   UNL     1      -3.605  14.865  22.827  0.00  0.00    +0.000 C 
ENDROOT
BRANCH   2  22
ATOM     22  C   UNL     1      -1.696  16.529  25.677  0.00  0.00    +0.000 A 
ATOM     23  C   UNL     1      -1.098  17.777  25.713  0.00  0.00    +0.000 A 
ATOM     24  C   UNL     1      -0.112  17.733  26.729  0.00  0.00    +0.000 A 
ATOM     25  C   UNL     1      -0.123  16.448  27.213  0.00  0.00    +0.000 A 
ATOM     26  O   UNL     1      -1.044  15.702  26.555  0.00  0.00    +0.000 OA
ENDBRANCH   2  22
TORSDOF 1
ENDMDL
MODEL 8
REMARK VINA RESULT:      -6.5      6.784      8.161
REMARK  Name = 
REMARK  1 active torsions:
REMARK  status: ('A' for Active; 'I' for Inactive)
REMARK    1  A    between atoms: C_2  and  C_3
REMARK                            x       y       z     vdW  Elec       q    Type
REMARK                         _______ _______ _______ _____ _____    ______ ____
ROOT
ATOM      1  O   UNL     1       2.638  14.385  21.857  0.00  0.00    +0.000 OA
ATOM      2  C   UNL     1       2.272  14.592  20.699  0.00  0.00    +0.000 C 
ATOM      3  N   UNL     1       0.942  14.361  20.328  0.00  0.00    +0.000 N 
ATOM      4  C   UNL     1       0.428  14.315  18.953  0.00  0.00    +0.000 C 
ATOM      5  C   UNL     1      -0.136  12.926  18.608  0.00  0.00    +0.000 C 
ATOM      6  N   UNL     1      -1.132  12.524  19.607  0.00  0.00    +0.000 N 
ATOM      7  C   UNL     1      -2.453  12.237  19.288  0.00  0.00    +0.000 A 
ATOM      8  N   UNL     1      -3.374  12.417  20.210  0.00  0.00    +0.000 NA
ATOM      9  C   UNL     1      -4.736  12.152  19.939  0.00  0.00    +0.000 A 
ATOM     10  C   UNL     1      -5.683  12.394  20.930  0.00  0.00    +0.000 A 
ATOM     11  C   UNL     1      -7.039  12.123  20.699  0.00  0.00    +0.000 A 
ATOM     12  C   UNL     1      -7.461  11.605  19.471  0.00  0.00    +0.000 A 
ATOM     13  C   UNL     1      -6.532  11.365  18.458  0.00  0.00    +0.000 A 
ATOM     14  C   UNL     1      -5.189  11.650  18.710  0.00  0.00    +0.000 A 
ATOM     15  N   UNL     1      -4.197  11.464  17.758  0.00  0.00    +0.000 N 
ATOM     16  N   UNL     1      -4.345  11.007  16.504  0.00  0.00    +0.000 NA
ATOM     17  N   UNL     1      -3.115  10.998  15.998  0.00  0.00    +0.000 NA
ATOM     18  N   UNL     1      -2.192  11.443  16.922  0.00  0.00    +0.000 NA
ATOM     19  C   UNL     1      -2.889  11.741  17.999  0.00  0.00    +0.000 A 
ATOM     20  C   UNL     1      -0.638  12.556  20.995  0.00  0.00    +0.000 C 
ATOM     21  C   UNL     1      -0.034  13.930  21.339  0.00  0.00    +0.000 C 
ENDROOT
BRANCH   2  22
ATOM     22  C   UNL     1       3.223  15.025  19.687  0.00  0.00    +0.000 A 
ATOM     23  C   UNL     1       3.624  16.300  19.327  0.00  0.00    +0.000 A 
ATOM     24  C   UNL     1       4.612  16.154  18.323  0.00  0.00    +0.000 A 
ATOM     25  C   UNL     1       4.716  14.805  18.086  0.00  0.00    +0.000 A 
ATOM     26  O   UNL     1       3.851  14.119  18.872  0.00  0.00    +0.000 OA
ENDBRANCH   2  22
TORSDOF 1
ENDMDL
MODEL 9
REMARK VINA RESULT:      -6.4      9.092     11.411
REMARK  Name = 
REMARK  1 active torsions:
REMARK  status: ('A' for Active; 'I' for Inactive)
REMARK    1  A    between atoms: C_2  and  C_3
REMARK                            x       y       z     vdW  Elec       q    Type
REMARK                         _______ _______ _______ _____ _____    ______ ____
ROOT
ATOM      1  O   UNL     1      10.883  15.356  17.192  0.00  0.00    +0.000 OA
ATOM      2  C   UNL     1      10.340  14.460  17.840  0.00  0.00    +0.000 C 
ATOM      3  N   UNL     1       8.964  14.502  18.089  0.00  0.00    +0.000 N 
ATOM      4  C   UNL     1       8.235  13.659  19.046  0.00  0.00    +0.000 C 
ATOM      5  C   UNL     1       7.593  14.499  20.163  0.00  0.00    +0.000 C 
ATOM      6  N   UNL     1       6.760  15.558  19.582  0.00  0.00    +0.000 N 
ATOM      7  C   UNL     1       5.400  15.676  19.833  0.00  0.00    +0.000 A 
ATOM      8  N   UNL     1       4.642  16.249  18.923  0.00  0.00    +0.000 NA
ATOM      9  C   UNL     1       3.248  16.387  19.119  0.00  0.00    +0.000 A 
ATOM     10  C   UNL     1       2.477  16.963  18.113  0.00  0.00    +0.000 A 
ATOM     11  C   UNL     1       1.097  17.132  18.284  0.00  0.00    +0.000 A 
ATOM     12  C   UNL     1       0.473  16.726  19.467  0.00  0.00    +0.000 A 
ATOM     13  C   UNL     1       1.222  16.135  20.485  0.00  0.00    +0.000 A 
ATOM     14  C   UNL     1       2.594  15.971  20.287  0.00  0.00    +0.000 A 
ATOM     15  N   UNL     1       3.417  15.376  21.232  0.00  0.00    +0.000 N 
ATOM     16  N   UNL     1       3.060  14.882  22.429  0.00  0.00    +0.000 NA
ATOM     17  N   UNL     1       4.193  14.435  22.964  0.00  0.00    +0.000 NA
ATOM     18  N   UNL     1       5.262  14.644  22.116  0.00  0.00    +0.000 NA
ATOM     19  C   UNL     1       4.752  15.214  21.043  0.00  0.00    +0.000 A 
ATOM     20  C   UNL     1       7.470  16.423  18.623  0.00  0.00    +0.000 C 
ATOM     21  C   UNL     1       8.152  15.589  17.522  0.00  0.00    +0.000 C 
ENDROOT
BRANCH   2  22
ATOM     22  C   UNL     1      11.127  13.373  18.404  0.00  0.00    +0.000 A 
ATOM     23  C   UNL     1      11.502  12.162  17.848  0.00  0.00    +0.000 A 
ATOM     24  C   UNL     1      12.309  11.501  18.806  0.00  0.00    +0.000 A 
ATOM     25  C   UNL     1      12.333  12.317  19.911  0.00  0.00    +0.000 A 
ATOM     26  O   UNL     1      11.587  13.428  19.694  0.00  0.00    +0.000 OA
ENDBRANCH   2  22
TORSDOF 1
ENDMDL
