MODEL 1
REMARK VINA RESULT:      -7.4      0.000      0.000
REMARK  Name = 
REMARK  6 active torsions:
REMARK  status: ('A' for Active; 'I' for Inactive)
REMARK    1  A    between atoms: C_1  and  C_2
REMARK    2  A    between atoms: C_5  and  C_6
REMARK    3  A    between atoms: C_9  and  C_10
REMARK    4  A    between atoms: N_12  and  C_13
REMARK    5  A    between atoms: N_12  and  C_14
REMARK    6  A    between atoms: C_18  and  C_19
REMARK                            x       y       z     vdW  Elec       q    Type
REMARK                         _______ _______ _______ _____ _____    ______ ____
ROOT
ATOM      1  C   UNL     1       1.746   8.242  19.612  0.00  0.00    +0.000 A 
ATOM      2  C   UNL     1       1.571   9.378  18.845  0.00  0.00    +0.000 A 
ATOM      3  C   UNL     1       0.909  10.432  19.553  0.00  0.00    +0.000 A 
ATOM      4  C   UNL     1       0.494  10.057  20.817  0.00  0.00    +0.000 A 
ATOM      5  S   UNL     1       1.038   8.452  21.157  0.00  0.00    +0.000 S 
ENDROOT
BRANCH   1  10
ATOM      6  C   UNL     1       4.130   3.211  17.965  0.00  0.00    +0.000 C 
ATOM      7  C   UNL     1       3.550   4.510  18.438  0.00  0.00    +0.000 A 
ATOM      8  C   UNL     1       2.796   4.585  19.613  0.00  0.00    +0.000 A 
ATOM      9  C   UNL     1       2.221   5.799  20.013  0.00  0.00    +0.000 A 
ATOM     10  C   UNL     1       2.381   6.963  19.244  0.00  0.00    +0.000 A 
ATOM     11  C   UNL     1       3.168   6.884  18.087  0.00  0.00    +0.000 A 
ATOM     12  C   UNL     1       3.742   5.673  17.685  0.00  0.00    +0.000 A 
ENDBRANCH   1  10
BRANCH   4  13
ATOM     13  C   UNL     1      -0.192  10.773  21.911  0.00  0.00    +0.000 C 
ATOM     14  O   UNL     1       0.064  10.450  23.073  0.00  0.00    +0.000 OA
ATOM     15  N   UNL     1      -1.159  11.780  21.622  0.00  0.00    +0.000 N 
ATOM     16  C   UNL     1      -1.752  11.966  20.296  0.00  0.00    +0.000 C 
BRANCH  15  17
ATOM     17  C   UNL     1      -1.773  12.563  22.693  0.00  0.00    +0.000 A 
ATOM     18  C   UNL     1      -1.225  13.765  23.159  0.00  0.00    +0.000 A 
ATOM     19  C   UNL     1      -1.853  14.523  24.156  0.00  0.00    +0.000 A 
ATOM     20  C   UNL     1      -3.060  14.105  24.706  0.00  0.00    +0.000 A 
ATOM     21  C   UNL     1      -3.640  12.917  24.272  0.00  0.00    +0.000 A 
ATOM     22  C   UNL     1      -4.945  12.437  24.838  0.00  0.00    +0.000 C 
ATOM     23  C   UNL     1      -2.989  12.157  23.281  0.00  0.00    +0.000 A 
ENDBRANCH  15  17
ENDBRANCH   4  13
TORSDOF 3
ENDMDL
MODEL 2
REMARK VINA RESULT:      -7.3      1.222      1.729
REMARK  Name = 
REMARK  6 active torsions:
REMARK  status: ('A' for Active; 'I' for Inactive)
REMARK    1  A    between atoms: C_1  and  C_2
REMARK    2  A    between atoms: C_5  and  C_6
REMARK    3  A    between atoms: C_9  and  C_10
REMARK    4  A    between atoms: N_12  and  C_13
REMARK    5  A    between atoms: N_12  and  C_14
REMARK    6  A    between atoms: C_18  and  C_19
REMARK                            x       y       z     vdW  Elec       q    Type
REMARK                         _______ _______ _______ _____ _____    ______ ____
ROOT
ATOM      1  C   UNL     1       2.126   7.052  19.065  0.00  0.00    +0.000 A 
ATOM      2  C   UNL     1       2.164   8.103  18.170  0.00  0.00    +0.000 A 
ATOM      3  C   UNL     1       1.737   9.343  18.747  0.00  0.00    +0.000 A 
ATOM      4  C   UNL     1       1.280   9.205  20.045  0.00  0.00    +0.000 A 
ATOM      5  S   UNL     1       1.504   7.574  20.572  0.00  0.00    +0.000 S 
ENDROOT
BRANCH   1  10
ATOM      6  C   UNL     1       3.769   1.556  18.169  0.00  0.00    +0.000 C 
ATOM      7  C   UNL     1       3.293   2.955  18.421  0.00  0.00    +0.000 A 
ATOM      8  C   UNL     1       2.239   3.507  17.686  0.00  0.00    +0.000 A 
ATOM      9  C   UNL     1       1.840   4.833  17.903  0.00  0.00    +0.000 A 
ATOM     10  C   UNL     1       2.489   5.638  18.852  0.00  0.00    +0.000 A 
ATOM     11  C   UNL     1       3.521   5.063  19.606  0.00  0.00    +0.000 A 
ATOM     12  C   UNL     1       3.921   3.740  19.392  0.00  0.00    +0.000 A 
ENDBRANCH   1  10
BRANCH   4  13
ATOM     13  C   UNL     1       0.770  10.165  21.045  0.00  0.00    +0.000 C 
ATOM     14  O   UNL     1       1.258  10.144  22.177  0.00  0.00    +0.000 OA
ATOM     15  N   UNL     1      -0.290  11.058  20.715  0.00  0.00    +0.000 N 
ATOM     16  C   UNL     1      -1.131  10.901  19.526  0.00  0.00    +0.000 C 
BRANCH  15  17
ATOM     17  C   UNL     1      -0.738  12.077  21.664  0.00  0.00    +0.000 A 
ATOM     18  C   UNL     1      -0.071  13.297  21.831  0.00  0.00    +0.000 A 
ATOM     19  C   UNL     1      -0.541  14.279  22.713  0.00  0.00    +0.000 A 
ATOM     20  C   UNL     1      -1.707  14.072  23.444  0.00  0.00    +0.000 A 
ATOM     21  C   UNL     1      -2.401  12.873  23.307  0.00  0.00    +0.000 A 
ATOM     22  C   UNL     1      -3.665  12.616  24.075  0.00  0.00    +0.000 C 
ATOM     23  C   UNL     1      -1.907  11.889  22.430  0.00  0.00    +0.000 A 
ENDBRANCH  15  17
ENDBRANCH   4  13
TORSDOF 3
ENDMDL
MODEL 3
REMARK VINA RESULT:      -7.3      1.391      2.404
REMARK  Name = 
REMARK  6 active torsions:
REMARK  status: ('A' for Active; 'I' for Inactive)
REMARK    1  A    between atoms: C_1  and  C_2
REMARK    2  A    between atoms: C_5  and  C_6
REMARK    3  A    between atoms: C_9  and  C_10
REMARK    4  A    between atoms: N_12  and  C_13
REMARK    5  A    between atoms: N_12  and  C_14
REMARK    6  A    between atoms: C_18  and  C_19
REMARK                            x       y       z     vdW  Elec       q    Type
REMARK                         _______ _______ _______ _____ _____    ______ ____
ROOT
ATOM      1  C   UNL     1       2.221   7.136  18.899  0.00  0.00    +0.000 A 
ATOM      2  C   UNL     1       2.164   8.171  17.986  0.00  0.00    +0.000 A 
ATOM      3  C   UNL     1       1.714   9.402  18.564  0.00  0.00    +0.000 A 
ATOM      4  C   UNL     1       1.334   9.269  19.888  0.00  0.00    +0.000 A 
ATOM      5  S   UNL     1       1.658   7.660  20.429  0.00  0.00    +0.000 S 
ENDROOT
BRANCH   1  10
ATOM      6  C   UNL     1       3.657   1.557  18.181  0.00  0.00    +0.000 C 
ATOM      7  C   UNL     1       3.333   3.013  18.334  0.00  0.00    +0.000 A 
ATOM      8  C   UNL     1       4.168   3.871  19.055  0.00  0.00    +0.000 A 
ATOM      9  C   UNL     1       3.824   5.219  19.228  0.00  0.00    +0.000 A 
ATOM     10  C   UNL     1       2.635   5.736  18.690  0.00  0.00    +0.000 A 
ATOM     11  C   UNL     1       1.823   4.875  17.940  0.00  0.00    +0.000 A 
ATOM     12  C   UNL     1       2.165   3.529  17.766  0.00  0.00    +0.000 A 
ENDBRANCH   1  10
BRANCH   4  13
ATOM     13  C   UNL     1       0.836  10.225  20.897  0.00  0.00    +0.000 C 
ATOM     14  O   UNL     1       1.359  10.221  22.014  0.00  0.00    +0.000 OA
ATOM     15  N   UNL     1      -0.253  11.094  20.596  0.00  0.00    +0.000 N 
ATOM     16  C   UNL     1      -1.127  10.913  19.435  0.00  0.00    +0.000 C 
BRANCH  15  17
ATOM     17  C   UNL     1      -0.692  12.110  21.552  0.00  0.00    +0.000 A 
ATOM     18  C   UNL     1      -1.709  11.877  22.487  0.00  0.00    +0.000 A 
ATOM     19  C   UNL     1      -2.084  12.850  23.423  0.00  0.00    +0.000 A 
ATOM     20  C   UNL     1      -1.440  14.082  23.459  0.00  0.00    +0.000 A 
ATOM     21  C   UNL     1      -0.424  14.354  22.548  0.00  0.00    +0.000 A 
ATOM     22  C   UNL     1       0.299  15.670  22.560  0.00  0.00    +0.000 C 
ATOM     23  C   UNL     1      -0.068  13.374  21.602  0.00  0.00    +0.000 A 
ENDBRANCH  15  17
ENDBRANCH   4  13
TORSDOF 3
ENDMDL
MODEL 4
REMARK VINA RESULT:      -7.2      1.299      1.743
REMARK  Name = 
REMARK  6 active torsions:
REMARK  status: ('A' for Active; 'I' for Inactive)
REMARK    1  A    between atoms: C_1  and  C_2
REMARK    2  A    between atoms: C_5  and  C_6
REMARK    3  A    between atoms: C_9  and  C_10
REMARK    4  A    between atoms: N_12  and  C_13
REMARK    5  A    between atoms: N_12  and  C_14
REMARK    6  A    between atoms: C_18  and  C_19
REMARK                            x       y       z     vdW  Elec       q    Type
REMARK                         _______ _______ _______ _____ _____    ______ ____
ROOT
ATOM      1  C   UNL     1       2.207   7.339  18.759  0.00  0.00    +0.000 A 
ATOM      2  C   UNL     1       2.227   8.357  17.827  0.00  0.00    +0.000 A 
ATOM      3  C   UNL     1       1.734   9.598  18.344  0.00  0.00    +0.000 A 
ATOM      4  C   UNL     1       1.247   9.490  19.634  0.00  0.00    +0.000 A 
ATOM      5  S   UNL     1       1.522   7.890  20.229  0.00  0.00    +0.000 S 
ENDROOT
BRANCH   1  10
ATOM      6  C   UNL     1       3.683   1.746  18.262  0.00  0.00    +0.000 C 
ATOM      7  C   UNL     1       3.351   3.204  18.361  0.00  0.00    +0.000 A 
ATOM      8  C   UNL     1       4.136   4.079  19.118  0.00  0.00    +0.000 A 
ATOM      9  C   UNL     1       3.783   5.430  19.238  0.00  0.00    +0.000 A 
ATOM     10  C   UNL     1       2.633   5.934  18.610  0.00  0.00    +0.000 A 
ATOM     11  C   UNL     1       1.873   5.056  17.825  0.00  0.00    +0.000 A 
ATOM     12  C   UNL     1       2.224   3.707  17.705  0.00  0.00    +0.000 A 
ENDBRANCH   1  10
BRANCH   4  13
ATOM     13  C   UNL     1       0.671  10.464  20.583  0.00  0.00    +0.000 C 
ATOM     14  O   UNL     1       1.236  10.630  21.666  0.00  0.00    +0.000 OA
ATOM     15  N   UNL     1      -0.534  11.156  20.266  0.00  0.00    +0.000 N 
ATOM     16  C   UNL     1      -1.425  10.759  19.173  0.00  0.00    +0.000 C 
BRANCH  15  17
ATOM     17  C   UNL     1      -1.062  12.192  21.153  0.00  0.00    +0.000 A 
ATOM     18  C   UNL     1      -0.689  13.538  21.046  0.00  0.00    +0.000 A 
ATOM     19  C   UNL     1      -1.240  14.523  21.877  0.00  0.00    +0.000 A 
ATOM     20  C   UNL     1      -2.195  14.188  22.832  0.00  0.00    +0.000 A 
ATOM     21  C   UNL     1      -2.594  12.862  22.971  0.00  0.00    +0.000 A 
ATOM     22  C   UNL     1      -3.626  12.464  23.985  0.00  0.00    +0.000 C 
ATOM     23  C   UNL     1      -2.020  11.881  22.141  0.00  0.00    +0.000 A 
ENDBRANCH  15  17
ENDBRANCH   4  13
TORSDOF 3
ENDMDL
MODEL 5
REMARK VINA RESULT:      -7.2      0.405      1.078
REMARK  Name = 
REMARK  6 active torsions:
REMARK  status: ('A' for Active; 'I' for Inactive)
REMARK    1  A    between atoms: C_1  and  C_2
REMARK    2  A    between atoms: C_5  and  C_6
REMARK    3  A    between atoms: C_9  and  C_10
REMARK    4  A    between atoms: N_12  and  C_13
REMARK    5  A    between atoms: N_12  and  C_14
REMARK    6  A    between atoms: C_18  and  C_19
REMARK                            x       y       z     vdW  Elec       q    Type
REMARK                         _______ _______ _______ _____ _____    ______ ____
ROOT
ATOM      1  C   UNL     1       1.800   8.529  19.213  0.00  0.00    +0.000 A 
ATOM      2  C   UNL     1       1.534   9.668  18.479  0.00  0.00    +0.000 A 
ATOM      3  C   UNL     1       0.865  10.680  19.240  0.00  0.00    +0.000 A 
ATOM      4  C   UNL     1       0.536  10.265  20.518  0.00  0.00    +0.000 A 
ATOM      5  S   UNL     1       1.168   8.681  20.798  0.00  0.00    +0.000 S 
ENDROOT
BRANCH   1  10
ATOM      6  C   UNL     1       4.534   3.620  17.751  0.00  0.00    +0.000 C 
ATOM      7  C   UNL     1       3.800   4.886  18.076  0.00  0.00    +0.000 A 
ATOM      8  C   UNL     1       4.037   6.067  17.367  0.00  0.00    +0.000 A 
ATOM      9  C   UNL     1       3.377   7.252  17.717  0.00  0.00    +0.000 A 
ATOM     10  C   UNL     1       2.471   7.286  18.788  0.00  0.00    +0.000 A 
ATOM     11  C   UNL     1       2.215   6.088  19.471  0.00  0.00    +0.000 A 
ATOM     12  C   UNL     1       2.873   4.904  19.123  0.00  0.00    +0.000 A 
ENDBRANCH   1  10
BRANCH   4  13
ATOM     13  C   UNL     1      -0.121  10.932  21.659  0.00  0.00    +0.000 C 
ATOM     14  O   UNL     1       0.234  10.625  22.799  0.00  0.00    +0.000 OA
ATOM     15  N   UNL     1      -1.170  11.872  21.442  0.00  0.00    +0.000 N 
ATOM     16  C   UNL     1      -1.863  12.020  20.160  0.00  0.00    +0.000 C 
BRANCH  15  17
ATOM     17  C   UNL     1      -1.762  12.610  22.557  0.00  0.00    +0.000 A 
ATOM     18  C   UNL     1      -1.221  13.808  23.041  0.00  0.00    +0.000 A 
ATOM     19  C   UNL     1      -1.828  14.523  24.082  0.00  0.00    +0.000 A 
ATOM     20  C   UNL     1      -3.008  14.065  24.659  0.00  0.00    +0.000 A 
ATOM     21  C   UNL     1      -3.580  12.879  24.208  0.00  0.00    +0.000 A 
ATOM     22  C   UNL     1      -4.855  12.356  24.803  0.00  0.00    +0.000 C 
ATOM     23  C   UNL     1      -2.949  12.162  23.173  0.00  0.00    +0.000 A 
ENDBRANCH  15  17
ENDBRANCH   4  13
TORSDOF 3
ENDMDL
MODEL 6
REMARK VINA RESULT:      -7.2      2.044      3.463
REMARK  Name = 
REMARK  6 active torsions:
REMARK  status: ('A' for Active; 'I' for Inactive)
REMARK    1  A    between atoms: C_1  and  C_2
REMARK    2  A    between atoms: C_5  and  C_6
REMARK    3  A    between atoms: C_9  and  C_10
REMARK    4  A    between atoms: N_12  and  C_13
REMARK    5  A    between atoms: N_12  and  C_14
REMARK    6  A    between atoms: C_18  and  C_19
REMARK                            x       y       z     vdW  Elec       q    Type
REMARK                         _______ _______ _______ _____ _____    ______ ____
ROOT
ATOM      1  C   UNL     1       2.990   6.487  18.566  0.00  0.00    +0.000 A 
ATOM      2  C   UNL     1       2.576   5.994  19.789  0.00  0.00    +0.000 A 
ATOM      3  C   UNL     1       1.747   6.912  20.510  0.00  0.00    +0.000 A 
ATOM      4  C   UNL     1       1.620   8.136  19.877  0.00  0.00    +0.000 A 
ATOM      5  S   UNL     1       2.421   8.087  18.346  0.00  0.00    +0.000 S 
ENDROOT
BRANCH   1  10
ATOM      6  C   UNL     1       6.220   4.078  14.387  0.00  0.00    +0.000 C 
ATOM      7  C   UNL     1       5.420   4.673  15.507  0.00  0.00    +0.000 A 
ATOM      8  C   UNL     1       4.646   3.873  16.352  0.00  0.00    +0.000 A 
ATOM      9  C   UNL     1       3.867   4.453  17.363  0.00  0.00    +0.000 A 
ATOM     10  C   UNL     1       3.839   5.844  17.546  0.00  0.00    +0.000 A 
ATOM     11  C   UNL     1       4.646   6.633  16.715  0.00  0.00    +0.000 A 
ATOM     12  C   UNL     1       5.424   6.056  15.705  0.00  0.00    +0.000 A 
ENDBRANCH   1  10
BRANCH   4  13
ATOM     13  C   UNL     1       0.874   9.369  20.200  0.00  0.00    +0.000 C 
ATOM     14  O   UNL     1       0.411  10.032  19.270  0.00  0.00    +0.000 OA
ATOM     15  N   UNL     1       0.737   9.798  21.551  0.00  0.00    +0.000 N 
ATOM     16  C   UNL     1       1.540   9.259  22.651  0.00  0.00    +0.000 C 
BRANCH  15  17
ATOM     17  C   UNL     1      -0.080  10.962  21.892  0.00  0.00    +0.000 A 
ATOM     18  C   UNL     1      -1.127  10.903  22.821  0.00  0.00    +0.000 A 
ATOM     19  C   UNL     1      -1.870  12.040  23.166  0.00  0.00    +0.000 A 
ATOM     20  C   UNL     1      -1.574  13.276  22.600  0.00  0.00    +0.000 A 
ATOM     21  C   UNL     1      -0.542  13.379  21.672  0.00  0.00    +0.000 A 
ATOM     22  C   UNL     1      -0.189  14.696  21.045  0.00  0.00    +0.000 C 
ATOM     23  C   UNL     1       0.185  12.225  21.323  0.00  0.00    +0.000 A 
ENDBRANCH  15  17
ENDBRANCH   4  13
TORSDOF 3
ENDMDL
MODEL 7
REMARK VINA RESULT:      -7.1      3.469     10.212
REMARK  Name = 
REMARK  6 active torsions:
REMARK  status: ('A' for Active; 'I' for Inactive)
REMARK    1  A    between atoms: C_1  and  C_2
REMARK    2  A    between atoms: C_5  and  C_6
REMARK    3  A    between atoms: C_9  and  C_10
REMARK    4  A    between atoms: N_12  and  C_13
REMARK    5  A    between atoms: N_12  and  C_14
REMARK    6  A    between atoms: C_18  and  C_19
REMARK                            x       y       z     vdW  Elec       q    Type
REMARK                         _______ _______ _______ _____ _____    ______ ____
ROOT
ATOM      1  C   UNL     1       1.292   8.032  20.510  0.00  0.00    +0.000 A 
ATOM      2  C   UNL     1       1.474   6.707  20.857  0.00  0.00    +0.000 A 
ATOM      3  C   UNL     1       2.368   6.017  19.977  0.00  0.00    +0.000 A 
ATOM      4  C   UNL     1       2.780   6.792  18.908  0.00  0.00    +0.000 A 
ATOM      5  S   UNL     1       2.157   8.396  19.077  0.00  0.00    +0.000 S 
ENDROOT
BRANCH   1  10
ATOM      6  C   UNL     1      -1.825  12.228  23.036  0.00  0.00    +0.000 C 
ATOM      7  C   UNL     1      -1.065  11.107  22.394  0.00  0.00    +0.000 A 
ATOM      8  C   UNL     1      -0.615  10.013  23.139  0.00  0.00    +0.000 A 
ATOM      9  C   UNL     1       0.135   8.998  22.531  0.00  0.00    +0.000 A 
ATOM     10  C   UNL     1       0.460   9.058  21.167  0.00  0.00    +0.000 A 
ATOM     11  C   UNL     1      -0.025  10.141  20.422  0.00  0.00    +0.000 A 
ATOM     12  C   UNL     1      -0.775  11.156  21.027  0.00  0.00    +0.000 A 
ENDBRANCH   1  10
BRANCH   4  13
ATOM     13  C   UNL     1       3.693   6.548  17.774  0.00  0.00    +0.000 C 
ATOM     14  O   UNL     1       3.996   7.501  17.052  0.00  0.00    +0.000 OA
ATOM     15  N   UNL     1       4.171   5.234  17.500  0.00  0.00    +0.000 N 
ATOM     16  C   UNL     1       3.588   4.028  18.092  0.00  0.00    +0.000 C 
BRANCH  15  17
ATOM     17  C   UNL     1       5.151   4.995  16.440  0.00  0.00    +0.000 A 
ATOM     18  C   UNL     1       6.523   5.210  16.619  0.00  0.00    +0.000 A 
ATOM     19  C   UNL     1       7.450   4.933  15.606  0.00  0.00    +0.000 A 
ATOM     20  C   UNL     1       7.028   4.416  14.385  0.00  0.00    +0.000 A 
ATOM     21  C   UNL     1       5.673   4.188  14.165  0.00  0.00    +0.000 A 
ATOM     22  C   UNL     1       5.181   3.626  12.863  0.00  0.00    +0.000 C 
ATOM     23  C   UNL     1       4.752   4.486  15.187  0.00  0.00    +0.000 A 
ENDBRANCH  15  17
ENDBRANCH   4  13
TORSDOF 3
ENDMDL
MODEL 8
REMARK VINA RESULT:      -7.1      1.843      2.937
REMARK  Name = 
REMARK  6 active torsions:
REMARK  status: ('A' for Active; 'I' for Inactive)
REMARK    1  A    between atoms: C_1  and  C_2
REMARK    2  A    between atoms: C_5  and  C_6
REMARK    3  A    between atoms: C_9  and  C_10
REMARK    4  A    between atoms: N_12  and  C_13
REMARK    5  A    between atoms: N_12  and  C_14
REMARK    6  A    between atoms: C_18  and  C_19
REMARK                            x       y       z     vdW  Elec       q    Type
REMARK                         _______ _______ _______ _____ _____    ______ ____
ROOT
ATOM      1  C   UNL     1       2.748   6.724  18.689  0.00  0.00    +0.000 A 
ATOM      2  C   UNL     1       2.281   6.246  19.898  0.00  0.00    +0.000 A 
ATOM      3  C   UNL     1       1.478   7.200  20.603  0.00  0.00    +0.000 A 
ATOM      4  C   UNL     1       1.424   8.430  19.973  0.00  0.00    +0.000 A 
ATOM      5  S   UNL     1       2.261   8.350  18.463  0.00  0.00    +0.000 S 
ENDROOT
BRANCH   1  10
ATOM      6  C   UNL     1       6.170   3.938  14.916  0.00  0.00    +0.000 C 
ATOM      7  C   UNL     1       5.258   4.682  15.844  0.00  0.00    +0.000 A 
ATOM      8  C   UNL     1       5.292   6.076  15.935  0.00  0.00    +0.000 A 
ATOM      9  C   UNL     1       4.465   6.751  16.843  0.00  0.00    +0.000 A 
ATOM     10  C   UNL     1       3.592   6.046  17.687  0.00  0.00    +0.000 A 
ATOM     11  C   UNL     1       3.541   4.651  17.563  0.00  0.00    +0.000 A 
ATOM     12  C   UNL     1       4.366   3.976  16.657  0.00  0.00    +0.000 A 
ENDBRANCH   1  10
BRANCH   4  13
ATOM     13  C   UNL     1       0.729   9.696  20.283  0.00  0.00    +0.000 C 
ATOM     14  O   UNL     1       0.324  10.385  19.344  0.00  0.00    +0.000 OA
ATOM     15  N   UNL     1       0.573  10.123  21.633  0.00  0.00    +0.000 N 
ATOM     16  C   UNL     1       1.317   9.540  22.751  0.00  0.00    +0.000 C 
BRANCH  15  17
ATOM     17  C   UNL     1      -0.198  11.323  21.958  0.00  0.00    +0.000 A 
ATOM     18  C   UNL     1       0.163  12.598  21.504  0.00  0.00    +0.000 A 
ATOM     19  C   UNL     1      -0.613  13.729  21.790  0.00  0.00    +0.000 A 
ATOM     20  C   UNL     1      -1.786  13.612  22.530  0.00  0.00    +0.000 A 
ATOM     21  C   UNL     1      -2.181  12.363  23.001  0.00  0.00    +0.000 A 
ATOM     22  C   UNL     1      -3.442  12.197  23.798  0.00  0.00    +0.000 C 
ATOM     23  C   UNL     1      -1.382  11.239  22.720  0.00  0.00    +0.000 A 
ENDBRANCH  15  17
ENDBRANCH   4  13
TORSDOF 3
ENDMDL
MODEL 9
REMARK VINA RESULT:      -7.1      1.957      3.446
REMARK  Name = 
REMARK  6 active torsions:
REMARK  status: ('A' for Active; 'I' for Inactive)
REMARK    1  A    between atoms: C_1  and  C_2
REMARK    2  A    between atoms: C_5  and  C_6
REMARK    3  A    between atoms: C_9  and  C_10
REMARK    4  A    between atoms: N_12  and  C_13
REMARK    5  A    between atoms: N_12  and  C_14
REMARK    6  A    between atoms: C_18  and  C_19
REMARK                            x       y       z     vdW  Elec       q    Type
REMARK                         _______ _______ _______ _____ _____    ______ ____
ROOT
ATOM      1  C   UNL     1       2.856   6.583  18.626  0.00  0.00    +0.000 A 
ATOM      2  C   UNL     1       2.446   6.064  19.839  0.00  0.00    +0.000 A 
ATOM      3  C   UNL     1       1.604   6.960  20.574  0.00  0.00    +0.000 A 
ATOM      4  C   UNL     1       1.463   8.192  19.962  0.00  0.00    +0.000 A 
ATOM      5  S   UNL     1       2.268   8.180  18.433  0.00  0.00    +0.000 S 
ENDROOT
BRANCH   1  10
ATOM      6  C   UNL     1       6.345   4.044  14.742  0.00  0.00    +0.000 C 
ATOM      7  C   UNL     1       5.415   4.725  15.700  0.00  0.00    +0.000 A 
ATOM      8  C   UNL     1       5.413   6.115  15.848  0.00  0.00    +0.000 A 
ATOM      9  C   UNL     1       4.570   6.730  16.784  0.00  0.00    +0.000 A 
ATOM     10  C   UNL     1       3.716   5.969  17.597  0.00  0.00    +0.000 A 
ATOM     11  C   UNL     1       3.701   4.579  17.417  0.00  0.00    +0.000 A 
ATOM     12  C   UNL     1       4.542   3.964  16.483  0.00  0.00    +0.000 A 
ENDBRANCH   1  10
BRANCH   4  13
ATOM     13  C   UNL     1       0.700   9.410  20.303  0.00  0.00    +0.000 C 
ATOM     14  O   UNL     1       0.131  10.017  19.394  0.00  0.00    +0.000 OA
ATOM     15  N   UNL     1       0.666   9.889  21.645  0.00  0.00    +0.000 N 
ATOM     16  C   UNL     1       1.584   9.424  22.687  0.00  0.00    +0.000 C 
BRANCH  15  17
ATOM     17  C   UNL     1      -0.163  11.037  22.013  0.00  0.00    +0.000 A 
ATOM     18  C   UNL     1      -1.282  10.922  22.848  0.00  0.00    +0.000 A 
ATOM     19  C   UNL     1      -2.037  12.040  23.224  0.00  0.00    +0.000 A 
ATOM     20  C   UNL     1      -1.683  13.312  22.787  0.00  0.00    +0.000 A 
ATOM     21  C   UNL     1      -0.577  13.471  21.956  0.00  0.00    +0.000 A 
ATOM     22  C   UNL     1      -0.160  14.828  21.469  0.00  0.00    +0.000 C 
ATOM     23  C   UNL     1       0.163  12.337  21.572  0.00  0.00    +0.000 A 
ENDBRANCH  15  17
ENDBRANCH   4  13
TORSDOF 3
ENDMDL
