MODEL 1
REMARK VINA RESULT:      -9.2      0.000      0.000
REMARK  Name = 
REMARK  2 active torsions:
REMARK  status: ('A' for Active; 'I' for Inactive)
REMARK    1  A    between atoms: C_6  and  C_7
REMARK    2  A    between atoms: C_8  and  C_9
REMARK                            x       y       z     vdW  Elec       q    Type
REMARK                         _______ _______ _______ _____ _____    ______ ____
ROOT
ATOM      1  C   UNL     1       3.213   5.423  18.074  0.00  0.00    +0.000 A 
ATOM      2  C   UNL     1       3.181   6.816  18.068  0.00  0.00    +0.000 A 
ATOM      3  N   UNL     1       4.110   7.339  17.190  0.00  0.00    +0.000 NA
ATOM      4  C   UNL     1       4.712   6.302  16.660  0.00  0.00    +0.000 A 
ATOM      5  C   UNL     1       5.744   6.224  15.678  0.00  0.00    +0.000 A 
ATOM      6  C   UNL     1       6.213   5.019  15.287  0.00  0.00    +0.000 A 
ATOM      7 CL   UNL     1       7.453   4.891  14.097  0.00  0.00    +0.000 Cl
ATOM      8  C   UNL     1       5.678   3.787  15.835  0.00  0.00    +0.000 A 
ATOM      9  C   UNL     1       4.684   3.852  16.736  0.00  0.00    +0.000 A 
ATOM     10  N   UNL     1       4.208   5.101  17.162  0.00  0.00    +0.000 N 
ENDROOT
BRANCH   1  16
ATOM     11  N   UNL     1       2.365   3.068  22.027  0.00  0.00    +0.000 N 
ATOM     12  C   UNL     1       1.985   3.342  20.730  0.00  0.00    +0.000 A 
ATOM     13  N   UNL     1       0.972   2.640  20.221  0.00  0.00    +0.000 NA
ATOM     14  C   UNL     1       0.665   2.875  18.934  0.00  0.00    +0.000 A 
ATOM     15  C   UNL     1       1.354   3.755  18.141  0.00  0.00    +0.000 A 
ATOM     16  C   UNL     1       2.368   4.445  18.764  0.00  0.00    +0.000 A 
ATOM     17  N   UNL     1       2.693   4.246  20.054  0.00  0.00    +0.000 NA
ATOM     18  H   UNL     1       2.045   2.148  22.297  0.00  0.00    +0.000 HD
ATOM     19  H   UNL     1       3.348   3.272  22.151  0.00  0.00    +0.000 HD
ENDBRANCH   1  16
BRANCH   2  20
ATOM     20  C   UNL     1       2.249   7.656  18.818  0.00  0.00    +0.000 A 
ATOM     21  C   UNL     1       1.617   8.759  18.217  0.00  0.00    +0.000 A 
ATOM     22  C   UNL     1       0.921   9.688  18.992  0.00  0.00    +0.000 A 
ATOM     23  C   UNL     1       0.795   9.479  20.356  0.00  0.00    +0.000 A 
ATOM     24  F   UNL     1       0.172  10.396  21.106  0.00  0.00    +0.000 F 
ATOM     25  C   UNL     1       1.317   8.337  20.956  0.00  0.00    +0.000 A 
ATOM     26  C   UNL     1       2.040   7.423  20.185  0.00  0.00    +0.000 A 
ENDBRANCH   2  20
TORSDOF 2
ENDMDL
MODEL 2
REMARK VINA RESULT:      -8.9      0.273      1.023
REMARK  Name = 
REMARK  2 active torsions:
REMARK  status: ('A' for Active; 'I' for Inactive)
REMARK    1  A    between atoms: C_6  and  C_7
REMARK    2  A    between atoms: C_8  and  C_9
REMARK                            x       y       z     vdW  Elec       q    Type
REMARK                         _______ _______ _______ _____ _____    ______ ____
ROOT
ATOM      1  C   UNL     1       3.199   5.491  18.136  0.00  0.00    +0.000 A 
ATOM      2  C   UNL     1       3.229   6.885  18.143  0.00  0.00    +0.000 A 
ATOM      3  N   UNL     1       4.149   7.375  17.239  0.00  0.00    +0.000 NA
ATOM      4  C   UNL     1       4.687   6.319  16.679  0.00  0.00    +0.000 A 
ATOM      5  C   UNL     1       5.680   6.206  15.662  0.00  0.00    +0.000 A 
ATOM      6  C   UNL     1       6.082   4.987  15.244  0.00  0.00    +0.000 A 
ATOM      7 CL   UNL     1       7.275   4.817  14.011  0.00  0.00    +0.000 Cl
ATOM      8  C   UNL     1       5.513   3.773  15.799  0.00  0.00    +0.000 A 
ATOM      9  C   UNL     1       4.554   3.872  16.734  0.00  0.00    +0.000 A 
ATOM     10  N   UNL     1       4.148   5.136  17.187  0.00  0.00    +0.000 N 
ENDROOT
BRANCH   1  16
ATOM     11  N   UNL     1       2.337   3.197  22.120  0.00  0.00    +0.000 N 
ATOM     12  C   UNL     1       1.948   3.469  20.826  0.00  0.00    +0.000 A 
ATOM     13  N   UNL     1       0.909   2.792  20.337  0.00  0.00    +0.000 NA
ATOM     14  C   UNL     1       0.592   3.025  19.052  0.00  0.00    +0.000 A 
ATOM     15  C   UNL     1       1.295   3.877  18.241  0.00  0.00    +0.000 A 
ATOM     16  C   UNL     1       2.336   4.544  18.845  0.00  0.00    +0.000 A 
ATOM     17  N   UNL     1       2.672   4.347  20.133  0.00  0.00    +0.000 NA
ATOM     18  H   UNL     1       1.995   2.288  22.403  0.00  0.00    +0.000 HD
ATOM     19  H   UNL     1       3.327   3.373  22.230  0.00  0.00    +0.000 HD
ENDBRANCH   1  16
BRANCH   2  20
ATOM     20  C   UNL     1       2.360   7.757  18.932  0.00  0.00    +0.000 A 
ATOM     21  C   UNL     1       2.059   7.464  20.274  0.00  0.00    +0.000 A 
ATOM     22  C   UNL     1       1.051   8.160  20.943  0.00  0.00    +0.000 A 
ATOM     23  C   UNL     1       0.393   9.195  20.297  0.00  0.00    +0.000 A 
ATOM     24  F   UNL     1      -0.608   9.828  20.921  0.00  0.00    +0.000 F 
ATOM     25  C   UNL     1       0.750   9.575  19.007  0.00  0.00    +0.000 A 
ATOM     26  C   UNL     1       1.738   8.859  18.326  0.00  0.00    +0.000 A 
ENDBRANCH   2  20
TORSDOF 2
ENDMDL
MODEL 3
REMARK VINA RESULT:      -8.3      0.688      1.300
REMARK  Name = 
REMARK  2 active torsions:
REMARK  status: ('A' for Active; 'I' for Inactive)
REMARK    1  A    between atoms: C_6  and  C_7
REMARK    2  A    between atoms: C_8  and  C_9
REMARK                            x       y       z     vdW  Elec       q    Type
REMARK                         _______ _______ _______ _____ _____    ______ ____
ROOT
ATOM      1  C   UNL     1       3.305   5.595  18.323  0.00  0.00    +0.000 A 
ATOM      2  C   UNL     1       3.124   6.963  18.127  0.00  0.00    +0.000 A 
ATOM      3  N   UNL     1       3.931   7.439  17.114  0.00  0.00    +0.000 NA
ATOM      4  C   UNL     1       4.604   6.400  16.685  0.00  0.00    +0.000 A 
ATOM      5  C   UNL     1       5.572   6.280  15.643  0.00  0.00    +0.000 A 
ATOM      6  C   UNL     1       6.141   5.082  15.386  0.00  0.00    +0.000 A 
ATOM      7 CL   UNL     1       7.307   4.903  14.129  0.00  0.00    +0.000 Cl
ATOM      8  C   UNL     1       5.779   3.897  16.141  0.00  0.00    +0.000 A 
ATOM      9  C   UNL     1       4.845   3.996  17.101  0.00  0.00    +0.000 A 
ATOM     10  N   UNL     1       4.267   5.242  17.388  0.00  0.00    +0.000 N 
ENDROOT
BRANCH   1  16
ATOM     11  N   UNL     1       0.410   1.936  18.660  0.00  0.00    +0.000 N 
ATOM     12  C   UNL     1       1.218   2.845  19.309  0.00  0.00    +0.000 A 
ATOM     13  N   UNL     1       1.219   2.830  20.642  0.00  0.00    +0.000 NA
ATOM     14  C   UNL     1       1.961   3.770  21.253  0.00  0.00    +0.000 A 
ATOM     15  C   UNL     1       2.665   4.734  20.579  0.00  0.00    +0.000 A 
ATOM     16  C   UNL     1       2.617   4.651  19.207  0.00  0.00    +0.000 A 
ATOM     17  N   UNL     1       1.897   3.715  18.562  0.00  0.00    +0.000 NA
ATOM     18  H   UNL     1      -0.319   1.612  19.281  0.00  0.00    +0.000 HD
ATOM     19  H   UNL     1       0.123   2.306  17.763  0.00  0.00    +0.000 HD
ENDBRANCH   1  16
BRANCH   2  20
ATOM     20  C   UNL     1       2.157   7.809  18.826  0.00  0.00    +0.000 A 
ATOM     21  C   UNL     1       1.487   8.851  18.161  0.00  0.00    +0.000 A 
ATOM     22  C   UNL     1       0.754   9.796  18.881  0.00  0.00    +0.000 A 
ATOM     23  C   UNL     1       0.631   9.660  20.255  0.00  0.00    +0.000 A 
ATOM     24  F   UNL     1      -0.029  10.595  20.950  0.00  0.00    +0.000 F 
ATOM     25  C   UNL     1       1.193   8.576  20.920  0.00  0.00    +0.000 A 
ATOM     26  C   UNL     1       1.953   7.646  20.204  0.00  0.00    +0.000 A 
ENDBRANCH   2  20
TORSDOF 2
ENDMDL
MODEL 4
REMARK VINA RESULT:      -8.1      2.452      4.658
REMARK  Name = 
REMARK  2 active torsions:
REMARK  status: ('A' for Active; 'I' for Inactive)
REMARK    1  A    between atoms: C_6  and  C_7
REMARK    2  A    between atoms: C_8  and  C_9
REMARK                            x       y       z     vdW  Elec       q    Type
REMARK                         _______ _______ _______ _____ _____    ______ ____
ROOT
ATOM      1  C   UNL     1       3.462   5.394  17.944  0.00  0.00    +0.000 A 
ATOM      2  C   UNL     1       3.451   4.034  18.246  0.00  0.00    +0.000 A 
ATOM      3  N   UNL     1       4.304   3.327  17.424  0.00  0.00    +0.000 NA
ATOM      4  C   UNL     1       4.837   4.218  16.623  0.00  0.00    +0.000 A 
ATOM      5  C   UNL     1       5.801   4.078  15.581  0.00  0.00    +0.000 A 
ATOM      6  C   UNL     1       6.199   5.161  14.880  0.00  0.00    +0.000 A 
ATOM      7 CL   UNL     1       7.367   5.026  13.620  0.00  0.00    +0.000 Cl
ATOM      8  C   UNL     1       5.677   6.483  15.173  0.00  0.00    +0.000 A 
ATOM      9  C   UNL     1       4.794   6.627  16.174  0.00  0.00    +0.000 A 
ATOM     10  N   UNL     1       4.360   5.502  16.891  0.00  0.00    +0.000 N 
ENDROOT
BRANCH   1  16
ATOM     11  N   UNL     1       1.810   9.749  17.499  0.00  0.00    +0.000 N 
ATOM     12  C   UNL     1       1.988   8.648  18.310  0.00  0.00    +0.000 A 
ATOM     13  N   UNL     1       1.633   8.759  19.590  0.00  0.00    +0.000 NA
ATOM     14  C   UNL     1       1.879   7.697  20.376  0.00  0.00    +0.000 A 
ATOM     15  C   UNL     1       2.494   6.555  19.933  0.00  0.00    +0.000 A 
ATOM     16  C   UNL     1       2.801   6.530  18.593  0.00  0.00    +0.000 A 
ATOM     17  N   UNL     1       2.556   7.568  17.774  0.00  0.00    +0.000 NA
ATOM     18  H   UNL     1       1.749  10.588  18.059  0.00  0.00    +0.000 HD
ATOM     19  H   UNL     1       2.489   9.740  16.749  0.00  0.00    +0.000 HD
ENDBRANCH   1  16
BRANCH   2  20
ATOM     20  C   UNL     1       2.707   3.404  19.336  0.00  0.00    +0.000 A 
ATOM     21  C   UNL     1       1.304   3.323  19.309  0.00  0.00    +0.000 A 
ATOM     22  C   UNL     1       0.593   2.940  20.448  0.00  0.00    +0.000 A 
ATOM     23  C   UNL     1       1.285   2.569  21.590  0.00  0.00    +0.000 A 
ATOM     24  F   UNL     1       0.603   2.252  22.697  0.00  0.00    +0.000 F 
ATOM     25  C   UNL     1       2.676   2.535  21.605  0.00  0.00    +0.000 A 
ATOM     26  C   UNL     1       3.388   2.948  20.475  0.00  0.00    +0.000 A 
ENDBRANCH   2  20
TORSDOF 2
ENDMDL
MODEL 5
REMARK VINA RESULT:      -8.1      0.728      1.648
REMARK  Name = 
REMARK  2 active torsions:
REMARK  status: ('A' for Active; 'I' for Inactive)
REMARK    1  A    between atoms: C_6  and  C_7
REMARK    2  A    between atoms: C_8  and  C_9
REMARK                            x       y       z     vdW  Elec       q    Type
REMARK                         _______ _______ _______ _____ _____    ______ ____
ROOT
ATOM      1  C   UNL     1       3.305   5.618  18.318  0.00  0.00    +0.000 A 
ATOM      2  C   UNL     1       3.191   6.999  18.163  0.00  0.00    +0.000 A 
ATOM      3  N   UNL     1       3.979   7.458  17.126  0.00  0.00    +0.000 NA
ATOM      4  C   UNL     1       4.575   6.395  16.643  0.00  0.00    +0.000 A 
ATOM      5  C   UNL     1       5.488   6.250  15.556  0.00  0.00    +0.000 A 
ATOM      6  C   UNL     1       5.978   5.031  15.245  0.00  0.00    +0.000 A 
ATOM      7 CL   UNL     1       7.077   4.822  13.933  0.00  0.00    +0.000 Cl
ATOM      8  C   UNL     1       5.584   3.847  15.986  0.00  0.00    +0.000 A 
ATOM      9  C   UNL     1       4.700   3.971  16.989  0.00  0.00    +0.000 A 
ATOM     10  N   UNL     1       4.205   5.238  17.331  0.00  0.00    +0.000 N 
ENDROOT
BRANCH   1  16
ATOM     11  N   UNL     1       0.378   1.988  18.680  0.00  0.00    +0.000 N 
ATOM     12  C   UNL     1       1.190   2.897  19.323  0.00  0.00    +0.000 A 
ATOM     13  N   UNL     1       1.185   2.896  20.656  0.00  0.00    +0.000 NA
ATOM     14  C   UNL     1       1.932   3.836  21.261  0.00  0.00    +0.000 A 
ATOM     15  C   UNL     1       2.647   4.787  20.580  0.00  0.00    +0.000 A 
ATOM     16  C   UNL     1       2.605   4.689  19.209  0.00  0.00    +0.000 A 
ATOM     17  N   UNL     1       1.881   3.753  18.570  0.00  0.00    +0.000 NA
ATOM     18  H   UNL     1      -0.357   1.677  19.301  0.00  0.00    +0.000 HD
ATOM     19  H   UNL     1       0.098   2.350  17.778  0.00  0.00    +0.000 HD
ENDBRANCH   1  16
BRANCH   2  20
ATOM     20  C   UNL     1       2.305   7.877  18.925  0.00  0.00    +0.000 A 
ATOM     21  C   UNL     1       2.021   7.628  20.280  0.00  0.00    +0.000 A 
ATOM     22  C   UNL     1       1.000   8.322  20.930  0.00  0.00    +0.000 A 
ATOM     23  C   UNL     1       0.310   9.313  20.250  0.00  0.00    +0.000 A 
ATOM     24  F   UNL     1      -0.704   9.942  20.857  0.00  0.00    +0.000 F 
ATOM     25  C   UNL     1       0.647   9.653  18.944  0.00  0.00    +0.000 A 
ATOM     26  C   UNL     1       1.649   8.937  18.282  0.00  0.00    +0.000 A 
ENDBRANCH   2  20
TORSDOF 2
ENDMDL
MODEL 6
REMARK VINA RESULT:      -8.1      4.416      7.139
REMARK  Name = 
REMARK  2 active torsions:
REMARK  status: ('A' for Active; 'I' for Inactive)
REMARK    1  A    between atoms: C_6  and  C_7
REMARK    2  A    between atoms: C_8  and  C_9
REMARK                            x       y       z     vdW  Elec       q    Type
REMARK                         _______ _______ _______ _____ _____    ______ ____
ROOT
ATOM      1  C   UNL     1       5.106   4.688  17.436  0.00  0.00    +0.000 A 
ATOM      2  C   UNL     1       4.825   4.054  16.227  0.00  0.00    +0.000 A 
ATOM      3  N   UNL     1       3.599   3.421  16.262  0.00  0.00    +0.000 NA
ATOM      4  C   UNL     1       3.122   3.648  17.462  0.00  0.00    +0.000 A 
ATOM      5  C   UNL     1       1.889   3.259  18.064  0.00  0.00    +0.000 A 
ATOM      6  C   UNL     1       1.619   3.616  19.339  0.00  0.00    +0.000 A 
ATOM      7 CL   UNL     1       0.135   3.168  20.093  0.00  0.00    +0.000 Cl
ATOM      8  C   UNL     1       2.556   4.406  20.116  0.00  0.00    +0.000 A 
ATOM      9  C   UNL     1       3.704   4.802  19.545  0.00  0.00    +0.000 A 
ATOM     10  N   UNL     1       4.000   4.416  18.229  0.00  0.00    +0.000 N 
ENDROOT
BRANCH   1  16
ATOM     11  N   UNL     1       8.761   5.291  20.293  0.00  0.00    +0.000 N 
ATOM     12  C   UNL     1       8.014   5.775  19.241  0.00  0.00    +0.000 A 
ATOM     13  N   UNL     1       8.322   6.982  18.767  0.00  0.00    +0.000 NA
ATOM     14  C   UNL     1       7.537   7.461  17.787  0.00  0.00    +0.000 A 
ATOM     15  C   UNL     1       6.446   6.792  17.297  0.00  0.00    +0.000 A 
ATOM     16  C   UNL     1       6.225   5.546  17.835  0.00  0.00    +0.000 A 
ATOM     17  N   UNL     1       6.998   5.029  18.806  0.00  0.00    +0.000 NA
ATOM     18  H   UNL     1       9.217   6.054  20.776  0.00  0.00    +0.000 HD
ATOM     19  H   UNL     1       8.204   4.657  20.851  0.00  0.00    +0.000 HD
ENDBRANCH   1  16
BRANCH   2  20
ATOM     20  C   UNL     1       5.655   4.095  15.024  0.00  0.00    +0.000 A 
ATOM     21  C   UNL     1       6.877   4.791  15.005  0.00  0.00    +0.000 A 
ATOM     22  C   UNL     1       7.541   5.025  13.801  0.00  0.00    +0.000 A 
ATOM     23  C   UNL     1       7.025   4.503  12.625  0.00  0.00    +0.000 A 
ATOM     24  F   UNL     1       7.635   4.771  11.464  0.00  0.00    +0.000 F 
ATOM     25  C   UNL     1       5.877   3.717  12.634  0.00  0.00    +0.000 A 
ATOM     26  C   UNL     1       5.194   3.509  13.836  0.00  0.00    +0.000 A 
ENDBRANCH   2  20
TORSDOF 2
ENDMDL
MODEL 7
REMARK VINA RESULT:      -8.0      2.317      4.304
REMARK  Name = 
REMARK  2 active torsions:
REMARK  status: ('A' for Active; 'I' for Inactive)
REMARK    1  A    between atoms: C_6  and  C_7
REMARK    2  A    between atoms: C_8  and  C_9
REMARK                            x       y       z     vdW  Elec       q    Type
REMARK                         _______ _______ _______ _____ _____    ______ ____
ROOT
ATOM      1  C   UNL     1       3.579   5.431  17.691  0.00  0.00    +0.000 A 
ATOM      2  C   UNL     1       3.557   4.086  18.055  0.00  0.00    +0.000 A 
ATOM      3  N   UNL     1       4.427   3.340  17.285  0.00  0.00    +0.000 NA
ATOM      4  C   UNL     1       4.980   4.193  16.458  0.00  0.00    +0.000 A 
ATOM      5  C   UNL     1       5.967   4.004  15.445  0.00  0.00    +0.000 A 
ATOM      6  C   UNL     1       6.385   5.053  14.705  0.00  0.00    +0.000 A 
ATOM      7 CL   UNL     1       7.581   4.859  13.479  0.00  0.00    +0.000 Cl
ATOM      8  C   UNL     1       5.860   6.388  14.925  0.00  0.00    +0.000 A 
ATOM      9  C   UNL     1       4.955   6.580  15.899  0.00  0.00    +0.000 A 
ATOM     10  N   UNL     1       4.501   5.489  16.655  0.00  0.00    +0.000 N 
ENDROOT
BRANCH   1  16
ATOM     11  N   UNL     1       1.665   7.358  21.501  0.00  0.00    +0.000 N 
ATOM     12  C   UNL     1       2.008   7.497  20.173  0.00  0.00    +0.000 A 
ATOM     13  N   UNL     1       1.623   8.610  19.548  0.00  0.00    +0.000 NA
ATOM     14  C   UNL     1       1.909   8.692  18.238  0.00  0.00    +0.000 A 
ATOM     15  C   UNL     1       2.530   7.693  17.534  0.00  0.00    +0.000 A 
ATOM     16  C   UNL     1       2.907   6.596  18.273  0.00  0.00    +0.000 A 
ATOM     17  N   UNL     1       2.651   6.485  19.589  0.00  0.00    +0.000 NA
ATOM     18  H   UNL     1       0.885   7.960  21.724  0.00  0.00    +0.000 HD
ATOM     19  H   UNL     1       1.575   6.377  21.735  0.00  0.00    +0.000 HD
ENDBRANCH   1  16
BRANCH   2  20
ATOM     20  C   UNL     1       2.787   3.508  19.155  0.00  0.00    +0.000 A 
ATOM     21  C   UNL     1       1.381   3.514  19.143  0.00  0.00    +0.000 A 
ATOM     22  C   UNL     1       0.660   3.181  20.290  0.00  0.00    +0.000 A 
ATOM     23  C   UNL     1       1.339   2.772  21.427  0.00  0.00    +0.000 A 
ATOM     24  F   UNL     1       0.650   2.502  22.542  0.00  0.00    +0.000 F 
ATOM     25  C   UNL     1       2.725   2.652  21.429  0.00  0.00    +0.000 A 
ATOM     26  C   UNL     1       3.450   3.015  20.290  0.00  0.00    +0.000 A 
ENDBRANCH   2  20
TORSDOF 2
ENDMDL
MODEL 8
REMARK VINA RESULT:      -7.7      4.501      7.129
REMARK  Name = 
REMARK  2 active torsions:
REMARK  status: ('A' for Active; 'I' for Inactive)
REMARK    1  A    between atoms: C_6  and  C_7
REMARK    2  A    between atoms: C_8  and  C_9
REMARK                            x       y       z     vdW  Elec       q    Type
REMARK                         _______ _______ _______ _____ _____    ______ ____
ROOT
ATOM      1  C   UNL     1       5.018   4.742  17.424  0.00  0.00    +0.000 A 
ATOM      2  C   UNL     1       4.661   4.186  16.197  0.00  0.00    +0.000 A 
ATOM      3  N   UNL     1       3.445   3.535  16.273  0.00  0.00    +0.000 NA
ATOM      4  C   UNL     1       3.050   3.675  17.514  0.00  0.00    +0.000 A 
ATOM      5  C   UNL     1       1.865   3.231  18.172  0.00  0.00    +0.000 A 
ATOM      6  C   UNL     1       1.680   3.499  19.483  0.00  0.00    +0.000 A 
ATOM      7 CL   UNL     1       0.255   2.982  20.304  0.00  0.00    +0.000 Cl
ATOM      8  C   UNL     1       2.661   4.248  20.246  0.00  0.00    +0.000 A 
ATOM      9  C   UNL     1       3.764   4.697  19.626  0.00  0.00    +0.000 A 
ATOM     10  N   UNL     1       3.972   4.403  18.270  0.00  0.00    +0.000 N 
ENDROOT
BRANCH   1  16
ATOM     11  N   UNL     1       8.750   5.286  20.194  0.00  0.00    +0.000 N 
ATOM     12  C   UNL     1       7.980   5.786  19.165  0.00  0.00    +0.000 A 
ATOM     13  N   UNL     1       8.287   6.995  18.695  0.00  0.00    +0.000 NA
ATOM     14  C   UNL     1       7.482   7.491  17.740  0.00  0.00    +0.000 A 
ATOM     15  C   UNL     1       6.373   6.836  17.271  0.00  0.00    +0.000 A 
ATOM     16  C   UNL     1       6.154   5.586  17.803  0.00  0.00    +0.000 A 
ATOM     17  N   UNL     1       6.948   5.053  18.749  0.00  0.00    +0.000 NA
ATOM     18  H   UNL     1       9.224   6.039  20.672  0.00  0.00    +0.000 HD
ATOM     19  H   UNL     1       8.202   4.650  20.759  0.00  0.00    +0.000 HD
ENDBRANCH   1  16
BRANCH   2  20
ATOM     20  C   UNL     1       5.406   4.317  14.946  0.00  0.00    +0.000 A 
ATOM     21  C   UNL     1       4.901   3.800  13.740  0.00  0.00    +0.000 A 
ATOM     22  C   UNL     1       5.713   3.717  12.608  0.00  0.00    +0.000 A 
ATOM     23  C   UNL     1       7.005   4.216  12.659  0.00  0.00    +0.000 A 
ATOM     24  F   UNL     1       7.800   4.089  11.589  0.00  0.00    +0.000 F 
ATOM     25  C   UNL     1       7.490   4.832  13.808  0.00  0.00    +0.000 A 
ATOM     26  C   UNL     1       6.687   4.887  14.951  0.00  0.00    +0.000 A 
ENDBRANCH   2  20
TORSDOF 2
ENDMDL
MODEL 9
REMARK VINA RESULT:      -7.7      3.601      5.853
REMARK  Name = 
REMARK  2 active torsions:
REMARK  status: ('A' for Active; 'I' for Inactive)
REMARK    1  A    between atoms: C_6  and  C_7
REMARK    2  A    between atoms: C_8  and  C_9
REMARK                            x       y       z     vdW  Elec       q    Type
REMARK                         _______ _______ _______ _____ _____    ______ ____
ROOT
ATOM      1  C   UNL     1       2.800   6.083  19.346  0.00  0.00    +0.000 A 
ATOM      2  C   UNL     1       3.456   6.528  18.200  0.00  0.00    +0.000 A 
ATOM      3  N   UNL     1       3.112   7.830  17.894  0.00  0.00    +0.000 NA
ATOM      4  C   UNL     1       2.260   8.193  18.821  0.00  0.00    +0.000 A 
ATOM      5  C   UNL     1       1.582   9.431  19.032  0.00  0.00    +0.000 A 
ATOM      6  C   UNL     1       0.734   9.567  20.074  0.00  0.00    +0.000 A 
ATOM      7 CL   UNL     1      -0.094  11.051  20.360  0.00  0.00    +0.000 Cl
ATOM      8  C   UNL     1       0.501   8.478  21.005  0.00  0.00    +0.000 A 
ATOM      9  C   UNL     1       1.161   7.321  20.831  0.00  0.00    +0.000 A 
ATOM     10  N   UNL     1       2.026   7.167  19.738  0.00  0.00    +0.000 N 
ENDROOT
BRANCH   1  16
ATOM     11  N   UNL     1       5.101   2.049  19.909  0.00  0.00    +0.000 N 
ATOM     12  C   UNL     1       4.092   2.884  20.340  0.00  0.00    +0.000 A 
ATOM     13  N   UNL     1       3.288   2.436  21.305  0.00  0.00    +0.000 NA
ATOM     14  C   UNL     1       2.271   3.239  21.660  0.00  0.00    +0.000 A 
ATOM     15  C   UNL     1       2.016   4.446  21.062  0.00  0.00    +0.000 A 
ATOM     16  C   UNL     1       2.914   4.828  20.094  0.00  0.00    +0.000 A 
ATOM     17  N   UNL     1       3.952   4.057  19.723  0.00  0.00    +0.000 NA
ATOM     18  H   UNL     1       4.885   1.091  20.147  0.00  0.00    +0.000 HD
ATOM     19  H   UNL     1       5.326   2.247  18.943  0.00  0.00    +0.000 HD
ENDBRANCH   1  16
BRANCH   2  20
ATOM     20  C   UNL     1       4.450   5.777  17.434  0.00  0.00    +0.000 A 
ATOM     21  C   UNL     1       5.781   6.218  17.338  0.00  0.00    +0.000 A 
ATOM     22  C   UNL     1       6.657   5.636  16.421  0.00  0.00    +0.000 A 
ATOM     23  C   UNL     1       6.227   4.565  15.653  0.00  0.00    +0.000 A 
ATOM     24  F   UNL     1       7.051   4.040  14.738  0.00  0.00    +0.000 F 
ATOM     25  C   UNL     1       4.948   4.040  15.810  0.00  0.00    +0.000 A 
ATOM     26  C   UNL     1       4.061   4.643  16.705  0.00  0.00    +0.000 A 
ENDBRANCH   2  20
TORSDOF 2
ENDMDL
