MODEL 1
REMARK VINA RESULT:      -7.6      0.000      0.000
REMARK  Name = 
REMARK  10 active torsions:
REMARK  status: ('A' for Active; 'I' for Inactive)
REMARK    1  A    between atoms: C_1  and  C_2
REMARK    2  A    between atoms: C_2  and  O_3
REMARK    3  A    between atoms: O_3  and  C_4
REMARK    4  A    between atoms: C_4  and  C_5
REMARK    5  A    between atoms: C_6  and  C_7
REMARK    6  A    between atoms: C_7  and  O_9
REMARK    7  A    between atoms: O_9  and  C_10
REMARK    8  A    between atoms: C_10  and  C_11
REMARK    9  A    between atoms: N_13  and  C_14
REMARK   10  A    between atoms: C_14  and  C_15
REMARK                            x       y       z     vdW  Elec       q    Type
REMARK                         _______ _______ _______ _____ _____    ______ ____
ROOT
ATOM      1  C   UNL     1       7.133   6.104  16.960  0.00  0.00    +0.000 C 
ATOM      2  O   UNL     1       7.012   7.308  17.155  0.00  0.00    +0.000 OA
ENDROOT
BRANCH   1   4
ATOM      3  C   UNL     1       5.639   4.718  15.408  0.00  0.00    +0.000 A 
ATOM      4  C   UNL     1       6.794   5.424  15.728  0.00  0.00    +0.000 A 
ATOM      5  O   UNL     1       7.667   5.379  14.671  0.00  0.00    +0.000 OA
ATOM      6  C   UNL     1       7.072   4.651  13.681  0.00  0.00    +0.000 A 
ATOM      7  C   UNL     1       7.621   4.360  12.432  0.00  0.00    +0.000 A 
ATOM      8  C   UNL     1       6.825   3.606  11.556  0.00  0.00    +0.000 A 
ATOM      9  C   UNL     1       5.550   3.173  11.926  0.00  0.00    +0.000 A 
ATOM     10  C   UNL     1       5.030   3.475  13.189  0.00  0.00    +0.000 A 
ATOM     11  C   UNL     1       5.814   4.226  14.085  0.00  0.00    +0.000 A 
BRANCH   3  12
ATOM     12  C   UNL     1       4.434   4.576  16.261  0.00  0.00    +0.000 C 
BRANCH  12  13
ATOM     13  O   UNL     1       4.507   3.341  16.960  0.00  0.00    +0.000 OA
BRANCH  13  15
ATOM     14  C   UNL     1       3.435   1.578  18.090  0.00  0.00    +0.000 C 
ATOM     15  C   UNL     1       3.247   2.946  17.482  0.00  0.00    +0.000 C 
ENDBRANCH  13  15
ENDBRANCH  12  13
ENDBRANCH   3  12
ENDBRANCH   1   4
BRANCH   1  16
ATOM     16  O   UNL     1       7.587   5.233  17.907  0.00  0.00    +0.000 OA
BRANCH  16  17
ATOM     17  C   UNL     1       7.159   5.565  19.228  0.00  0.00    +0.000 C 
BRANCH  17  18
ATOM     18  C   UNL     1       5.708   5.165  19.556  0.00  0.00    +0.000 C 
ATOM     19  O   UNL     1       5.412   4.057  19.993  0.00  0.00    +0.000 OA
ATOM     20  N   UNL     1       4.768   6.142  19.279  0.00  0.00    +0.000 N 
ATOM     21  H   UNL     1       5.070   7.060  18.984  0.00  0.00    +0.000 HD
BRANCH  20  22
ATOM     22  C   UNL     1       3.350   5.922  19.466  0.00  0.00    +0.000 C 
BRANCH  22  23
ATOM     23  C   UNL     1       2.520   7.172  19.298  0.00  0.00    +0.000 A 
ATOM     24  C   UNL     1       1.817   7.736  20.375  0.00  0.00    +0.000 A 
ATOM     25  C   UNL     1       1.078   8.914  20.205  0.00  0.00    +0.000 A 
ATOM     26  C   UNL     1       1.052   9.534  18.964  0.00  0.00    +0.000 A 
ATOM     27  F   UNL     1       0.336  10.654  18.794  0.00  0.00    +0.000 F 
ATOM     28  C   UNL     1       1.755   9.004  17.893  0.00  0.00    +0.000 A 
ATOM     29  C   UNL     1       2.467   7.813  18.051  0.00  0.00    +0.000 A 
ENDBRANCH  22  23
ENDBRANCH  20  22
ENDBRANCH  17  18
ENDBRANCH  16  17
ENDBRANCH   1  16
TORSDOF 9
ENDMDL
MODEL 2
REMARK VINA RESULT:      -7.6      4.084      6.772
REMARK  Name = 
REMARK  10 active torsions:
REMARK  status: ('A' for Active; 'I' for Inactive)
REMARK    1  A    between atoms: C_1  and  C_2
REMARK    2  A    between atoms: C_2  and  O_3
REMARK    3  A    between atoms: O_3  and  C_4
REMARK    4  A    between atoms: C_4  and  C_5
REMARK    5  A    between atoms: C_6  and  C_7
REMARK    6  A    between atoms: C_7  and  O_9
REMARK    7  A    between atoms: O_9  and  C_10
REMARK    8  A    between atoms: C_10  and  C_11
REMARK    9  A    between atoms: N_13  and  C_14
REMARK   10  A    between atoms: C_14  and  C_15
REMARK                            x       y       z     vdW  Elec       q    Type
REMARK                         _______ _______ _______ _____ _____    ______ ____
ROOT
ATOM      1  C   UNL     1       6.090   4.214  17.461  0.00  0.00    +0.000 C 
ATOM      2  O   UNL     1       6.050   4.061  16.245  0.00  0.00    +0.000 OA
ENDROOT
BRANCH   1   4
ATOM      3  C   UNL     1       3.788   4.717  18.464  0.00  0.00    +0.000 A 
ATOM      4  C   UNL     1       4.976   4.004  18.361  0.00  0.00    +0.000 A 
ATOM      5  O   UNL     1       4.998   3.010  19.307  0.00  0.00    +0.000 OA
ATOM      6  C   UNL     1       3.828   3.087  20.006  0.00  0.00    +0.000 A 
ATOM      7  C   UNL     1       3.446   2.259  21.063  0.00  0.00    +0.000 A 
ATOM      8  C   UNL     1       2.187   2.507  21.632  0.00  0.00    +0.000 A 
ATOM      9  C   UNL     1       1.366   3.532  21.158  0.00  0.00    +0.000 A 
ATOM     10  C   UNL     1       1.781   4.350  20.101  0.00  0.00    +0.000 A 
ATOM     11  C   UNL     1       3.042   4.123  19.519  0.00  0.00    +0.000 A 
BRANCH   3  12
ATOM     12  C   UNL     1       3.358   5.835  17.587  0.00  0.00    +0.000 C 
BRANCH  12  13
ATOM     13  O   UNL     1       3.579   7.064  18.265  0.00  0.00    +0.000 OA
BRANCH  13  15
ATOM     14  C   UNL     1       2.083   8.761  17.619  0.00  0.00    +0.000 C 
ATOM     15  C   UNL     1       2.363   7.691  18.646  0.00  0.00    +0.000 C 
ENDBRANCH  13  15
ENDBRANCH  12  13
ENDBRANCH   3  12
ENDBRANCH   1   4
BRANCH   1  16
ATOM     16  O   UNL     1       7.203   4.635  18.128  0.00  0.00    +0.000 OA
BRANCH  16  17
ATOM     17  C   UNL     1       7.092   5.970  18.622  0.00  0.00    +0.000 C 
BRANCH  17  18
ATOM     18  C   UNL     1       7.565   7.062  17.644  0.00  0.00    +0.000 C 
ATOM     19  O   UNL     1       7.666   6.866  16.436  0.00  0.00    +0.000 OA
ATOM     20  N   UNL     1       7.902   8.262  18.243  0.00  0.00    +0.000 N 
ATOM     21  H   UNL     1       7.735   8.394  19.231  0.00  0.00    +0.000 HD
BRANCH  20  22
ATOM     22  C   UNL     1       8.423   9.382  17.488  0.00  0.00    +0.000 C 
BRANCH  22  23
ATOM     23  C   UNL     1       8.917  10.514  18.355  0.00  0.00    +0.000 A 
ATOM     24  C   UNL     1       8.879  11.847  17.913  0.00  0.00    +0.000 A 
ATOM     25  C   UNL     1       9.314  12.886  18.745  0.00  0.00    +0.000 A 
ATOM     26  C   UNL     1       9.774  12.596  20.022  0.00  0.00    +0.000 A 
ATOM     27  F   UNL     1      10.203  13.586  20.817  0.00  0.00    +0.000 F 
ATOM     28  C   UNL     1       9.802  11.288  20.484  0.00  0.00    +0.000 A 
ATOM     29  C   UNL     1       9.398  10.247  19.646  0.00  0.00    +0.000 A 
ENDBRANCH  22  23
ENDBRANCH  20  22
ENDBRANCH  17  18
ENDBRANCH  16  17
ENDBRANCH   1  16
TORSDOF 9
ENDMDL
MODEL 3
REMARK VINA RESULT:      -7.6      4.201      6.799
REMARK  Name = 
REMARK  10 active torsions:
REMARK  status: ('A' for Active; 'I' for Inactive)
REMARK    1  A    between atoms: C_1  and  C_2
REMARK    2  A    between atoms: C_2  and  O_3
REMARK    3  A    between atoms: O_3  and  C_4
REMARK    4  A    between atoms: C_4  and  C_5
REMARK    5  A    between atoms: C_6  and  C_7
REMARK    6  A    between atoms: C_7  and  O_9
REMARK    7  A    between atoms: O_9  and  C_10
REMARK    8  A    between atoms: C_10  and  C_11
REMARK    9  A    between atoms: N_13  and  C_14
REMARK   10  A    between atoms: C_14  and  C_15
REMARK                            x       y       z     vdW  Elec       q    Type
REMARK                         _______ _______ _______ _____ _____    ______ ____
ROOT
ATOM      1  C   UNL     1       6.439   4.408  17.514  0.00  0.00    +0.000 C 
ATOM      2  O   UNL     1       6.481   4.279  16.296  0.00  0.00    +0.000 OA
ENDROOT
BRANCH   1   4
ATOM      3  C   UNL     1       4.166   5.175  18.414  0.00  0.00    +0.000 A 
ATOM      4  C   UNL     1       5.242   4.299  18.320  0.00  0.00    +0.000 A 
ATOM      5  O   UNL     1       5.045   3.239  19.169  0.00  0.00    +0.000 OA
ATOM      6  C   UNL     1       3.849   3.437  19.798  0.00  0.00    +0.000 A 
ATOM      7  C   UNL     1       3.270   2.594  20.747  0.00  0.00    +0.000 A 
ATOM      8  C   UNL     1       2.022   2.984  21.257  0.00  0.00    +0.000 A 
ATOM      9  C   UNL     1       1.400   4.159  20.829  0.00  0.00    +0.000 A 
ATOM     10  C   UNL     1       2.009   4.987  19.881  0.00  0.00    +0.000 A 
ATOM     11  C   UNL     1       3.264   4.618  19.360  0.00  0.00    +0.000 A 
BRANCH   3  12
ATOM     12  C   UNL     1       3.974   6.413  17.619  0.00  0.00    +0.000 C 
BRANCH  12  13
ATOM     13  O   UNL     1       2.701   6.964  17.925  0.00  0.00    +0.000 OA
BRANCH  13  15
ATOM     14  C   UNL     1       1.646   8.908  18.730  0.00  0.00    +0.000 C 
ATOM     15  C   UNL     1       2.674   8.375  17.762  0.00  0.00    +0.000 C 
ENDBRANCH  13  15
ENDBRANCH  12  13
ENDBRANCH   3  12
ENDBRANCH   1   4
BRANCH   1  16
ATOM     16  O   UNL     1       7.532   4.704  18.275  0.00  0.00    +0.000 OA
BRANCH  16  17
ATOM     17  C   UNL     1       7.482   6.011  18.848  0.00  0.00    +0.000 C 
BRANCH  17  18
ATOM     18  C   UNL     1       7.755   7.160  17.857  0.00  0.00    +0.000 C 
ATOM     19  O   UNL     1       7.665   7.016  16.642  0.00  0.00    +0.000 OA
ATOM     20  N   UNL     1       8.145   8.347  18.450  0.00  0.00    +0.000 N 
ATOM     21  H   UNL     1       8.137   8.431  19.457  0.00  0.00    +0.000 HD
BRANCH  20  22
ATOM     22  C   UNL     1       8.501   9.516  17.674  0.00  0.00    +0.000 C 
BRANCH  22  23
ATOM     23  C   UNL     1       9.100  10.627  18.501  0.00  0.00    +0.000 A 
ATOM     24  C   UNL     1       9.444  10.433  19.850  0.00  0.00    +0.000 A 
ATOM     25  C   UNL     1      10.028  11.467  20.592  0.00  0.00    +0.000 A 
ATOM     26  C   UNL     1      10.280  12.690  19.985  0.00  0.00    +0.000 A 
ATOM     27  F   UNL     1      10.826  13.686  20.694  0.00  0.00    +0.000 F 
ATOM     28  C   UNL     1       9.965  12.895  18.650  0.00  0.00    +0.000 A 
ATOM     29  C   UNL     1       9.354  11.876  17.915  0.00  0.00    +0.000 A 
ENDBRANCH  22  23
ENDBRANCH  20  22
ENDBRANCH  17  18
ENDBRANCH  16  17
ENDBRANCH   1  16
TORSDOF 9
ENDMDL
MODEL 4
REMARK VINA RESULT:      -7.6      3.324      7.458
REMARK  Name = 
REMARK  10 active torsions:
REMARK  status: ('A' for Active; 'I' for Inactive)
REMARK    1  A    between atoms: C_1  and  C_2
REMARK    2  A    between atoms: C_2  and  O_3
REMARK    3  A    between atoms: O_3  and  C_4
REMARK    4  A    between atoms: C_4  and  C_5
REMARK    5  A    between atoms: C_6  and  C_7
REMARK    6  A    between atoms: C_7  and  O_9
REMARK    7  A    between atoms: O_9  and  C_10
REMARK    8  A    between atoms: C_10  and  C_11
REMARK    9  A    between atoms: N_13  and  C_14
REMARK   10  A    between atoms: C_14  and  C_15
REMARK                            x       y       z     vdW  Elec       q    Type
REMARK                         _______ _______ _______ _____ _____    ______ ____
ROOT
ATOM      1  C   UNL     1       6.476   5.392  18.994  0.00  0.00    +0.000 C 
ATOM      2  O   UNL     1       7.160   5.453  20.010  0.00  0.00    +0.000 OA
ENDROOT
BRANCH   1   4
ATOM      3  C   UNL     1       3.932   5.288  18.715  0.00  0.00    +0.000 A 
ATOM      4  C   UNL     1       5.193   4.730  18.896  0.00  0.00    +0.000 A 
ATOM      5  O   UNL     1       5.079   3.368  19.013  0.00  0.00    +0.000 OA
ATOM      6  C   UNL     1       3.754   3.059  18.904  0.00  0.00    +0.000 A 
ATOM      7  C   UNL     1       3.200   1.780  18.970  0.00  0.00    +0.000 A 
ATOM      8  C   UNL     1       1.808   1.689  18.817  0.00  0.00    +0.000 A 
ATOM      9  C   UNL     1       1.025   2.827  18.609  0.00  0.00    +0.000 A 
ATOM     10  C   UNL     1       1.610   4.097  18.555  0.00  0.00    +0.000 A 
ATOM     11  C   UNL     1       3.004   4.211  18.712  0.00  0.00    +0.000 A 
BRANCH   3  12
ATOM     12  C   UNL     1       3.634   6.725  18.494  0.00  0.00    +0.000 C 
BRANCH  12  13
ATOM     13  O   UNL     1       2.786   7.185  19.537  0.00  0.00    +0.000 OA
BRANCH  13  15
ATOM     14  C   UNL     1       2.351   8.598  17.707  0.00  0.00    +0.000 C 
ATOM     15  C   UNL     1       1.924   8.227  19.106  0.00  0.00    +0.000 C 
ENDBRANCH  13  15
ENDBRANCH  12  13
ENDBRANCH   3  12
ENDBRANCH   1   4
BRANCH   1  16
ATOM     16  O   UNL     1       6.859   5.926  17.799  0.00  0.00    +0.000 OA
BRANCH  16  17
ATOM     17  C   UNL     1       7.187   4.939  16.820  0.00  0.00    +0.000 C 
BRANCH  17  18
ATOM     18  C   UNL     1       6.606   5.205  15.417  0.00  0.00    +0.000 C 
ATOM     19  O   UNL     1       5.429   5.500  15.237  0.00  0.00    +0.000 OA
ATOM     20  N   UNL     1       7.510   5.043  14.383  0.00  0.00    +0.000 N 
ATOM     21  H   UNL     1       8.484   4.865  14.590  0.00  0.00    +0.000 HD
BRANCH  20  22
ATOM     22  C   UNL     1       7.128   5.192  12.995  0.00  0.00    +0.000 C 
BRANCH  22  23
ATOM     23  C   UNL     1       6.803   3.882  12.318  0.00  0.00    +0.000 A 
ATOM     24  C   UNL     1       7.810   3.072  11.767  0.00  0.00    +0.000 A 
ATOM     25  C   UNL     1       7.492   1.846  11.169  0.00  0.00    +0.000 A 
ATOM     26  C   UNL     1       6.170   1.423  11.134  0.00  0.00    +0.000 A 
ATOM     27  F   UNL     1       5.859   0.257  10.552  0.00  0.00    +0.000 F 
ATOM     28  C   UNL     1       5.163   2.200  11.688  0.00  0.00    +0.000 A 
ATOM     29  C   UNL     1       5.474   3.437  12.257  0.00  0.00    +0.000 A 
ENDBRANCH  22  23
ENDBRANCH  20  22
ENDBRANCH  17  18
ENDBRANCH  16  17
ENDBRANCH   1  16
TORSDOF 9
ENDMDL
MODEL 5
REMARK VINA RESULT:      -7.5      4.586      6.778
REMARK  Name = 
REMARK  10 active torsions:
REMARK  status: ('A' for Active; 'I' for Inactive)
REMARK    1  A    between atoms: C_1  and  C_2
REMARK    2  A    between atoms: C_2  and  O_3
REMARK    3  A    between atoms: O_3  and  C_4
REMARK    4  A    between atoms: C_4  and  C_5
REMARK    5  A    between atoms: C_6  and  C_7
REMARK    6  A    between atoms: C_7  and  O_9
REMARK    7  A    between atoms: O_9  and  C_10
REMARK    8  A    between atoms: C_10  and  C_11
REMARK    9  A    between atoms: N_13  and  C_14
REMARK   10  A    between atoms: C_14  and  C_15
REMARK                            x       y       z     vdW  Elec       q    Type
REMARK                         _______ _______ _______ _____ _____    ______ ____
ROOT
ATOM      1  C   UNL     1       7.521   4.668  17.668  0.00  0.00    +0.000 C 
ATOM      2  O   UNL     1       8.511   3.990  17.924  0.00  0.00    +0.000 OA
ENDROOT
BRANCH   1   4
ATOM      3  C   UNL     1       5.109   4.202  16.945  0.00  0.00    +0.000 A 
ATOM      4  C   UNL     1       6.152   4.244  17.864  0.00  0.00    +0.000 A 
ATOM      5  O   UNL     1       5.698   3.834  19.092  0.00  0.00    +0.000 OA
ATOM      6  C   UNL     1       4.374   3.528  18.956  0.00  0.00    +0.000 A 
ATOM      7  C   UNL     1       3.527   3.073  19.967  0.00  0.00    +0.000 A 
ATOM      8  C   UNL     1       2.199   2.804  19.603  0.00  0.00    +0.000 A 
ATOM      9  C   UNL     1       1.757   2.987  18.290  0.00  0.00    +0.000 A 
ATOM     10  C   UNL     1       2.628   3.452  17.300  0.00  0.00    +0.000 A 
ATOM     11  C   UNL     1       3.964   3.733  17.645  0.00  0.00    +0.000 A 
BRANCH   3  12
ATOM     12  C   UNL     1       5.203   4.516  15.498  0.00  0.00    +0.000 C 
BRANCH  12  13
ATOM     13  O   UNL     1       6.082   3.586  14.881  0.00  0.00    +0.000 OA
BRANCH  13  15
ATOM     14  C   UNL     1       7.343   4.935  13.423  0.00  0.00    +0.000 C 
ATOM     15  C   UNL     1       6.280   3.867  13.503  0.00  0.00    +0.000 C 
ENDBRANCH  13  15
ENDBRANCH  12  13
ENDBRANCH   3  12
ENDBRANCH   1   4
BRANCH   1  16
ATOM     16  O   UNL     1       7.589   5.921  17.132  0.00  0.00    +0.000 OA
BRANCH  16  17
ATOM     17  C   UNL     1       7.909   6.927  18.094  0.00  0.00    +0.000 C 
BRANCH  17  18
ATOM     18  C   UNL     1       7.578   8.367  17.655  0.00  0.00    +0.000 C 
ATOM     19  O   UNL     1       6.632   8.630  16.918  0.00  0.00    +0.000 OA
ATOM     20  N   UNL     1       8.455   9.326  18.128  0.00  0.00    +0.000 N 
ATOM     21  H   UNL     1       9.176   9.066  18.787  0.00  0.00    +0.000 HD
BRANCH  20  22
ATOM     22  C   UNL     1       8.335  10.723  17.770  0.00  0.00    +0.000 C 
BRANCH  22  23
ATOM     23  C   UNL     1       9.416  11.592  18.368  0.00  0.00    +0.000 A 
ATOM     24  C   UNL     1       9.664  12.889  17.888  0.00  0.00    +0.000 A 
ATOM     25  C   UNL     1      10.651  13.690  18.476  0.00  0.00    +0.000 A 
ATOM     26  C   UNL     1      11.380  13.201  19.551  0.00  0.00    +0.000 A 
ATOM     27  F   UNL     1      12.333  13.959  20.109  0.00  0.00    +0.000 F 
ATOM     28  C   UNL     1      11.137  11.931  20.052  0.00  0.00    +0.000 A 
ATOM     29  C   UNL     1      10.176  11.118  19.448  0.00  0.00    +0.000 A 
ENDBRANCH  22  23
ENDBRANCH  20  22
ENDBRANCH  17  18
ENDBRANCH  16  17
ENDBRANCH   1  16
TORSDOF 9
ENDMDL
MODEL 6
REMARK VINA RESULT:      -7.5      4.487      6.623
REMARK  Name = 
REMARK  10 active torsions:
REMARK  status: ('A' for Active; 'I' for Inactive)
REMARK    1  A    between atoms: C_1  and  C_2
REMARK    2  A    between atoms: C_2  and  O_3
REMARK    3  A    between atoms: O_3  and  C_4
REMARK    4  A    between atoms: C_4  and  C_5
REMARK    5  A    between atoms: C_6  and  C_7
REMARK    6  A    between atoms: C_7  and  O_9
REMARK    7  A    between atoms: O_9  and  C_10
REMARK    8  A    between atoms: C_10  and  C_11
REMARK    9  A    between atoms: N_13  and  C_14
REMARK   10  A    between atoms: C_14  and  C_15
REMARK                            x       y       z     vdW  Elec       q    Type
REMARK                         _______ _______ _______ _____ _____    ______ ____
ROOT
ATOM      1  C   UNL     1       6.965   4.869  18.511  0.00  0.00    +0.000 C 
ATOM      2  O   UNL     1       7.979   4.294  18.130  0.00  0.00    +0.000 OA
ENDROOT
BRANCH   1   4
ATOM      3  C   UNL     1       4.679   4.304  17.504  0.00  0.00    +0.000 A 
ATOM      4  C   UNL     1       5.637   4.295  18.512  0.00  0.00    +0.000 A 
ATOM      5  O   UNL     1       5.135   3.653  19.616  0.00  0.00    +0.000 OA
ATOM      6  C   UNL     1       3.865   3.253  19.312  0.00  0.00    +0.000 A 
ATOM      7  C   UNL     1       2.995   2.565  20.160  0.00  0.00    +0.000 A 
ATOM      8  C   UNL     1       1.735   2.237  19.636  0.00  0.00    +0.000 A 
ATOM      9  C   UNL     1       1.379   2.586  18.331  0.00  0.00    +0.000 A 
ATOM     10  C   UNL     1       2.271   3.282  17.508  0.00  0.00    +0.000 A 
ATOM     11  C   UNL     1       3.539   3.625  18.015  0.00  0.00    +0.000 A 
BRANCH   3  12
ATOM     12  C   UNL     1       4.852   4.853  16.136  0.00  0.00    +0.000 C 
BRANCH  12  13
ATOM     13  O   UNL     1       5.041   3.776  15.228  0.00  0.00    +0.000 OA
BRANCH  13  15
ATOM     14  C   UNL     1       7.061   4.912  14.826  0.00  0.00    +0.000 C 
ATOM     15  C   UNL     1       5.955   4.103  14.193  0.00  0.00    +0.000 C 
ENDBRANCH  13  15
ENDBRANCH  12  13
ENDBRANCH   3  12
ENDBRANCH   1   4
BRANCH   1  16
ATOM     16  O   UNL     1       6.958   6.154  18.967  0.00  0.00    +0.000 OA
BRANCH  16  17
ATOM     17  C   UNL     1       8.221   6.807  18.828  0.00  0.00    +0.000 C 
BRANCH  17  18
ATOM     18  C   UNL     1       8.163   8.182  18.134  0.00  0.00    +0.000 C 
ATOM     19  O   UNL     1       7.550   8.366  17.087  0.00  0.00    +0.000 OA
ATOM     20  N   UNL     1       8.891   9.174  18.767  0.00  0.00    +0.000 N 
ATOM     21  H   UNL     1       9.321   8.987  19.662  0.00  0.00    +0.000 HD
BRANCH  20  22
ATOM     22  C   UNL     1       9.001  10.512  18.226  0.00  0.00    +0.000 C 
BRANCH  22  23
ATOM     23  C   UNL     1       9.398  11.544  19.254  0.00  0.00    +0.000 A 
ATOM     24  C   UNL     1       9.745  12.854  18.882  0.00  0.00    +0.000 A 
ATOM     25  C   UNL     1      10.082  13.805  19.853  0.00  0.00    +0.000 A 
ATOM     26  C   UNL     1      10.058  13.453  21.196  0.00  0.00    +0.000 A 
ATOM     27  F   UNL     1      10.390  14.356  22.127  0.00  0.00    +0.000 F 
ATOM     28  C   UNL     1       9.699  12.171  21.585  0.00  0.00    +0.000 A 
ATOM     29  C   UNL     1       9.394  11.211  20.617  0.00  0.00    +0.000 A 
ENDBRANCH  22  23
ENDBRANCH  20  22
ENDBRANCH  17  18
ENDBRANCH  16  17
ENDBRANCH   1  16
TORSDOF 9
ENDMDL
MODEL 7
REMARK VINA RESULT:      -7.4      4.598      5.660
REMARK  Name = 
REMARK  10 active torsions:
REMARK  status: ('A' for Active; 'I' for Inactive)
REMARK    1  A    between atoms: C_1  and  C_2
REMARK    2  A    between atoms: C_2  and  O_3
REMARK    3  A    between atoms: O_3  and  C_4
REMARK    4  A    between atoms: C_4  and  C_5
REMARK    5  A    between atoms: C_6  and  C_7
REMARK    6  A    between atoms: C_7  and  O_9
REMARK    7  A    between atoms: O_9  and  C_10
REMARK    8  A    between atoms: C_10  and  C_11
REMARK    9  A    between atoms: N_13  and  C_14
REMARK   10  A    between atoms: C_14  and  C_15
REMARK                            x       y       z     vdW  Elec       q    Type
REMARK                         _______ _______ _______ _____ _____    ______ ____
ROOT
ATOM      1  C   UNL     1       6.941   5.442  17.640  0.00  0.00    +0.000 C 
ATOM      2  O   UNL     1       7.500   4.773  18.504  0.00  0.00    +0.000 OA
ENDROOT
BRANCH   1   4
ATOM      3  C   UNL     1       5.738   4.240  15.725  0.00  0.00    +0.000 A 
ATOM      4  C   UNL     1       6.746   5.029  16.267  0.00  0.00    +0.000 A 
ATOM      5  O   UNL     1       7.633   5.381  15.281  0.00  0.00    +0.000 OA
ATOM      6  C   UNL     1       7.190   4.822  14.117  0.00  0.00    +0.000 A 
ATOM      7  C   UNL     1       7.804   4.931  12.868  0.00  0.00    +0.000 A 
ATOM      8  C   UNL     1       7.166   4.287  11.796  0.00  0.00    +0.000 A 
ATOM      9  C   UNL     1       5.979   3.575  11.981  0.00  0.00    +0.000 A 
ATOM     10  C   UNL     1       5.393   3.478  13.247  0.00  0.00    +0.000 A 
ATOM     11  C   UNL     1       6.018   4.112  14.337  0.00  0.00    +0.000 A 
BRANCH   3  12
ATOM     12  C   UNL     1       4.560   3.703  16.451  0.00  0.00    +0.000 C 
BRANCH  12  13
ATOM     13  O   UNL     1       3.803   4.789  16.967  0.00  0.00    +0.000 OA
BRANCH  13  15
ATOM     14  C   UNL     1       2.254   3.136  17.601  0.00  0.00    +0.000 C 
ATOM     15  C   UNL     1       2.962   4.393  18.041  0.00  0.00    +0.000 C 
ENDBRANCH  13  15
ENDBRANCH  12  13
ENDBRANCH   3  12
ENDBRANCH   1   4
BRANCH   1  16
ATOM     16  O   UNL     1       6.448   6.694  17.864  0.00  0.00    +0.000 OA
BRANCH  16  17
ATOM     17  C   UNL     1       7.262   7.727  17.308  0.00  0.00    +0.000 C 
BRANCH  17  18
ATOM     18  C   UNL     1       8.256   8.368  18.296  0.00  0.00    +0.000 C 
ATOM     19  O   UNL     1       8.834   7.719  19.163  0.00  0.00    +0.000 OA
ATOM     20  N   UNL     1       8.409   9.735  18.150  0.00  0.00    +0.000 N 
ATOM     21  H   UNL     1       7.962  10.210  17.377  0.00  0.00    +0.000 HD
BRANCH  20  22
ATOM     22  C   UNL     1       9.255  10.514  19.028  0.00  0.00    +0.000 C 
BRANCH  22  23
ATOM     23  C   UNL     1       9.805  11.762  18.381  0.00  0.00    +0.000 A 
ATOM     24  C   UNL     1       9.142  12.997  18.487  0.00  0.00    +0.000 A 
ATOM     25  C   UNL     1       9.684  14.149  17.904  0.00  0.00    +0.000 A 
ATOM     26  C   UNL     1      10.894  14.072  17.228  0.00  0.00    +0.000 A 
ATOM     27  F   UNL     1      11.410  15.170  16.659  0.00  0.00    +0.000 F 
ATOM     28  C   UNL     1      11.573  12.867  17.128  0.00  0.00    +0.000 A 
ATOM     29  C   UNL     1      11.019  11.710  17.681  0.00  0.00    +0.000 A 
ENDBRANCH  22  23
ENDBRANCH  20  22
ENDBRANCH  17  18
ENDBRANCH  16  17
ENDBRANCH   1  16
TORSDOF 9
ENDMDL
MODEL 8
REMARK VINA RESULT:      -7.4      2.983      7.040
REMARK  Name = 
REMARK  10 active torsions:
REMARK  status: ('A' for Active; 'I' for Inactive)
REMARK    1  A    between atoms: C_1  and  C_2
REMARK    2  A    between atoms: C_2  and  O_3
REMARK    3  A    between atoms: O_3  and  C_4
REMARK    4  A    between atoms: C_4  and  C_5
REMARK    5  A    between atoms: C_6  and  C_7
REMARK    6  A    between atoms: C_7  and  O_9
REMARK    7  A    between atoms: O_9  and  C_10
REMARK    8  A    between atoms: C_10  and  C_11
REMARK    9  A    between atoms: N_13  and  C_14
REMARK   10  A    between atoms: C_14  and  C_15
REMARK                            x       y       z     vdW  Elec       q    Type
REMARK                         _______ _______ _______ _____ _____    ______ ____
ROOT
ATOM      1  C   UNL     1       3.314   3.869  18.239  0.00  0.00    +0.000 C 
ATOM      2  O   UNL     1       2.762   3.121  17.440  0.00  0.00    +0.000 OA
ENDROOT
BRANCH   1   4
ATOM      3  C   UNL     1       2.279   5.663  19.747  0.00  0.00    +0.000 A 
ATOM      4  C   UNL     1       2.865   5.204  18.573  0.00  0.00    +0.000 A 
ATOM      5  O   UNL     1       2.954   6.235  17.671  0.00  0.00    +0.000 OA
ATOM      6  C   UNL     1       2.430   7.345  18.269  0.00  0.00    +0.000 A 
ATOM      7  C   UNL     1       2.324   8.614  17.697  0.00  0.00    +0.000 A 
ATOM      8  C   UNL     1       1.764   9.620  18.499  0.00  0.00    +0.000 A 
ATOM      9  C   UNL     1       1.338   9.355  19.803  0.00  0.00    +0.000 A 
ATOM     10  C   UNL     1       1.451   8.070  20.345  0.00  0.00    +0.000 A 
ATOM     11  C   UNL     1       2.005   7.045  19.556  0.00  0.00    +0.000 A 
BRANCH   3  12
ATOM     12  C   UNL     1       2.056   4.871  20.982  0.00  0.00    +0.000 C 
BRANCH  12  13
ATOM     13  O   UNL     1       0.967   3.982  20.769  0.00  0.00    +0.000 OA
BRANCH  13  15
ATOM     14  C   UNL     1       2.664   2.661  21.724  0.00  0.00    +0.000 C 
ATOM     15  C   UNL     1       1.210   2.696  21.318  0.00  0.00    +0.000 C 
ENDBRANCH  13  15
ENDBRANCH  12  13
ENDBRANCH   3  12
ENDBRANCH   1   4
BRANCH   1  16
ATOM     16  O   UNL     1       4.457   3.541  18.908  0.00  0.00    +0.000 OA
BRANCH  16  17
ATOM     17  C   UNL     1       5.334   4.651  19.102  0.00  0.00    +0.000 C 
BRANCH  17  18
ATOM     18  C   UNL     1       6.415   4.817  18.017  0.00  0.00    +0.000 C 
ATOM     19  O   UNL     1       7.551   4.370  18.144  0.00  0.00    +0.000 OA
ATOM     20  N   UNL     1       6.010   5.542  16.911  0.00  0.00    +0.000 N 
ATOM     21  H   UNL     1       5.044   5.829  16.825  0.00  0.00    +0.000 HD
BRANCH  20  22
ATOM     22  C   UNL     1       6.909   5.849  15.819  0.00  0.00    +0.000 C 
BRANCH  22  23
ATOM     23  C   UNL     1       6.686   4.989  14.598  0.00  0.00    +0.000 A 
ATOM     24  C   UNL     1       5.540   4.188  14.464  0.00  0.00    +0.000 A 
ATOM     25  C   UNL     1       5.337   3.421  13.311  0.00  0.00    +0.000 A 
ATOM     26  C   UNL     1       6.272   3.464  12.285  0.00  0.00    +0.000 A 
ATOM     27  F   UNL     1       6.088   2.722  11.184  0.00  0.00    +0.000 F 
ATOM     28  C   UNL     1       7.400   4.263  12.389  0.00  0.00    +0.000 A 
ATOM     29  C   UNL     1       7.621   5.005  13.552  0.00  0.00    +0.000 A 
ENDBRANCH  22  23
ENDBRANCH  20  22
ENDBRANCH  17  18
ENDBRANCH  16  17
ENDBRANCH   1  16
TORSDOF 9
ENDMDL
MODEL 9
REMARK VINA RESULT:      -7.3      4.315      6.961
REMARK  Name = 
REMARK  10 active torsions:
REMARK  status: ('A' for Active; 'I' for Inactive)
REMARK    1  A    between atoms: C_1  and  C_2
REMARK    2  A    between atoms: C_2  and  O_3
REMARK    3  A    between atoms: O_3  and  C_4
REMARK    4  A    between atoms: C_4  and  C_5
REMARK    5  A    between atoms: C_6  and  C_7
REMARK    6  A    between atoms: C_7  and  O_9
REMARK    7  A    between atoms: O_9  and  C_10
REMARK    8  A    between atoms: C_10  and  C_11
REMARK    9  A    between atoms: N_13  and  C_14
REMARK   10  A    between atoms: C_14  and  C_15
REMARK                            x       y       z     vdW  Elec       q    Type
REMARK                         _______ _______ _______ _____ _____    ______ ____
ROOT
ATOM      1  C   UNL     1       5.534   5.113  16.499  0.00  0.00    +0.000 C 
ATOM      2  O   UNL     1       5.198   5.092  15.320  0.00  0.00    +0.000 OA
ENDROOT
BRANCH   1   4
ATOM      3  C   UNL     1       3.830   5.737  18.306  0.00  0.00    +0.000 A 
ATOM      4  C   UNL     1       4.654   4.854  17.618  0.00  0.00    +0.000 A 
ATOM      5  O   UNL     1       4.560   3.606  18.180  0.00  0.00    +0.000 OA
ATOM      6  C   UNL     1       3.677   3.692  19.218  0.00  0.00    +0.000 A 
ATOM      7  C   UNL     1       3.295   2.648  20.061  0.00  0.00    +0.000 A 
ATOM      8  C   UNL     1       2.359   2.956  21.060  0.00  0.00    +0.000 A 
ATOM      9  C   UNL     1       1.842   4.247  21.195  0.00  0.00    +0.000 A 
ATOM     10  C   UNL     1       2.251   5.275  20.339  0.00  0.00    +0.000 A 
ATOM     11  C   UNL     1       3.193   4.988  19.333  0.00  0.00    +0.000 A 
BRANCH   3  12
ATOM     12  C   UNL     1       3.608   7.167  17.975  0.00  0.00    +0.000 C 
BRANCH  12  13
ATOM     13  O   UNL     1       2.226   7.371  17.718  0.00  0.00    +0.000 OA
BRANCH  13  15
ATOM     14  C   UNL     1       1.477   8.926  19.318  0.00  0.00    +0.000 C 
ATOM     15  C   UNL     1       1.849   8.732  17.868  0.00  0.00    +0.000 C 
ENDBRANCH  13  15
ENDBRANCH  12  13
ENDBRANCH   3  12
ENDBRANCH   1   4
BRANCH   1  16
ATOM     16  O   UNL     1       6.799   5.415  16.912  0.00  0.00    +0.000 OA
BRANCH  16  17
ATOM     17  C   UNL     1       7.131   6.795  16.745  0.00  0.00    +0.000 C 
BRANCH  17  18
ATOM     18  C   UNL     1       7.900   7.421  17.924  0.00  0.00    +0.000 C 
ATOM     19  O   UNL     1       8.260   6.766  18.898  0.00  0.00    +0.000 OA
ATOM     20  N   UNL     1       8.114   8.782  17.810  0.00  0.00    +0.000 N 
ATOM     21  H   UNL     1       7.858   9.261  16.957  0.00  0.00    +0.000 HD
BRANCH  20  22
ATOM     22  C   UNL     1       8.766   9.550  18.850  0.00  0.00    +0.000 C 
BRANCH  22  23
ATOM     23  C   UNL     1       9.361  10.846  18.355  0.00  0.00    +0.000 A 
ATOM     24  C   UNL     1      10.751  11.023  18.252  0.00  0.00    +0.000 A 
ATOM     25  C   UNL     1      11.282  12.223  17.763  0.00  0.00    +0.000 A 
ATOM     26  C   UNL     1      10.426  13.241  17.364  0.00  0.00    +0.000 A 
ATOM     27  F   UNL     1      10.930  14.395  16.907  0.00  0.00    +0.000 F 
ATOM     28  C   UNL     1       9.051  13.078  17.441  0.00  0.00    +0.000 A 
ATOM     29  C   UNL     1       8.518  11.895  17.957  0.00  0.00    +0.000 A 
ENDBRANCH  22  23
ENDBRANCH  20  22
ENDBRANCH  17  18
ENDBRANCH  16  17
ENDBRANCH   1  16
TORSDOF 9
ENDMDL
