MODEL 1
REMARK VINA RESULT:      -5.8      0.000      0.000
REMARK  Name = 
REMARK  7 active torsions:
REMARK  status: ('A' for Active; 'I' for Inactive)
REMARK    1  A    between atoms: C_1  and  C_2
REMARK    2  A    between atoms: C_2  and  C_3
REMARK    3  A    between atoms: C_3  and  C_4
REMARK    4  A    between atoms: C_4  and  O_5
REMARK    5  A    between atoms: C_8  and  O_9
REMARK    6  A    between atoms: C_10  and  O_11
REMARK    7  A    between atoms: C_12  and  O_13
REMARK                            x       y       z     vdW  Elec       q    Type
REMARK                         _______ _______ _______ _____ _____    ______ ____
ROOT
ATOM      1  C   UNL     1       4.113   5.123  18.462  0.00  0.00    +0.000 C 
ATOM      2  N   UNL     1       4.242   6.492  17.897  0.00  0.00    +0.000 NA
ATOM      3  C   UNL     1       5.175   6.616  16.763  0.00  0.00    +0.000 C 
ATOM      4  C   UNL     1       6.587   6.122  17.135  0.00  0.00    +0.000 C 
ATOM      5  C   UNL     1       6.524   4.665  17.629  0.00  0.00    +0.000 C 
ATOM      6  C   UNL     1       5.540   4.580  18.830  0.00  0.00    +0.000 C 
ATOM      7  H   UNL     1       4.575   7.150  18.643  0.00  0.00    +0.000 HD
ENDROOT
BRANCH   1   9
ATOM      8  C   UNL     1       1.907   3.936  17.626  0.00  0.00    +0.000 C 
ATOM      9  C   UNL     1       3.411   4.146  17.441  0.00  0.00    +0.000 C 
ENDBRANCH   1   9
BRANCH   4  10
ATOM     10  O   UNL     1       7.471   6.251  16.052  0.00  0.00    +0.000 OA
ATOM     11  H   UNL     1       7.394   5.433  15.496  0.00  0.00    +0.000 HD
ENDBRANCH   4  10
BRANCH   5  12
ATOM     12  O   UNL     1       7.800   4.195  17.983  0.00  0.00    +0.000 OA
ATOM     13  H   UNL     1       8.466   4.866  17.683  0.00  0.00    +0.000 HD
ENDBRANCH   5  12
BRANCH   6  14
ATOM     14  O   UNL     1       5.492   3.276  19.360  0.00  0.00    +0.000 OA
ATOM     15  H   UNL     1       5.937   2.661  18.721  0.00  0.00    +0.000 HD
ENDBRANCH   6  14
BRANCH   1  16
ATOM     16  C   UNL     1       3.258   5.239  19.756  0.00  0.00    +0.000 C 
BRANCH  16  17
ATOM     17  O   UNL     1       2.835   6.555  19.998  0.00  0.00    +0.000 OA
ATOM     18  H   UNL     1       2.962   7.057  19.152  0.00  0.00    +0.000 HD
ENDBRANCH  16  17
ENDBRANCH   1  16
TORSDOF 6
ENDMDL
MODEL 2
REMARK VINA RESULT:      -5.7      2.414      4.857
REMARK  Name = 
REMARK  7 active torsions:
REMARK  status: ('A' for Active; 'I' for Inactive)
REMARK    1  A    between atoms: C_1  and  C_2
REMARK    2  A    between atoms: C_2  and  C_3
REMARK    3  A    between atoms: C_3  and  C_4
REMARK    4  A    between atoms: C_4  and  O_5
REMARK    5  A    between atoms: C_8  and  O_9
REMARK    6  A    between atoms: C_10  and  O_11
REMARK    7  A    between atoms: C_12  and  O_13
REMARK                            x       y       z     vdW  Elec       q    Type
REMARK                         _______ _______ _______ _____ _____    ______ ____
ROOT
ATOM      1  C   UNL     1       3.704   4.434  18.752  0.00  0.00    +0.000 C 
ATOM      2  N   UNL     1       3.759   3.215  17.902  0.00  0.00    +0.000 NA
ATOM      3  C   UNL     1       2.448   2.663  17.515  0.00  0.00    +0.000 C 
ATOM      4  C   UNL     1       1.583   2.341  18.749  0.00  0.00    +0.000 C 
ATOM      5  C   UNL     1       1.405   3.603  19.614  0.00  0.00    +0.000 C 
ATOM      6  C   UNL     1       2.807   4.147  20.009  0.00  0.00    +0.000 C 
ATOM      7  H   UNL     1       4.275   2.456  18.409  0.00  0.00    +0.000 HD
ENDROOT
BRANCH   1   9
ATOM      8  C   UNL     1       4.150   6.701  17.473  0.00  0.00    +0.000 C 
ATOM      9  C   UNL     1       3.130   5.666  17.950  0.00  0.00    +0.000 C 
ENDBRANCH   1   9
BRANCH   4  10
ATOM     10  O   UNL     1       0.340   1.808  18.372  0.00  0.00    +0.000 OA
ATOM     11  H   UNL     1      -0.344   2.153  19.004  0.00  0.00    +0.000 HD
ENDBRANCH   4  10
BRANCH   5  12
ATOM     12  O   UNL     1       0.626   3.332  20.751  0.00  0.00    +0.000 OA
ATOM     13  H   UNL     1       1.171   2.782  21.371  0.00  0.00    +0.000 HD
ENDBRANCH   5  12
BRANCH   6  14
ATOM     14  O   UNL     1       2.701   5.269  20.853  0.00  0.00    +0.000 OA
ATOM     15  H   UNL     1       3.604   5.489  21.199  0.00  0.00    +0.000 HD
ENDBRANCH   6  14
BRANCH   1  16
ATOM     16  C   UNL     1       5.157   4.736  19.215  0.00  0.00    +0.000 C 
BRANCH  16  17
ATOM     17  O   UNL     1       6.086   3.830  18.680  0.00  0.00    +0.000 OA
ATOM     18  H   UNL     1       6.010   2.995  19.210  0.00  0.00    +0.000 HD
ENDBRANCH  16  17
ENDBRANCH   1  16
TORSDOF 6
ENDMDL
MODEL 3
REMARK VINA RESULT:      -5.5      2.332      2.734
REMARK  Name = 
REMARK  7 active torsions:
REMARK  status: ('A' for Active; 'I' for Inactive)
REMARK    1  A    between atoms: C_1  and  C_2
REMARK    2  A    between atoms: C_2  and  C_3
REMARK    3  A    between atoms: C_3  and  C_4
REMARK    4  A    between atoms: C_4  and  O_5
REMARK    5  A    between atoms: C_8  and  O_9
REMARK    6  A    between atoms: C_10  and  O_11
REMARK    7  A    between atoms: C_12  and  O_13
REMARK                            x       y       z     vdW  Elec       q    Type
REMARK                         _______ _______ _______ _____ _____    ______ ____
ROOT
ATOM      1  C   UNL     1       2.963   3.161  19.952  0.00  0.00    +0.000 C 
ATOM      2  N   UNL     1       2.529   4.578  20.079  0.00  0.00    +0.000 NA
ATOM      3  C   UNL     1       2.982   5.469  18.995  0.00  0.00    +0.000 C 
ATOM      4  C   UNL     1       4.517   5.455  18.855  0.00  0.00    +0.000 C 
ATOM      5  C   UNL     1       5.012   4.017  18.616  0.00  0.00    +0.000 C 
ATOM      6  C   UNL     1       4.524   3.113  19.783  0.00  0.00    +0.000 C 
ATOM      7  H   UNL     1       2.891   4.978  20.978  0.00  0.00    +0.000 HD
ENDROOT
BRANCH   1   9
ATOM      8  C   UNL     1       0.740   2.356  18.778  0.00  0.00    +0.000 C 
ATOM      9  C   UNL     1       2.266   2.455  18.727  0.00  0.00    +0.000 C 
ENDBRANCH   1   9
BRANCH   4  10
ATOM     10  O   UNL     1       4.940   6.313  17.828  0.00  0.00    +0.000 OA
ATOM     11  H   UNL     1       5.834   6.666  18.075  0.00  0.00    +0.000 HD
ENDBRANCH   4  10
BRANCH   5  12
ATOM     12  O   UNL     1       6.411   3.977  18.493  0.00  0.00    +0.000 OA
ATOM     13  H   UNL     1       6.629   3.640  17.586  0.00  0.00    +0.000 HD
ENDBRANCH   5  12
BRANCH   6  14
ATOM     14  O   UNL     1       5.003   1.796  19.644  0.00  0.00    +0.000 OA
ATOM     15  H   UNL     1       5.533   1.741  18.808  0.00  0.00    +0.000 HD
ENDBRANCH   6  14
BRANCH   1  16
ATOM     16  C   UNL     1       2.567   2.441  21.273  0.00  0.00    +0.000 C 
BRANCH  16  17
ATOM     17  O   UNL     1       2.193   3.344  22.280  0.00  0.00    +0.000 OA
ATOM     18  H   UNL     1       1.796   4.132  21.826  0.00  0.00    +0.000 HD
ENDBRANCH  16  17
ENDBRANCH   1  16
TORSDOF 6
ENDMDL
MODEL 4
REMARK VINA RESULT:      -5.5      2.188      2.905
REMARK  Name = 
REMARK  7 active torsions:
REMARK  status: ('A' for Active; 'I' for Inactive)
REMARK    1  A    between atoms: C_1  and  C_2
REMARK    2  A    between atoms: C_2  and  C_3
REMARK    3  A    between atoms: C_3  and  C_4
REMARK    4  A    between atoms: C_4  and  O_5
REMARK    5  A    between atoms: C_8  and  O_9
REMARK    6  A    between atoms: C_10  and  O_11
REMARK    7  A    between atoms: C_12  and  O_13
REMARK                            x       y       z     vdW  Elec       q    Type
REMARK                         _______ _______ _______ _____ _____    ______ ____
ROOT
ATOM      1  C   UNL     1       5.038   4.126  18.485  0.00  0.00    +0.000 C 
ATOM      2  N   UNL     1       6.513   4.166  18.670  0.00  0.00    +0.000 NA
ATOM      3  C   UNL     1       7.240   5.023  17.717  0.00  0.00    +0.000 C 
ATOM      4  C   UNL     1       6.956   4.613  16.258  0.00  0.00    +0.000 C 
ATOM      5  C   UNL     1       5.442   4.657  15.981  0.00  0.00    +0.000 C 
ATOM      6  C   UNL     1       4.715   3.734  16.999  0.00  0.00    +0.000 C 
ATOM      7  H   UNL     1       6.905   3.198  18.576  0.00  0.00    +0.000 HD
ENDROOT
BRANCH   1   9
ATOM      8  C   UNL     1       3.185   5.484  19.787  0.00  0.00    +0.000 C 
ATOM      9  C   UNL     1       4.380   5.517  18.833  0.00  0.00    +0.000 C 
ENDBRANCH   1   9
BRANCH   4  10
ATOM     10  O   UNL     1       7.659   5.428  15.356  0.00  0.00    +0.000 OA
ATOM     11  H   UNL     1       7.758   4.927  14.505  0.00  0.00    +0.000 HD
ENDBRANCH   4  10
BRANCH   5  12
ATOM     12  O   UNL     1       5.158   4.279  14.658  0.00  0.00    +0.000 OA
ATOM     13  H   UNL     1       4.750   5.058  14.199  0.00  0.00    +0.000 HD
ENDBRANCH   5  12
BRANCH   6  14
ATOM     14  O   UNL     1       3.329   3.692  16.751  0.00  0.00    +0.000 OA
ATOM     15  H   UNL     1       3.140   2.923  16.153  0.00  0.00    +0.000 HD
ENDBRANCH   6  14
BRANCH   1  16
ATOM     16  C   UNL     1       4.486   3.028  19.438  0.00  0.00    +0.000 C 
BRANCH  16  17
ATOM     17  O   UNL     1       4.318   1.795  18.789  0.00  0.00    +0.000 OA
ATOM     18  H   UNL     1       3.377   1.518  18.939  0.00  0.00    +0.000 HD
ENDBRANCH  16  17
ENDBRANCH   1  16
TORSDOF 6
ENDMDL
MODEL 5
REMARK VINA RESULT:      -5.5      2.248      4.742
REMARK  Name = 
REMARK  7 active torsions:
REMARK  status: ('A' for Active; 'I' for Inactive)
REMARK    1  A    between atoms: C_1  and  C_2
REMARK    2  A    between atoms: C_2  and  C_3
REMARK    3  A    between atoms: C_3  and  C_4
REMARK    4  A    between atoms: C_4  and  O_5
REMARK    5  A    between atoms: C_8  and  O_9
REMARK    6  A    between atoms: C_10  and  O_11
REMARK    7  A    between atoms: C_12  and  O_13
REMARK                            x       y       z     vdW  Elec       q    Type
REMARK                         _______ _______ _______ _____ _____    ______ ____
ROOT
ATOM      1  C   UNL     1       4.066   4.054  17.844  0.00  0.00    +0.000 C 
ATOM      2  N   UNL     1       3.118   5.190  17.991  0.00  0.00    +0.000 NA
ATOM      3  C   UNL     1       2.206   5.098  19.144  0.00  0.00    +0.000 C 
ATOM      4  C   UNL     1       1.382   3.796  19.110  0.00  0.00    +0.000 C 
ATOM      5  C   UNL     1       2.321   2.577  19.064  0.00  0.00    +0.000 C 
ATOM      6  C   UNL     1       3.258   2.707  17.830  0.00  0.00    +0.000 C 
ATOM      7  H   UNL     1       2.522   5.265  17.131  0.00  0.00    +0.000 HD
ENDROOT
BRANCH   1   9
ATOM      8  C   UNL     1       5.975   5.297  19.179  0.00  0.00    +0.000 C 
ATOM      9  C   UNL     1       5.125   4.036  19.012  0.00  0.00    +0.000 C 
ENDBRANCH   1   9
BRANCH   4  10
ATOM     10  O   UNL     1       0.508   3.719  20.207  0.00  0.00    +0.000 OA
ATOM     11  H   UNL     1       0.521   4.598  20.669  0.00  0.00    +0.000 HD
ENDBRANCH   4  10
BRANCH   5  12
ATOM     12  O   UNL     1       1.591   1.377  19.024  0.00  0.00    +0.000 OA
ATOM     13  H   UNL     1       1.161   1.252  19.908  0.00  0.00    +0.000 HD
ENDBRANCH   5  12
BRANCH   6  14
ATOM     14  O   UNL     1       4.099   1.584  17.707  0.00  0.00    +0.000 OA
ATOM     15  H   UNL     1       4.664   1.701  16.899  0.00  0.00    +0.000 HD
ENDBRANCH   6  14
BRANCH   1  16
ATOM     16  C   UNL     1       4.789   4.234  16.478  0.00  0.00    +0.000 C 
BRANCH  16  17
ATOM     17  O   UNL     1       5.810   3.290  16.289  0.00  0.00    +0.000 OA
ATOM     18  H   UNL     1       5.542   2.727  15.517  0.00  0.00    +0.000 HD
ENDBRANCH  16  17
ENDBRANCH   1  16
TORSDOF 6
ENDMDL
MODEL 6
REMARK VINA RESULT:      -5.4      1.470      4.128
REMARK  Name = 
REMARK  7 active torsions:
REMARK  status: ('A' for Active; 'I' for Inactive)
REMARK    1  A    between atoms: C_1  and  C_2
REMARK    2  A    between atoms: C_2  and  C_3
REMARK    3  A    between atoms: C_3  and  C_4
REMARK    4  A    between atoms: C_4  and  O_5
REMARK    5  A    between atoms: C_8  and  O_9
REMARK    6  A    between atoms: C_10  and  O_11
REMARK    7  A    between atoms: C_12  and  O_13
REMARK                            x       y       z     vdW  Elec       q    Type
REMARK                         _______ _______ _______ _____ _____    ______ ____
ROOT
ATOM      1  C   UNL     1       5.992   5.503  17.335  0.00  0.00    +0.000 C 
ATOM      2  N   UNL     1       5.076   6.392  16.573  0.00  0.00    +0.000 NA
ATOM      3  C   UNL     1       4.113   7.149  17.393  0.00  0.00    +0.000 C 
ATOM      4  C   UNL     1       3.250   6.211  18.260  0.00  0.00    +0.000 C 
ATOM      5  C   UNL     1       4.152   5.336  19.151  0.00  0.00    +0.000 C 
ATOM      6  C   UNL     1       5.143   4.549  18.249  0.00  0.00    +0.000 C 
ATOM      7  H   UNL     1       4.519   5.822  15.891  0.00  0.00    +0.000 HD
ENDROOT
BRANCH   1   9
ATOM      8  C   UNL     1       7.656   7.543  17.539  0.00  0.00    +0.000 C 
ATOM      9  C   UNL     1       7.001   6.337  18.215  0.00  0.00    +0.000 C 
ENDBRANCH   1   9
BRANCH   4  10
ATOM     10  O   UNL     1       2.330   6.939  19.032  0.00  0.00    +0.000 OA
ATOM     11  H   UNL     1       1.422   6.589  18.833  0.00  0.00    +0.000 HD
ENDBRANCH   4  10
BRANCH   5  12
ATOM     12  O   UNL     1       3.386   4.467  19.946  0.00  0.00    +0.000 OA
ATOM     13  H   UNL     1       2.470   4.840  20.012  0.00  0.00    +0.000 HD
ENDBRANCH   5  12
BRANCH   6  14
ATOM     14  O   UNL     1       5.952   3.685  19.012  0.00  0.00    +0.000 OA
ATOM     15  H   UNL     1       5.822   2.759  18.682  0.00  0.00    +0.000 HD
ENDBRANCH   6  14
BRANCH   1  16
ATOM     16  C   UNL     1       6.777   4.653  16.295  0.00  0.00    +0.000 C 
BRANCH  16  17
ATOM     17  O   UNL     1       7.957   4.115  16.829  0.00  0.00    +0.000 OA
ATOM     18  H   UNL     1       8.161   3.296  16.308  0.00  0.00    +0.000 HD
ENDBRANCH  16  17
ENDBRANCH   1  16
TORSDOF 6
ENDMDL
MODEL 7
REMARK VINA RESULT:      -5.4      1.895      4.372
REMARK  Name = 
REMARK  7 active torsions:
REMARK  status: ('A' for Active; 'I' for Inactive)
REMARK    1  A    between atoms: C_1  and  C_2
REMARK    2  A    between atoms: C_2  and  C_3
REMARK    3  A    between atoms: C_3  and  C_4
REMARK    4  A    between atoms: C_4  and  O_5
REMARK    5  A    between atoms: C_8  and  O_9
REMARK    6  A    between atoms: C_10  and  O_11
REMARK    7  A    between atoms: C_12  and  O_13
REMARK                            x       y       z     vdW  Elec       q    Type
REMARK                         _______ _______ _______ _____ _____    ______ ____
ROOT
ATOM      1  C   UNL     1       5.823   4.665  17.460  0.00  0.00    +0.000 C 
ATOM      2  N   UNL     1       5.820   3.807  18.675  0.00  0.00    +0.000 NA
ATOM      3  C   UNL     1       4.487   3.518  19.232  0.00  0.00    +0.000 C 
ATOM      4  C   UNL     1       3.719   4.813  19.564  0.00  0.00    +0.000 C 
ATOM      5  C   UNL     1       3.601   5.694  18.307  0.00  0.00    +0.000 C 
ATOM      6  C   UNL     1       5.026   5.985  17.758  0.00  0.00    +0.000 C 
ATOM      7  H   UNL     1       6.377   4.270  19.434  0.00  0.00    +0.000 HD
ENDROOT
BRANCH   1   9
ATOM      8  C   UNL     1       5.999   3.919  14.933  0.00  0.00    +0.000 C 
ATOM      9  C   UNL     1       5.185   3.915  16.228  0.00  0.00    +0.000 C 
ENDBRANCH   1   9
BRANCH   4  10
ATOM     10  O   UNL     1       2.454   4.528  20.103  0.00  0.00    +0.000 OA
ATOM     11  H   UNL     1       1.773   4.749  19.415  0.00  0.00    +0.000 HD
ENDBRANCH   4  10
BRANCH   5  12
ATOM     12  O   UNL     1       2.912   6.886  18.588  0.00  0.00    +0.000 OA
ATOM     13  H   UNL     1       2.196   6.677  19.242  0.00  0.00    +0.000 HD
ENDBRANCH   5  12
BRANCH   6  14
ATOM     14  O   UNL     1       4.978   6.840  16.640  0.00  0.00    +0.000 OA
ATOM     15  H   UNL     1       5.486   6.418  15.900  0.00  0.00    +0.000 HD
ENDBRANCH   6  14
BRANCH   1  16
ATOM     16  C   UNL     1       7.307   5.018  17.153  0.00  0.00    +0.000 C 
BRANCH  16  17
ATOM     17  O   UNL     1       8.199   4.069  17.674  0.00  0.00    +0.000 OA
ATOM     18  H   UNL     1       8.830   3.837  16.945  0.00  0.00    +0.000 HD
ENDBRANCH  16  17
ENDBRANCH   1  16
TORSDOF 6
ENDMDL
MODEL 8
REMARK VINA RESULT:      -5.3      2.082      4.506
REMARK  Name = 
REMARK  7 active torsions:
REMARK  status: ('A' for Active; 'I' for Inactive)
REMARK    1  A    between atoms: C_1  and  C_2
REMARK    2  A    between atoms: C_2  and  C_3
REMARK    3  A    between atoms: C_3  and  C_4
REMARK    4  A    between atoms: C_4  and  O_5
REMARK    5  A    between atoms: C_8  and  O_9
REMARK    6  A    between atoms: C_10  and  O_11
REMARK    7  A    between atoms: C_12  and  O_13
REMARK                            x       y       z     vdW  Elec       q    Type
REMARK                         _______ _______ _______ _____ _____    ______ ____
ROOT
ATOM      1  C   UNL     1       3.904   4.175  17.878  0.00  0.00    +0.000 C 
ATOM      2  N   UNL     1       2.505   4.077  17.385  0.00  0.00    +0.000 NA
ATOM      3  C   UNL     1       1.466   4.215  18.422  0.00  0.00    +0.000 C 
ATOM      4  C   UNL     1       1.646   3.175  19.545  0.00  0.00    +0.000 C 
ATOM      5  C   UNL     1       3.050   3.304  20.165  0.00  0.00    +0.000 C 
ATOM      6  C   UNL     1       4.115   3.142  19.043  0.00  0.00    +0.000 C 
ATOM      7  H   UNL     1       2.359   3.147  16.924  0.00  0.00    +0.000 HD
ENDROOT
BRANCH   1   9
ATOM      8  C   UNL     1       4.184   6.744  17.333  0.00  0.00    +0.000 C 
ATOM      9  C   UNL     1       4.233   5.633  18.384  0.00  0.00    +0.000 C 
ENDBRANCH   1   9
BRANCH   4  10
ATOM     10  O   UNL     1       0.648   3.307  20.523  0.00  0.00    +0.000 OA
ATOM     11  H   UNL     1       0.461   4.274  20.640  0.00  0.00    +0.000 HD
ENDBRANCH   4  10
BRANCH   5  12
ATOM     12  O   UNL     1       3.241   2.359  21.187  0.00  0.00    +0.000 OA
ATOM     13  H   UNL     1       2.370   2.219  21.639  0.00  0.00    +0.000 HD
ENDBRANCH   5  12
BRANCH   6  14
ATOM     14  O   UNL     1       5.421   3.192  19.568  0.00  0.00    +0.000 OA
ATOM     15  H   UNL     1       6.050   2.863  18.875  0.00  0.00    +0.000 HD
ENDBRANCH   6  14
BRANCH   1  16
ATOM     16  C   UNL     1       4.836   3.805  16.689  0.00  0.00    +0.000 C 
BRANCH  16  17
ATOM     17  O   UNL     1       6.193   3.850  17.043  0.00  0.00    +0.000 OA
ATOM     18  H   UNL     1       6.666   4.319  16.308  0.00  0.00    +0.000 HD
ENDBRANCH  16  17
ENDBRANCH   1  16
TORSDOF 6
ENDMDL
MODEL 9
REMARK VINA RESULT:      -5.3      1.752      3.710
REMARK  Name = 
REMARK  7 active torsions:
REMARK  status: ('A' for Active; 'I' for Inactive)
REMARK    1  A    between atoms: C_1  and  C_2
REMARK    2  A    between atoms: C_2  and  C_3
REMARK    3  A    between atoms: C_3  and  C_4
REMARK    4  A    between atoms: C_4  and  O_5
REMARK    5  A    between atoms: C_8  and  O_9
REMARK    6  A    between atoms: C_10  and  O_11
REMARK    7  A    between atoms: C_12  and  O_13
REMARK                            x       y       z     vdW  Elec       q    Type
REMARK                         _______ _______ _______ _____ _____    ______ ____
ROOT
ATOM      1  C   UNL     1       4.486   5.262  17.896  0.00  0.00    +0.000 C 
ATOM      2  N   UNL     1       3.722   4.553  16.835  0.00  0.00    +0.000 NA
ATOM      3  C   UNL     1       2.865   3.453  17.310  0.00  0.00    +0.000 C 
ATOM      4  C   UNL     1       3.677   2.401  18.092  0.00  0.00    +0.000 C 
ATOM      5  C   UNL     1       4.408   3.067  19.272  0.00  0.00    +0.000 C 
ATOM      6  C   UNL     1       5.307   4.213  18.729  0.00  0.00    +0.000 C 
ATOM      7  H   UNL     1       4.389   4.145  16.136  0.00  0.00    +0.000 HD
ENDROOT
BRANCH   1   9
ATOM      8  C   UNL     1       2.748   7.225  18.209  0.00  0.00    +0.000 C 
ATOM      9  C   UNL     1       3.525   6.073  18.848  0.00  0.00    +0.000 C 
ENDBRANCH   1   9
BRANCH   4  10
ATOM     10  O   UNL     1       2.855   1.351  18.534  0.00  0.00    +0.000 OA
ATOM     11  H   UNL     1       2.797   0.682  17.803  0.00  0.00    +0.000 HD
ENDBRANCH   4  10
BRANCH   5  12
ATOM     12  O   UNL     1       5.162   2.128  19.996  0.00  0.00    +0.000 OA
ATOM     13  H   UNL     1       5.993   1.947  19.486  0.00  0.00    +0.000 HD
ENDBRANCH   5  12
BRANCH   6  14
ATOM     14  O   UNL     1       6.046   4.818  19.764  0.00  0.00    +0.000 OA
ATOM     15  H   UNL     1       6.886   5.179  19.381  0.00  0.00    +0.000 HD
ENDBRANCH   6  14
BRANCH   1  16
ATOM     16  C   UNL     1       5.468   6.234  17.183  0.00  0.00    +0.000 C 
BRANCH  16  17
ATOM     17  O   UNL     1       6.751   5.685  17.040  0.00  0.00    +0.000 OA
ATOM     18  H   UNL     1       6.630   4.727  16.809  0.00  0.00    +0.000 HD
ENDBRANCH  16  17
ENDBRANCH   1  16
TORSDOF 6
ENDMDL
