MODEL 1
REMARK VINA RESULT:      -8.1      0.000      0.000
REMARK  Name = 
REMARK  2 active torsions:
REMARK  status: ('A' for Active; 'I' for Inactive)
REMARK    1  A    between atoms: C_11  and  O_12
REMARK    2  A    between atoms: O_12  and  C_13
REMARK                            x       y       z     vdW  Elec       q    Type
REMARK                         _______ _______ _______ _____ _____    ______ ____
ROOT
ATOM      1  O   UNL     1       0.123   9.270  23.226  0.00  0.00    +0.000 OA
ATOM      2  C   UNL     1      -0.433  10.101  22.520  0.00  0.00    +0.000 A 
ATOM      3  C   UNL     1      -1.372  10.987  23.255  0.00  0.00    +0.000 A 
ATOM      4  N   UNL     1      -2.041  11.936  22.697  0.00  0.00    +0.000 NA
ATOM      5  N   UNL     1      -1.865  12.127  21.340  0.00  0.00    +0.000 NA
ATOM      6  C   UNL     1      -1.070  11.369  20.648  0.00  0.00    +0.000 A 
ATOM      7  N   UNL     1      -0.324  10.331  21.156  0.00  0.00    +0.000 N 
ATOM      8  C   UNL     1       0.519   9.532  20.312  0.00  0.00    +0.000 A 
ATOM      9  C   UNL     1       1.327   8.481  20.794  0.00  0.00    +0.000 A 
ATOM     10  C   UNL     1       2.183   7.746  19.957  0.00  0.00    +0.000 A 
ATOM     11  C   UNL     1       2.237   8.024  18.601  0.00  0.00    +0.000 A 
ATOM     12  C   UNL     1       1.367   8.980  18.087  0.00  0.00    +0.000 A 
ATOM     13  C   UNL     1       0.567   9.774  18.933  0.00  0.00    +0.000 A 
ATOM     14  C   UNL     1      -0.146  10.910  18.280  0.00  0.00    +0.000 C 
ATOM     15  C   UNL     1      -1.013  11.734  19.186  0.00  0.00    +0.000 C 
ENDROOT
BRANCH  11  16
ATOM     16  O   UNL     1       3.157   7.325  17.853  0.00  0.00    +0.000 OA
BRANCH  16  17
ATOM     17  C   UNL     1       3.157   5.944  17.905  0.00  0.00    +0.000 A 
ATOM     18  C   UNL     1       1.975   5.187  17.882  0.00  0.00    +0.000 A 
ATOM     19  C   UNL     1       2.019   3.804  18.067  0.00  0.00    +0.000 A 
ATOM     20  C   UNL     1       3.249   3.164  18.190  0.00  0.00    +0.000 A 
ATOM     21 CL   UNL     1       3.297   1.465  18.451  0.00  0.00    +0.000 Cl
ATOM     22  C   UNL     1       4.436   3.888  18.104  0.00  0.00    +0.000 A 
ATOM     23  C   UNL     1       4.389   5.279  17.962  0.00  0.00    +0.000 A 
ATOM     24 CL   UNL     1       5.882   6.141  17.871  0.00  0.00    +0.000 Cl
ENDBRANCH  16  17
ENDBRANCH  11  16
TORSDOF 2
ENDMDL
MODEL 2
REMARK VINA RESULT:      -8.1      1.816      2.956
REMARK  Name = 
REMARK  2 active torsions:
REMARK  status: ('A' for Active; 'I' for Inactive)
REMARK    1  A    between atoms: C_11  and  O_12
REMARK    2  A    between atoms: O_12  and  C_13
REMARK                            x       y       z     vdW  Elec       q    Type
REMARK                         _______ _______ _______ _____ _____    ______ ____
ROOT
ATOM      1  O   UNL     1      -0.268   8.812  22.382  0.00  0.00    +0.000 OA
ATOM      2  C   UNL     1      -0.064   9.567  21.439  0.00  0.00    +0.000 A 
ATOM      3  C   UNL     1      -0.757  10.876  21.553  0.00  0.00    +0.000 A 
ATOM      4  N   UNL     1      -0.658  11.814  20.676  0.00  0.00    +0.000 NA
ATOM      5  N   UNL     1       0.141  11.574  19.574  0.00  0.00    +0.000 NA
ATOM      6  C   UNL     1       0.755  10.440  19.418  0.00  0.00    +0.000 A 
ATOM      7  N   UNL     1       0.701   9.383  20.296  0.00  0.00    +0.000 N 
ATOM      8  C   UNL     1       1.401   8.157  20.036  0.00  0.00    +0.000 A 
ATOM      9  C   UNL     1       1.402   7.060  20.923  0.00  0.00    +0.000 A 
ATOM     10  C   UNL     1       2.136   5.889  20.669  0.00  0.00    +0.000 A 
ATOM     11  C   UNL     1       2.873   5.770  19.504  0.00  0.00    +0.000 A 
ATOM     12  C   UNL     1       2.797   6.792  18.564  0.00  0.00    +0.000 A 
ATOM     13  C   UNL     1       2.128   8.000  18.848  0.00  0.00    +0.000 A 
ATOM     14  C   UNL     1       2.312   9.097  17.855  0.00  0.00    +0.000 C 
ATOM     15  C   UNL     1       1.577  10.371  18.155  0.00  0.00    +0.000 C 
ENDROOT
BRANCH  11  16
ATOM     16  O   UNL     1       3.636   4.632  19.357  0.00  0.00    +0.000 OA
BRANCH  16  17
ATOM     17  C   UNL     1       4.540   4.558  18.314  0.00  0.00    +0.000 A 
ATOM     18  C   UNL     1       5.857   5.030  18.422  0.00  0.00    +0.000 A 
ATOM     19  C   UNL     1       6.693   5.051  17.305  0.00  0.00    +0.000 A 
ATOM     20  C   UNL     1       6.244   4.521  16.098  0.00  0.00    +0.000 A 
ATOM     21 CL   UNL     1       7.265   4.579  14.716  0.00  0.00    +0.000 Cl
ATOM     22  C   UNL     1       4.978   3.947  16.004  0.00  0.00    +0.000 A 
ATOM     23  C   UNL     1       4.127   3.966  17.113  0.00  0.00    +0.000 A 
ATOM     24 CL   UNL     1       2.561   3.256  16.953  0.00  0.00    +0.000 Cl
ENDBRANCH  16  17
ENDBRANCH  11  16
TORSDOF 2
ENDMDL
MODEL 3
REMARK VINA RESULT:      -8.0      4.606      7.490
REMARK  Name = 
REMARK  2 active torsions:
REMARK  status: ('A' for Active; 'I' for Inactive)
REMARK    1  A    between atoms: C_11  and  O_12
REMARK    2  A    between atoms: O_12  and  C_13
REMARK                            x       y       z     vdW  Elec       q    Type
REMARK                         _______ _______ _______ _____ _____    ______ ____
ROOT
ATOM      1  O   UNL     1       2.027   4.357  21.503  0.00  0.00    +0.000 OA
ATOM      2  C   UNL     1       2.697   4.205  20.490  0.00  0.00    +0.000 A 
ATOM      3  C   UNL     1       3.300   2.853  20.361  0.00  0.00    +0.000 A 
ATOM      4  N   UNL     1       4.023   2.487  19.360  0.00  0.00    +0.000 NA
ATOM      5  N   UNL     1       4.243   3.415  18.360  0.00  0.00    +0.000 NA
ATOM      6  C   UNL     1       3.754   4.616  18.432  0.00  0.00    +0.000 A 
ATOM      7  N   UNL     1       2.979   5.095  19.463  0.00  0.00    +0.000 N 
ATOM      8  C   UNL     1       2.492   6.445  19.469  0.00  0.00    +0.000 A 
ATOM      9  C   UNL     1       1.668   6.969  20.486  0.00  0.00    +0.000 A 
ATOM     10  C   UNL     1       1.162   8.279  20.445  0.00  0.00    +0.000 A 
ATOM     11  C   UNL     1       1.489   9.117  19.392  0.00  0.00    +0.000 A 
ATOM     12  C   UNL     1       2.391   8.659  18.437  0.00  0.00    +0.000 A 
ATOM     13  C   UNL     1       2.836   7.322  18.431  0.00  0.00    +0.000 A 
ATOM     14  C   UNL     1       3.614   6.898  17.231  0.00  0.00    +0.000 C 
ATOM     15  C   UNL     1       4.103   5.479  17.246  0.00  0.00    +0.000 C 
ENDROOT
BRANCH  11  16
ATOM     16  O   UNL     1       0.894  10.358  19.369  0.00  0.00    +0.000 OA
BRANCH  16  17
ATOM     17  C   UNL     1      -0.366  10.491  18.818  0.00  0.00    +0.000 A 
ATOM     18  C   UNL     1      -0.764   9.792  17.667  0.00  0.00    +0.000 A 
ATOM     19  C   UNL     1      -2.000  10.055  17.074  0.00  0.00    +0.000 A 
ATOM     20  C   UNL     1      -2.876  10.953  17.677  0.00  0.00    +0.000 A 
ATOM     21 CL   UNL     1      -4.384  11.299  16.924  0.00  0.00    +0.000 Cl
ATOM     22  C   UNL     1      -2.541  11.571  18.879  0.00  0.00    +0.000 A 
ATOM     23  C   UNL     1      -1.285  11.339  19.449  0.00  0.00    +0.000 A 
ATOM     24 CL   UNL     1      -0.903  12.134  20.934  0.00  0.00    +0.000 Cl
ENDBRANCH  16  17
ENDBRANCH  11  16
TORSDOF 2
ENDMDL
MODEL 4
REMARK VINA RESULT:      -7.9      1.284      2.224
REMARK  Name = 
REMARK  2 active torsions:
REMARK  status: ('A' for Active; 'I' for Inactive)
REMARK    1  A    between atoms: C_11  and  O_12
REMARK    2  A    between atoms: O_12  and  C_13
REMARK                            x       y       z     vdW  Elec       q    Type
REMARK                         _______ _______ _______ _____ _____    ______ ____
ROOT
ATOM      1  O   UNL     1      -1.163  12.100  18.881  0.00  0.00    +0.000 OA
ATOM      2  C   UNL     1      -1.154  11.727  20.047  0.00  0.00    +0.000 A 
ATOM      3  C   UNL     1      -2.029  12.525  20.944  0.00  0.00    +0.000 A 
ATOM      4  N   UNL     1      -2.172  12.283  22.200  0.00  0.00    +0.000 NA
ATOM      5  N   UNL     1      -1.466  11.219  22.729  0.00  0.00    +0.000 NA
ATOM      6  C   UNL     1      -0.674  10.500  21.992  0.00  0.00    +0.000 A 
ATOM      7  N   UNL     1      -0.455  10.690  20.648  0.00  0.00    +0.000 N 
ATOM      8  C   UNL     1       0.453   9.855  19.913  0.00  0.00    +0.000 A 
ATOM      9  C   UNL     1       0.684   9.991  18.528  0.00  0.00    +0.000 A 
ATOM     10  C   UNL     1       1.539   9.129  17.821  0.00  0.00    +0.000 A 
ATOM     11  C   UNL     1       2.212   8.118  18.485  0.00  0.00    +0.000 A 
ATOM     12  C   UNL     1       2.087   8.037  19.868  0.00  0.00    +0.000 A 
ATOM     13  C   UNL     1       1.170   8.846  20.569  0.00  0.00    +0.000 A 
ATOM     14  C   UNL     1       0.967   8.506  22.007  0.00  0.00    +0.000 C 
ATOM     15  C   UNL     1       0.006   9.388  22.750  0.00  0.00    +0.000 C 
ENDROOT
BRANCH  11  16
ATOM     16  O   UNL     1       2.968   7.258  17.720  0.00  0.00    +0.000 OA
BRANCH  16  17
ATOM     17  C   UNL     1       2.846   5.896  17.919  0.00  0.00    +0.000 A 
ATOM     18  C   UNL     1       1.615   5.227  17.830  0.00  0.00    +0.000 A 
ATOM     19  C   UNL     1       1.521   3.875  18.165  0.00  0.00    +0.000 A 
ATOM     20  C   UNL     1       2.670   3.168  18.506  0.00  0.00    +0.000 A 
ATOM     21 CL   UNL     1       2.545   1.511  18.950  0.00  0.00    +0.000 Cl
ATOM     22  C   UNL     1       3.916   3.792  18.491  0.00  0.00    +0.000 A 
ATOM     23  C   UNL     1       4.003   5.156  18.197  0.00  0.00    +0.000 A 
ATOM     24 CL   UNL     1       5.564   5.894  18.200  0.00  0.00    +0.000 Cl
ENDBRANCH  16  17
ENDBRANCH  11  16
TORSDOF 2
ENDMDL
MODEL 5
REMARK VINA RESULT:      -7.9      1.874      2.802
REMARK  Name = 
REMARK  2 active torsions:
REMARK  status: ('A' for Active; 'I' for Inactive)
REMARK    1  A    between atoms: C_11  and  O_12
REMARK    2  A    between atoms: O_12  and  C_13
REMARK                            x       y       z     vdW  Elec       q    Type
REMARK                         _______ _______ _______ _____ _____    ______ ____
ROOT
ATOM      1  O   UNL     1      -1.186  11.940  18.462  0.00  0.00    +0.000 OA
ATOM      2  C   UNL     1      -1.481  11.988  19.649  0.00  0.00    +0.000 A 
ATOM      3  C   UNL     1      -2.483  13.033  19.981  0.00  0.00    +0.000 A 
ATOM      4  N   UNL     1      -2.938  13.233  21.169  0.00  0.00    +0.000 NA
ATOM      5  N   UNL     1      -2.456  12.424  22.180  0.00  0.00    +0.000 NA
ATOM      6  C   UNL     1      -1.566  11.507  21.947  0.00  0.00    +0.000 A 
ATOM      7  N   UNL     1      -1.021  11.228  20.715  0.00  0.00    +0.000 N 
ATOM      8  C   UNL     1      -0.027  10.206  20.551  0.00  0.00    +0.000 A 
ATOM      9  C   UNL     1       0.535   9.862  19.304  0.00  0.00    +0.000 A 
ATOM     10  C   UNL     1       1.469   8.823  19.161  0.00  0.00    +0.000 A 
ATOM     11  C   UNL     1       1.890   8.109  20.270  0.00  0.00    +0.000 A 
ATOM     12  C   UNL     1       1.434   8.504  21.523  0.00  0.00    +0.000 A 
ATOM     13  C   UNL     1       0.438   9.492  21.663  0.00  0.00    +0.000 A 
ATOM     14  C   UNL     1      -0.124   9.661  23.034  0.00  0.00    +0.000 C 
ATOM     15  C   UNL     1      -1.167  10.731  23.176  0.00  0.00    +0.000 C 
ENDROOT
BRANCH  11  16
ATOM     16  O   UNL     1       2.741   7.049  20.049  0.00  0.00    +0.000 OA
BRANCH  16  17
ATOM     17  C   UNL     1       2.212   5.823  19.695  0.00  0.00    +0.000 A 
ATOM     18  C   UNL     1       1.309   5.126  20.512  0.00  0.00    +0.000 A 
ATOM     19  C   UNL     1       0.902   3.834  20.172  0.00  0.00    +0.000 A 
ATOM     20  C   UNL     1       1.330   3.270  18.974  0.00  0.00    +0.000 A 
ATOM     21 CL   UNL     1       0.853   1.666  18.576  0.00  0.00    +0.000 Cl
ATOM     22  C   UNL     1       2.138   3.993  18.099  0.00  0.00    +0.000 A 
ATOM     23  C   UNL     1       2.579   5.270  18.461  0.00  0.00    +0.000 A 
ATOM     24 CL   UNL     1       3.590   6.128  17.355  0.00  0.00    +0.000 Cl
ENDBRANCH  16  17
ENDBRANCH  11  16
TORSDOF 2
ENDMDL
MODEL 6
REMARK VINA RESULT:      -7.8      1.974      3.093
REMARK  Name = 
REMARK  2 active torsions:
REMARK  status: ('A' for Active; 'I' for Inactive)
REMARK    1  A    between atoms: C_11  and  O_12
REMARK    2  A    between atoms: O_12  and  C_13
REMARK                            x       y       z     vdW  Elec       q    Type
REMARK                         _______ _______ _______ _____ _____    ______ ____
ROOT
ATOM      1  O   UNL     1       0.686  12.606  18.797  0.00  0.00    +0.000 OA
ATOM      2  C   UNL     1       0.411  12.298  19.949  0.00  0.00    +0.000 A 
ATOM      3  C   UNL     1      -0.120  13.420  20.764  0.00  0.00    +0.000 A 
ATOM      4  N   UNL     1      -0.484  13.299  21.994  0.00  0.00    +0.000 NA
ATOM      5  N   UNL     1      -0.367  12.050  22.572  0.00  0.00    +0.000 NA
ATOM      6  C   UNL     1       0.107  11.039  21.909  0.00  0.00    +0.000 A 
ATOM      7  N   UNL     1       0.526  11.077  20.600  0.00  0.00    +0.000 N 
ATOM      8  C   UNL     1       1.054   9.912  19.948  0.00  0.00    +0.000 A 
ATOM      9  C   UNL     1       1.463   9.896  18.598  0.00  0.00    +0.000 A 
ATOM     10  C   UNL     1       1.930   8.730  17.968  0.00  0.00    +0.000 A 
ATOM     11  C   UNL     1       2.025   7.546  18.680  0.00  0.00    +0.000 A 
ATOM     12  C   UNL     1       1.734   7.566  20.040  0.00  0.00    +0.000 A 
ATOM     13  C   UNL     1       1.191   8.711  20.656  0.00  0.00    +0.000 A 
ATOM     14  C   UNL     1       0.711   8.532  22.057  0.00  0.00    +0.000 C 
ATOM     15  C   UNL     1       0.156   9.763  22.712  0.00  0.00    +0.000 C 
ENDROOT
BRANCH  11  16
ATOM     16  O   UNL     1       2.410   6.423  17.981  0.00  0.00    +0.000 OA
BRANCH  16  17
ATOM     17  C   UNL     1       3.741   6.052  17.982  0.00  0.00    +0.000 A 
ATOM     18  C   UNL     1       4.696   6.668  17.159  0.00  0.00    +0.000 A 
ATOM     19  C   UNL     1       6.001   6.173  17.101  0.00  0.00    +0.000 A 
ATOM     20  C   UNL     1       6.375   5.118  17.929  0.00  0.00    +0.000 A 
ATOM     21 CL   UNL     1       7.973   4.491  17.830  0.00  0.00    +0.000 Cl
ATOM     22  C   UNL     1       5.467   4.569  18.832  0.00  0.00    +0.000 A 
ATOM     23  C   UNL     1       4.150   5.037  18.858  0.00  0.00    +0.000 A 
ATOM     24 CL   UNL     1       3.052   4.323  19.983  0.00  0.00    +0.000 Cl
ENDBRANCH  16  17
ENDBRANCH  11  16
TORSDOF 2
ENDMDL
MODEL 7
REMARK VINA RESULT:      -7.8      1.827      2.694
REMARK  Name = 
REMARK  2 active torsions:
REMARK  status: ('A' for Active; 'I' for Inactive)
REMARK    1  A    between atoms: C_11  and  O_12
REMARK    2  A    between atoms: O_12  and  C_13
REMARK                            x       y       z     vdW  Elec       q    Type
REMARK                         _______ _______ _______ _____ _____    ______ ____
ROOT
ATOM      1  O   UNL     1      -0.012  10.321  22.570  0.00  0.00    +0.000 OA
ATOM      2  C   UNL     1       0.225  10.916  21.526  0.00  0.00    +0.000 A 
ATOM      3  C   UNL     1      -0.213  12.335  21.528  0.00  0.00    +0.000 A 
ATOM      4  N   UNL     1      -0.039  13.136  20.533  0.00  0.00    +0.000 NA
ATOM      5  N   UNL     1       0.589  12.630  19.411  0.00  0.00    +0.000 NA
ATOM      6  C   UNL     1       0.975  11.392  19.352  0.00  0.00    +0.000 A 
ATOM      7  N   UNL     1       0.826  10.467  20.359  0.00  0.00    +0.000 N 
ATOM      8  C   UNL     1       1.268   9.111  20.201  0.00  0.00    +0.000 A 
ATOM      9  C   UNL     1       1.167   8.138  21.218  0.00  0.00    +0.000 A 
ATOM     10  C   UNL     1       1.654   6.830  21.057  0.00  0.00    +0.000 A 
ATOM     11  C   UNL     1       2.237   6.447  19.861  0.00  0.00    +0.000 A 
ATOM     12  C   UNL     1       2.246   7.355  18.808  0.00  0.00    +0.000 A 
ATOM     13  C   UNL     1       1.832   8.691  18.989  0.00  0.00    +0.000 A 
ATOM     14  C   UNL     1       2.104   9.617  17.853  0.00  0.00    +0.000 C 
ATOM     15  C   UNL     1       1.639  11.031  18.047  0.00  0.00    +0.000 C 
ENDROOT
BRANCH  11  16
ATOM     16  O   UNL     1       2.768   5.178  19.799  0.00  0.00    +0.000 OA
BRANCH  16  17
ATOM     17  C   UNL     1       3.824   4.931  18.943  0.00  0.00    +0.000 A 
ATOM     18  C   UNL     1       5.150   5.258  19.267  0.00  0.00    +0.000 A 
ATOM     19  C   UNL     1       6.165   5.108  18.319  0.00  0.00    +0.000 A 
ATOM     20  C   UNL     1       5.871   4.552  17.077  0.00  0.00    +0.000 A 
ATOM     21 CL   UNL     1       7.118   4.400  15.902  0.00  0.00    +0.000 Cl
ATOM     22  C   UNL     1       4.580   4.120  16.782  0.00  0.00    +0.000 A 
ATOM     23  C   UNL     1       3.557   4.310  17.716  0.00  0.00    +0.000 A 
ATOM     24 CL   UNL     1       1.968   3.772  17.307  0.00  0.00    +0.000 Cl
ENDBRANCH  16  17
ENDBRANCH  11  16
TORSDOF 2
ENDMDL
MODEL 8
REMARK VINA RESULT:      -7.7      4.710      7.956
REMARK  Name = 
REMARK  2 active torsions:
REMARK  status: ('A' for Active; 'I' for Inactive)
REMARK    1  A    between atoms: C_11  and  O_12
REMARK    2  A    between atoms: O_12  and  C_13
REMARK                            x       y       z     vdW  Elec       q    Type
REMARK                         _______ _______ _______ _____ _____    ______ ____
ROOT
ATOM      1  O   UNL     1       4.689   6.808  16.198  0.00  0.00    +0.000 OA
ATOM      2  C   UNL     1       4.505   5.982  17.083  0.00  0.00    +0.000 A 
ATOM      3  C   UNL     1       5.299   4.738  16.922  0.00  0.00    +0.000 A 
ATOM      4  N   UNL     1       5.262   3.755  17.754  0.00  0.00    +0.000 NA
ATOM      5  N   UNL     1       4.431   3.881  18.851  0.00  0.00    +0.000 NA
ATOM      6  C   UNL     1       3.702   4.941  19.030  0.00  0.00    +0.000 A 
ATOM      7  N   UNL     1       3.673   6.032  18.192  0.00  0.00    +0.000 N 
ATOM      8  C   UNL     1       2.822   7.157  18.458  0.00  0.00    +0.000 A 
ATOM      9  C   UNL     1       2.784   8.311  17.647  0.00  0.00    +0.000 A 
ATOM     10  C   UNL     1       1.980   9.421  17.956  0.00  0.00    +0.000 A 
ATOM     11  C   UNL     1       1.168   9.400  19.077  0.00  0.00    +0.000 A 
ATOM     12  C   UNL     1       1.105   8.231  19.828  0.00  0.00    +0.000 A 
ATOM     13  C   UNL     1       1.967   7.146  19.568  0.00  0.00    +0.000 A 
ATOM     14  C   UNL     1       1.960   6.051  20.580  0.00  0.00    +0.000 C 
ATOM     15  C   UNL     1       2.864   4.890  20.283  0.00  0.00    +0.000 C 
ENDROOT
BRANCH  11  16
ATOM     16  O   UNL     1       0.470  10.551  19.368  0.00  0.00    +0.000 OA
BRANCH  16  17
ATOM     17  C   UNL     1      -0.801  10.717  18.852  0.00  0.00    +0.000 A 
ATOM     18  C   UNL     1      -1.259  10.007  17.731  0.00  0.00    +0.000 A 
ATOM     19  C   UNL     1      -2.503  10.302  17.169  0.00  0.00    +0.000 A 
ATOM     20  C   UNL     1      -3.327  11.245  17.777  0.00  0.00    +0.000 A 
ATOM     21 CL   UNL     1      -4.844  11.629  17.062  0.00  0.00    +0.000 Cl
ATOM     22  C   UNL     1      -2.932  11.878  18.953  0.00  0.00    +0.000 A 
ATOM     23  C   UNL     1      -1.669  11.613  19.490  0.00  0.00    +0.000 A 
ATOM     24 CL   UNL     1      -1.212  12.427  20.944  0.00  0.00    +0.000 Cl
ENDBRANCH  16  17
ENDBRANCH  11  16
TORSDOF 2
ENDMDL
MODEL 9
REMARK VINA RESULT:      -7.6      5.123      6.945
REMARK  Name = 
REMARK  2 active torsions:
REMARK  status: ('A' for Active; 'I' for Inactive)
REMARK    1  A    between atoms: C_11  and  O_12
REMARK    2  A    between atoms: O_12  and  C_13
REMARK                            x       y       z     vdW  Elec       q    Type
REMARK                         _______ _______ _______ _____ _____    ______ ____
ROOT
ATOM      1  O   UNL     1       4.251   1.930  19.686  0.00  0.00    +0.000 OA
ATOM      2  C   UNL     1       3.603   2.900  20.059  0.00  0.00    +0.000 A 
ATOM      3  C   UNL     1       2.845   2.672  21.315  0.00  0.00    +0.000 A 
ATOM      4  N   UNL     1       2.117   3.571  21.882  0.00  0.00    +0.000 NA
ATOM      5  N   UNL     1       2.047   4.810  21.274  0.00  0.00    +0.000 NA
ATOM      6  C   UNL     1       2.677   5.056  20.165  0.00  0.00    +0.000 A 
ATOM      7  N   UNL     1       3.469   4.157  19.489  0.00  0.00    +0.000 N 
ATOM      8  C   UNL     1       4.116   4.510  18.257  0.00  0.00    +0.000 A 
ATOM      9  C   UNL     1       4.964   3.634  17.547  0.00  0.00    +0.000 A 
ATOM     10  C   UNL     1       5.627   4.019  16.370  0.00  0.00    +0.000 A 
ATOM     11  C   UNL     1       5.442   5.290  15.852  0.00  0.00    +0.000 A 
ATOM     12  C   UNL     1       4.524   6.131  16.473  0.00  0.00    +0.000 A 
ATOM     13  C   UNL     1       3.919   5.778  17.696  0.00  0.00    +0.000 A 
ATOM     14  C   UNL     1       3.137   6.855  18.370  0.00  0.00    +0.000 C 
ATOM     15  C   UNL     1       2.477   6.463  19.660  0.00  0.00    +0.000 C 
ENDROOT
BRANCH  11  16
ATOM     16  O   UNL     1       6.185   5.631  14.744  0.00  0.00    +0.000 OA
BRANCH  16  17
ATOM     17  C   UNL     1       6.281   4.736  13.696  0.00  0.00    +0.000 A 
ATOM     18  C   UNL     1       5.253   3.836  13.375  0.00  0.00    +0.000 A 
ATOM     19  C   UNL     1       5.446   2.865  12.391  0.00  0.00    +0.000 A 
ATOM     20  C   UNL     1       6.635   2.846  11.666  0.00  0.00    +0.000 A 
ATOM     21 CL   UNL     1       6.882   1.627  10.478  0.00  0.00    +0.000 Cl
ATOM     22  C   UNL     1       7.621   3.802  11.897  0.00  0.00    +0.000 A 
ATOM     23  C   UNL     1       7.443   4.747  12.913  0.00  0.00    +0.000 A 
ATOM     24 CL   UNL     1       8.694   5.908  13.176  0.00  0.00    +0.000 Cl
ENDBRANCH  16  17
ENDBRANCH  11  16
TORSDOF 2
ENDMDL
