MODEL 1
REMARK VINA RESULT:      -7.4      0.000      0.000
REMARK  Name = 
REMARK  7 active torsions:
REMARK  status: ('A' for Active; 'I' for Inactive)
REMARK    1  A    between atoms: C_2  and  C_3
REMARK    2  A    between atoms: C_3  and  O_4
REMARK    3  A    between atoms: O_4  and  C_5
REMARK    4  A    between atoms: C_8  and  C_9
REMARK    5  A    between atoms: C_9  and  C_11
REMARK    6  A    between atoms: C_12  and  C_13
REMARK    7  A    between atoms: C_19  and  O_20
REMARK                            x       y       z     vdW  Elec       q    Type
REMARK                         _______ _______ _______ _____ _____    ______ ____
ROOT
ATOM      1  C   UNL     1       3.420   5.547  18.815  0.00  0.00    +0.000 A 
ATOM      2  C   UNL     1       3.531   6.412  17.725  0.00  0.00    +0.000 A 
ATOM      3  C   UNL     1       4.789   6.823  17.260  0.00  0.00    +0.000 A 
ATOM      4  C   UNL     1       5.963   6.388  17.889  0.00  0.00    +0.000 A 
ATOM      5  C   UNL     1       5.832   5.563  19.015  0.00  0.00    +0.000 A 
ATOM      6  C   UNL     1       4.579   5.128  19.466  0.00  0.00    +0.000 A 
ENDROOT
BRANCH   4   7
ATOM      7  C   UNL     1       7.264   6.863  17.326  0.00  0.00    +0.000 C 
ATOM      8  O   UNL     1       7.727   6.332  16.320  0.00  0.00    +0.000 OA
BRANCH   7   9
ATOM      9  C   UNL     1       7.994   7.958  18.027  0.00  0.00    +0.000 C 
ATOM     10  C   UNL     1       8.020   9.211  17.545  0.00  0.00    +0.000 C 
BRANCH  10  11
ATOM     11  C   UNL     1       8.677  10.264  18.316  0.00  0.00    +0.000 A 
ATOM     12  C   UNL     1       8.824  11.559  17.819  0.00  0.00    +0.000 A 
ATOM     13  C   UNL     1       9.534  12.504  18.559  0.00  0.00    +0.000 A 
ATOM     14  C   UNL     1      10.071  12.122  19.779  0.00  0.00    +0.000 A 
ATOM     15  N   UNL     1       9.941  10.883  20.299  0.00  0.00    +0.000 NA
ATOM     16  C   UNL     1       9.248   9.985  19.557  0.00  0.00    +0.000 A 
ENDBRANCH  10  11
ENDBRANCH   7   9
ENDBRANCH   4   7
BRANCH   5  17
ATOM     17  O   UNL     1       6.901   5.168  19.770  0.00  0.00    +0.000 OA
ATOM     18  H   UNL     1       7.338   5.984  20.076  0.00  0.00    +0.000 HD
ENDBRANCH   5  17
BRANCH   1  19
ATOM     19  O   UNL     1       2.143   5.207  19.174  0.00  0.00    +0.000 OA
BRANCH  19  20
ATOM     20  C   UNL     1       1.788   3.831  19.019  0.00  0.00    +0.000 C 
BRANCH  20  22
ATOM     21  C   UNL     1       1.421   2.675  21.570  0.00  0.00    +0.000 C 
ATOM     22  C   UNL     1       1.590   3.209  20.392  0.00  0.00    +0.000 C 
ENDBRANCH  20  22
ENDBRANCH  19  20
ENDBRANCH   1  19
TORSDOF 7
ENDMDL
MODEL 2
REMARK VINA RESULT:      -7.1      4.574      6.641
REMARK  Name = 
REMARK  7 active torsions:
REMARK  status: ('A' for Active; 'I' for Inactive)
REMARK    1  A    between atoms: C_2  and  C_3
REMARK    2  A    between atoms: C_3  and  O_4
REMARK    3  A    between atoms: O_4  and  C_5
REMARK    4  A    between atoms: C_8  and  C_9
REMARK    5  A    between atoms: C_9  and  C_11
REMARK    6  A    between atoms: C_12  and  C_13
REMARK    7  A    between atoms: C_19  and  O_20
REMARK                            x       y       z     vdW  Elec       q    Type
REMARK                         _______ _______ _______ _____ _____    ______ ____
ROOT
ATOM      1  C   UNL     1       0.859   9.977  18.781  0.00  0.00    +0.000 A 
ATOM      2  C   UNL     1       1.544   9.423  17.698  0.00  0.00    +0.000 A 
ATOM      3  C   UNL     1       2.253   8.221  17.837  0.00  0.00    +0.000 A 
ATOM      4  C   UNL     1       2.305   7.558  19.070  0.00  0.00    +0.000 A 
ATOM      5  C   UNL     1       1.658   8.156  20.160  0.00  0.00    +0.000 A 
ATOM      6  C   UNL     1       0.925   9.341  20.019  0.00  0.00    +0.000 A 
ENDROOT
BRANCH   4   7
ATOM      7  C   UNL     1       3.074   6.276  19.132  0.00  0.00    +0.000 C 
ATOM      8  O   UNL     1       2.801   5.439  19.989  0.00  0.00    +0.000 OA
BRANCH   7   9
ATOM      9  C   UNL     1       4.187   6.058  18.166  0.00  0.00    +0.000 C 
ATOM     10  C   UNL     1       4.089   5.169  17.164  0.00  0.00    +0.000 C 
BRANCH  10  11
ATOM     11  C   UNL     1       5.176   5.056  16.194  0.00  0.00    +0.000 A 
ATOM     12  C   UNL     1       5.014   4.385  14.981  0.00  0.00    +0.000 A 
ATOM     13  C   UNL     1       6.106   4.233  14.128  0.00  0.00    +0.000 A 
ATOM     14  C   UNL     1       7.328   4.763  14.515  0.00  0.00    +0.000 A 
ATOM     15  N   UNL     1       7.522   5.426  15.674  0.00  0.00    +0.000 NA
ATOM     16  C   UNL     1       6.443   5.558  16.484  0.00  0.00    +0.000 A 
ENDBRANCH  10  11
ENDBRANCH   7   9
ENDBRANCH   4   7
BRANCH   5  17
ATOM     17  O   UNL     1       1.733   7.655  21.430  0.00  0.00    +0.000 OA
ATOM     18  H   UNL     1       2.219   8.317  21.957  0.00  0.00    +0.000 HD
ENDBRANCH   5  17
BRANCH   1  19
ATOM     19  O   UNL     1       0.194  11.147  18.526  0.00  0.00    +0.000 OA
BRANCH  19  20
ATOM     20  C   UNL     1      -1.221  11.127  18.729  0.00  0.00    +0.000 C 
BRANCH  20  22
ATOM     21  C   UNL     1      -2.432   9.611  16.678  0.00  0.00    +0.000 C 
ATOM     22  C   UNL     1      -1.872  10.311  17.625  0.00  0.00    +0.000 C 
ENDBRANCH  20  22
ENDBRANCH  19  20
ENDBRANCH   1  19
TORSDOF 7
ENDMDL
MODEL 3
REMARK VINA RESULT:      -7.0      0.967      1.336
REMARK  Name = 
REMARK  7 active torsions:
REMARK  status: ('A' for Active; 'I' for Inactive)
REMARK    1  A    between atoms: C_2  and  C_3
REMARK    2  A    between atoms: C_3  and  O_4
REMARK    3  A    between atoms: O_4  and  C_5
REMARK    4  A    between atoms: C_8  and  C_9
REMARK    5  A    between atoms: C_9  and  C_11
REMARK    6  A    between atoms: C_12  and  C_13
REMARK    7  A    between atoms: C_19  and  O_20
REMARK                            x       y       z     vdW  Elec       q    Type
REMARK                         _______ _______ _______ _____ _____    ______ ____
ROOT
ATOM      1  C   UNL     1       3.233   5.726  18.731  0.00  0.00    +0.000 A 
ATOM      2  C   UNL     1       3.353   6.815  17.867  0.00  0.00    +0.000 A 
ATOM      3  C   UNL     1       4.606   7.200  17.368  0.00  0.00    +0.000 A 
ATOM      4  C   UNL     1       5.768   6.510  17.738  0.00  0.00    +0.000 A 
ATOM      5  C   UNL     1       5.636   5.452  18.649  0.00  0.00    +0.000 A 
ATOM      6  C   UNL     1       4.383   5.048  19.128  0.00  0.00    +0.000 A 
ENDROOT
BRANCH   4   7
ATOM      7  C   UNL     1       7.064   6.976  17.155  0.00  0.00    +0.000 C 
ATOM      8  O   UNL     1       7.715   6.226  16.432  0.00  0.00    +0.000 OA
BRANCH   7   9
ATOM      9  C   UNL     1       7.555   8.341  17.494  0.00  0.00    +0.000 C 
ATOM     10  C   UNL     1       8.416   8.552  18.503  0.00  0.00    +0.000 C 
BRANCH  10  11
ATOM     11  C   UNL     1       8.933   9.898  18.739  0.00  0.00    +0.000 A 
ATOM     12  C   UNL     1       9.491  10.270  19.962  0.00  0.00    +0.000 A 
ATOM     13  C   UNL     1       9.891  11.590  20.162  0.00  0.00    +0.000 A 
ATOM     14  C   UNL     1       9.724  12.498  19.128  0.00  0.00    +0.000 A 
ATOM     15  N   UNL     1       9.198  12.175  17.928  0.00  0.00    +0.000 NA
ATOM     16  C   UNL     1       8.816  10.885  17.761  0.00  0.00    +0.000 A 
ENDBRANCH  10  11
ENDBRANCH   7   9
ENDBRANCH   4   7
BRANCH   5  17
ATOM     17  O   UNL     1       6.709   4.780  19.163  0.00  0.00    +0.000 OA
ATOM     18  H   UNL     1       7.109   4.292  18.419  0.00  0.00    +0.000 HD
ENDBRANCH   5  17
BRANCH   1  19
ATOM     19  O   UNL     1       1.960   5.437  19.147  0.00  0.00    +0.000 OA
BRANCH  19  20
ATOM     20  C   UNL     1       1.834   4.404  20.127  0.00  0.00    +0.000 C 
BRANCH  20  22
ATOM     21  C   UNL     1       0.684   2.122  18.926  0.00  0.00    +0.000 C 
ATOM     22  C   UNL     1       1.215   3.175  19.480  0.00  0.00    +0.000 C 
ENDBRANCH  20  22
ENDBRANCH  19  20
ENDBRANCH   1  19
TORSDOF 7
ENDMDL
MODEL 4
REMARK VINA RESULT:      -7.0      4.670      6.703
REMARK  Name = 
REMARK  7 active torsions:
REMARK  status: ('A' for Active; 'I' for Inactive)
REMARK    1  A    between atoms: C_2  and  C_3
REMARK    2  A    between atoms: C_3  and  O_4
REMARK    3  A    between atoms: O_4  and  C_5
REMARK    4  A    between atoms: C_8  and  C_9
REMARK    5  A    between atoms: C_9  and  C_11
REMARK    6  A    between atoms: C_12  and  C_13
REMARK    7  A    between atoms: C_19  and  O_20
REMARK                            x       y       z     vdW  Elec       q    Type
REMARK                         _______ _______ _______ _____ _____    ______ ____
ROOT
ATOM      1  C   UNL     1       5.577   4.963  15.250  0.00  0.00    +0.000 A 
ATOM      2  C   UNL     1       5.201   6.220  15.725  0.00  0.00    +0.000 A 
ATOM      3  C   UNL     1       4.547   6.355  16.959  0.00  0.00    +0.000 A 
ATOM      4  C   UNL     1       4.239   5.230  17.734  0.00  0.00    +0.000 A 
ATOM      5  C   UNL     1       4.574   3.970  17.217  0.00  0.00    +0.000 A 
ATOM      6  C   UNL     1       5.253   3.833  15.999  0.00  0.00    +0.000 A 
ENDROOT
BRANCH   4   7
ATOM      7  C   UNL     1       3.550   5.459  19.041  0.00  0.00    +0.000 C 
ATOM      8  O   UNL     1       3.506   4.560  19.877  0.00  0.00    +0.000 OA
BRANCH   7   9
ATOM      9  C   UNL     1       2.896   6.775  19.288  0.00  0.00    +0.000 C 
ATOM     10  C   UNL     1       2.014   6.950  20.285  0.00  0.00    +0.000 C 
BRANCH  10  11
ATOM     11  C   UNL     1       1.468   8.282  20.536  0.00  0.00    +0.000 A 
ATOM     12  C   UNL     1       1.136   9.151  19.497  0.00  0.00    +0.000 A 
ATOM     13  C   UNL     1       0.699  10.441  19.792  0.00  0.00    +0.000 A 
ATOM     14  C   UNL     1       0.602  10.821  21.122  0.00  0.00    +0.000 A 
ATOM     15  N   UNL     1       0.903  10.006  22.155  0.00  0.00    +0.000 NA
ATOM     16  C   UNL     1       1.328   8.758  21.839  0.00  0.00    +0.000 A 
ENDBRANCH  10  11
ENDBRANCH   7   9
ENDBRANCH   4   7
BRANCH   5  17
ATOM     17  O   UNL     1       4.227   2.801  17.834  0.00  0.00    +0.000 OA
ATOM     18  H   UNL     1       3.920   2.200  17.130  0.00  0.00    +0.000 HD
ENDBRANCH   5  17
BRANCH   1  19
ATOM     19  O   UNL     1       6.217   4.954  14.040  0.00  0.00    +0.000 OA
BRANCH  19  20
ATOM     20  C   UNL     1       6.400   3.673  13.431  0.00  0.00    +0.000 C 
BRANCH  20  22
ATOM     21  C   UNL     1       4.414   3.291  11.460  0.00  0.00    +0.000 C 
ATOM     22  C   UNL     1       5.331   3.467  12.370  0.00  0.00    +0.000 C 
ENDBRANCH  20  22
ENDBRANCH  19  20
ENDBRANCH   1  19
TORSDOF 7
ENDMDL
MODEL 5
REMARK VINA RESULT:      -7.0      3.388      8.144
REMARK  Name = 
REMARK  7 active torsions:
REMARK  status: ('A' for Active; 'I' for Inactive)
REMARK    1  A    between atoms: C_2  and  C_3
REMARK    2  A    between atoms: C_3  and  O_4
REMARK    3  A    between atoms: O_4  and  C_5
REMARK    4  A    between atoms: C_8  and  C_9
REMARK    5  A    between atoms: C_9  and  C_11
REMARK    6  A    between atoms: C_12  and  C_13
REMARK    7  A    between atoms: C_19  and  O_20
REMARK                            x       y       z     vdW  Elec       q    Type
REMARK                         _______ _______ _______ _____ _____    ______ ____
ROOT
ATOM      1  C   UNL     1       7.934   7.430  18.200  0.00  0.00    +0.000 A 
ATOM      2  C   UNL     1       8.087   6.129  18.681  0.00  0.00    +0.000 A 
ATOM      3  C   UNL     1       7.386   5.062  18.098  0.00  0.00    +0.000 A 
ATOM      4  C   UNL     1       6.503   5.281  17.033  0.00  0.00    +0.000 A 
ATOM      5  C   UNL     1       6.320   6.601  16.598  0.00  0.00    +0.000 A 
ATOM      6  C   UNL     1       7.038   7.665  17.158  0.00  0.00    +0.000 A 
ENDROOT
BRANCH   4   7
ATOM      7  C   UNL     1       5.802   4.090  16.462  0.00  0.00    +0.000 C 
ATOM      8  O   UNL     1       6.258   3.528  15.469  0.00  0.00    +0.000 OA
BRANCH   7   9
ATOM      9  C   UNL     1       4.535   3.629  17.096  0.00  0.00    +0.000 C 
ATOM     10  C   UNL     1       4.022   4.240  18.176  0.00  0.00    +0.000 C 
BRANCH  10  11
ATOM     11  C   UNL     1       2.733   3.801  18.707  0.00  0.00    +0.000 A 
ATOM     12  C   UNL     1       2.129   4.435  19.792  0.00  0.00    +0.000 A 
ATOM     13  C   UNL     1       0.940   3.925  20.313  0.00  0.00    +0.000 A 
ATOM     14  C   UNL     1       0.391   2.795  19.726  0.00  0.00    +0.000 A 
ATOM     15  N   UNL     1       0.940   2.160  18.669  0.00  0.00    +0.000 NA
ATOM     16  C   UNL     1       2.095   2.677  18.185  0.00  0.00    +0.000 A 
ENDBRANCH  10  11
ENDBRANCH   7   9
ENDBRANCH   4   7
BRANCH   5  17
ATOM     17  O   UNL     1       5.406   6.945  15.642  0.00  0.00    +0.000 OA
ATOM     18  H   UNL     1       5.794   6.685  14.785  0.00  0.00    +0.000 HD
ENDBRANCH   5  17
BRANCH   1  19
ATOM     19  O   UNL     1       8.674   8.389  18.839  0.00  0.00    +0.000 OA
BRANCH  19  20
ATOM     20  C   UNL     1       8.589   9.712  18.307  0.00  0.00    +0.000 C 
BRANCH  20  22
ATOM     21  C   UNL     1      10.565  11.327  19.516  0.00  0.00    +0.000 C 
ATOM     22  C   UNL     1       9.653  10.582  18.958  0.00  0.00    +0.000 C 
ENDBRANCH  20  22
ENDBRANCH  19  20
ENDBRANCH   1  19
TORSDOF 7
ENDMDL
MODEL 6
REMARK VINA RESULT:      -7.0      3.183      8.097
REMARK  Name = 
REMARK  7 active torsions:
REMARK  status: ('A' for Active; 'I' for Inactive)
REMARK    1  A    between atoms: C_2  and  C_3
REMARK    2  A    between atoms: C_3  and  O_4
REMARK    3  A    between atoms: O_4  and  C_5
REMARK    4  A    between atoms: C_8  and  C_9
REMARK    5  A    between atoms: C_9  and  C_11
REMARK    6  A    between atoms: C_12  and  C_13
REMARK    7  A    between atoms: C_19  and  O_20
REMARK                            x       y       z     vdW  Elec       q    Type
REMARK                         _______ _______ _______ _____ _____    ______ ____
ROOT
ATOM      1  C   UNL     1       7.907   7.306  18.181  0.00  0.00    +0.000 A 
ATOM      2  C   UNL     1       8.041   5.996  18.643  0.00  0.00    +0.000 A 
ATOM      3  C   UNL     1       7.308   4.952  18.061  0.00  0.00    +0.000 A 
ATOM      4  C   UNL     1       6.409   5.203  17.016  0.00  0.00    +0.000 A 
ATOM      5  C   UNL     1       6.245   6.532  16.601  0.00  0.00    +0.000 A 
ATOM      6  C   UNL     1       6.997   7.574  17.160  0.00  0.00    +0.000 A 
ENDROOT
BRANCH   4   7
ATOM      7  C   UNL     1       5.672   4.034  16.443  0.00  0.00    +0.000 C 
ATOM      8  O   UNL     1       6.088   3.486  15.426  0.00  0.00    +0.000 OA
BRANCH   7   9
ATOM      9  C   UNL     1       4.418   3.580  17.108  0.00  0.00    +0.000 C 
ATOM     10  C   UNL     1       4.199   3.783  18.417  0.00  0.00    +0.000 C 
BRANCH  10  11
ATOM     11  C   UNL     1       2.916   3.394  19.001  0.00  0.00    +0.000 A 
ATOM     12  C   UNL     1       1.937   2.736  18.256  0.00  0.00    +0.000 A 
ATOM     13  C   UNL     1       0.699   2.463  18.836  0.00  0.00    +0.000 A 
ATOM     14  C   UNL     1       0.481   2.855  20.149  0.00  0.00    +0.000 A 
ATOM     15  N   UNL     1       1.406   3.484  20.904  0.00  0.00    +0.000 NA
ATOM     16  C   UNL     1       2.600   3.737  20.314  0.00  0.00    +0.000 A 
ENDBRANCH  10  11
ENDBRANCH   7   9
ENDBRANCH   4   7
BRANCH   5  17
ATOM     17  O   UNL     1       5.321   6.907  15.667  0.00  0.00    +0.000 OA
ATOM     18  H   UNL     1       4.809   7.636  16.065  0.00  0.00    +0.000 HD
ENDBRANCH   5  17
BRANCH   1  19
ATOM     19  O   UNL     1       8.680   8.241  18.818  0.00  0.00    +0.000 OA
BRANCH  19  20
ATOM     20  C   UNL     1       8.583   9.580  18.328  0.00  0.00    +0.000 C 
BRANCH  20  22
ATOM     21  C   UNL     1      10.003  11.305  20.057  0.00  0.00    +0.000 C 
ATOM     22  C   UNL     1       9.347  10.509  19.259  0.00  0.00    +0.000 C 
ENDBRANCH  20  22
ENDBRANCH  19  20
ENDBRANCH   1  19
TORSDOF 7
ENDMDL
MODEL 7
REMARK VINA RESULT:      -6.9      4.737      7.980
REMARK  Name = 
REMARK  7 active torsions:
REMARK  status: ('A' for Active; 'I' for Inactive)
REMARK    1  A    between atoms: C_2  and  C_3
REMARK    2  A    between atoms: C_3  and  O_4
REMARK    3  A    between atoms: O_4  and  C_5
REMARK    4  A    between atoms: C_8  and  C_9
REMARK    5  A    between atoms: C_9  and  C_11
REMARK    6  A    between atoms: C_12  and  C_13
REMARK    7  A    between atoms: C_19  and  O_20
REMARK                            x       y       z     vdW  Elec       q    Type
REMARK                         _______ _______ _______ _____ _____    ______ ____
ROOT
ATOM      1  C   UNL     1       6.475   4.223  13.708  0.00  0.00    +0.000 A 
ATOM      2  C   UNL     1       5.821   3.300  14.525  0.00  0.00    +0.000 A 
ATOM      3  C   UNL     1       5.771   3.481  15.915  0.00  0.00    +0.000 A 
ATOM      4  C   UNL     1       6.392   4.583  16.517  0.00  0.00    +0.000 A 
ATOM      5  C   UNL     1       7.092   5.471  15.688  0.00  0.00    +0.000 A 
ATOM      6  C   UNL     1       7.120   5.309  14.297  0.00  0.00    +0.000 A 
ENDROOT
BRANCH   4   7
ATOM      7  C   UNL     1       6.285   4.710  18.004  0.00  0.00    +0.000 C 
ATOM      8  O   UNL     1       7.291   4.926  18.674  0.00  0.00    +0.000 OA
BRANCH   7   9
ATOM      9  C   UNL     1       4.952   4.535  18.645  0.00  0.00    +0.000 C 
ATOM     10  C   UNL     1       4.602   3.387  19.247  0.00  0.00    +0.000 C 
BRANCH  10  11
ATOM     11  C   UNL     1       3.316   3.298  19.936  0.00  0.00    +0.000 A 
ATOM     12  C   UNL     1       3.180   2.647  21.162  0.00  0.00    +0.000 A 
ATOM     13  C   UNL     1       1.915   2.517  21.735  0.00  0.00    +0.000 A 
ATOM     14  C   UNL     1       0.825   3.049  21.063  0.00  0.00    +0.000 A 
ATOM     15  N   UNL     1       0.918   3.694  19.881  0.00  0.00    +0.000 NA
ATOM     16  C   UNL     1       2.158   3.804  19.346  0.00  0.00    +0.000 A 
ENDBRANCH  10  11
ENDBRANCH   7   9
ENDBRANCH   4   7
BRANCH   5  17
ATOM     17  O   UNL     1       7.824   6.517  16.175  0.00  0.00    +0.000 OA
ATOM     18  H   UNL     1       7.788   7.217  15.496  0.00  0.00    +0.000 HD
ENDBRANCH   5  17
BRANCH   1  19
ATOM     19  O   UNL     1       6.451   3.948  12.367  0.00  0.00    +0.000 OA
BRANCH  19  20
ATOM     20  C   UNL     1       5.746   2.767  11.976  0.00  0.00    +0.000 C 
BRANCH  20  22
ATOM     21  C   UNL     1       3.380   3.505  10.622  0.00  0.00    +0.000 C 
ATOM     22  C   UNL     1       4.473   3.164  11.247  0.00  0.00    +0.000 C 
ENDBRANCH  20  22
ENDBRANCH  19  20
ENDBRANCH   1  19
TORSDOF 7
ENDMDL
MODEL 8
REMARK VINA RESULT:      -6.9      4.550      7.786
REMARK  Name = 
REMARK  7 active torsions:
REMARK  status: ('A' for Active; 'I' for Inactive)
REMARK    1  A    between atoms: C_2  and  C_3
REMARK    2  A    between atoms: C_3  and  O_4
REMARK    3  A    between atoms: O_4  and  C_5
REMARK    4  A    between atoms: C_8  and  C_9
REMARK    5  A    between atoms: C_9  and  C_11
REMARK    6  A    between atoms: C_12  and  C_13
REMARK    7  A    between atoms: C_19  and  O_20
REMARK                            x       y       z     vdW  Elec       q    Type
REMARK                         _______ _______ _______ _____ _____    ______ ____
ROOT
ATOM      1  C   UNL     1       6.445   4.314  13.945  0.00  0.00    +0.000 A 
ATOM      2  C   UNL     1       5.821   3.408  14.803  0.00  0.00    +0.000 A 
ATOM      3  C   UNL     1       5.790   3.635  16.187  0.00  0.00    +0.000 A 
ATOM      4  C   UNL     1       6.401   4.767  16.742  0.00  0.00    +0.000 A 
ATOM      5  C   UNL     1       7.071   5.639  15.872  0.00  0.00    +0.000 A 
ATOM      6  C   UNL     1       7.080   5.431  14.486  0.00  0.00    +0.000 A 
ENDROOT
BRANCH   4   7
ATOM      7  C   UNL     1       6.316   4.941  18.224  0.00  0.00    +0.000 C 
ATOM      8  O   UNL     1       7.155   5.620  18.811  0.00  0.00    +0.000 OA
BRANCH   7   9
ATOM      9  C   UNL     1       5.223   4.252  18.967  0.00  0.00    +0.000 C 
ATOM     10  C   UNL     1       4.015   4.815  19.130  0.00  0.00    +0.000 C 
BRANCH  10  11
ATOM     11  C   UNL     1       2.953   4.060  19.792  0.00  0.00    +0.000 A 
ATOM     12  C   UNL     1       1.792   3.678  19.120  0.00  0.00    +0.000 A 
ATOM     13  C   UNL     1       0.773   3.034  19.820  0.00  0.00    +0.000 A 
ATOM     14  C   UNL     1       0.951   2.787  21.173  0.00  0.00    +0.000 A 
ATOM     15  N   UNL     1       2.064   3.131  21.855  0.00  0.00    +0.000 NA
ATOM     16  C   UNL     1       3.037   3.758  21.150  0.00  0.00    +0.000 A 
ENDBRANCH  10  11
ENDBRANCH   7   9
ENDBRANCH   4   7
BRANCH   5  17
ATOM     17  O   UNL     1       7.792   6.713  16.311  0.00  0.00    +0.000 OA
ATOM     18  H   UNL     1       8.081   6.498  17.218  0.00  0.00    +0.000 HD
ENDBRANCH   5  17
BRANCH   1  19
ATOM     19  O   UNL     1       6.404   3.994  12.614  0.00  0.00    +0.000 OA
BRANCH  19  20
ATOM     20  C   UNL     1       5.668   2.818  12.270  0.00  0.00    +0.000 C 
BRANCH  20  22
ATOM     21  C   UNL     1       3.469   3.540  10.652  0.00  0.00    +0.000 C 
ATOM     22  C   UNL     1       4.484   3.207  11.399  0.00  0.00    +0.000 C 
ENDBRANCH  20  22
ENDBRANCH  19  20
ENDBRANCH   1  19
TORSDOF 7
ENDMDL
MODEL 9
REMARK VINA RESULT:      -6.9      1.267      1.523
REMARK  Name = 
REMARK  7 active torsions:
REMARK  status: ('A' for Active; 'I' for Inactive)
REMARK    1  A    between atoms: C_2  and  C_3
REMARK    2  A    between atoms: C_3  and  O_4
REMARK    3  A    between atoms: O_4  and  C_5
REMARK    4  A    between atoms: C_8  and  C_9
REMARK    5  A    between atoms: C_9  and  C_11
REMARK    6  A    between atoms: C_12  and  C_13
REMARK    7  A    between atoms: C_19  and  O_20
REMARK                            x       y       z     vdW  Elec       q    Type
REMARK                         _______ _______ _______ _____ _____    ______ ____
ROOT
ATOM      1  C   UNL     1       2.969   5.232  17.821  0.00  0.00    +0.000 A 
ATOM      2  C   UNL     1       3.217   6.604  17.885  0.00  0.00    +0.000 A 
ATOM      3  C   UNL     1       4.495   7.116  17.618  0.00  0.00    +0.000 A 
ATOM      4  C   UNL     1       5.557   6.259  17.298  0.00  0.00    +0.000 A 
ATOM      5  C   UNL     1       5.304   4.880  17.292  0.00  0.00    +0.000 A 
ATOM      6  C   UNL     1       4.022   4.368  17.531  0.00  0.00    +0.000 A 
ENDROOT
BRANCH   4   7
ATOM      7  C   UNL     1       6.887   6.883  17.017  0.00  0.00    +0.000 C 
ATOM      8  O   UNL     1       7.634   6.383  16.180  0.00  0.00    +0.000 OA
BRANCH   7   9
ATOM      9  C   UNL     1       7.292   8.091  17.791  0.00  0.00    +0.000 C 
ATOM     10  C   UNL     1       8.458   8.717  17.564  0.00  0.00    +0.000 C 
BRANCH  10  11
ATOM     11  C   UNL     1       8.767   9.946  18.291  0.00  0.00    +0.000 A 
ATOM     12  C   UNL     1       9.212   9.929  19.613  0.00  0.00    +0.000 A 
ATOM     13  C   UNL     1       9.412  11.132  20.287  0.00  0.00    +0.000 A 
ATOM     14  C   UNL     1       9.163  12.319  19.614  0.00  0.00    +0.000 A 
ATOM     15  N   UNL     1       8.743  12.377  18.333  0.00  0.00    +0.000 NA
ATOM     16  C   UNL     1       8.555  11.193  17.702  0.00  0.00    +0.000 A 
ENDBRANCH  10  11
ENDBRANCH   7   9
ENDBRANCH   4   7
BRANCH   5  17
ATOM     17  O   UNL     1       6.286   3.949  17.101  0.00  0.00    +0.000 OA
ATOM     18  H   UNL     1       6.449   3.539  17.971  0.00  0.00    +0.000 HD
ENDBRANCH   5  17
BRANCH   1  19
ATOM     19  O   UNL     1       1.682   4.850  18.093  0.00  0.00    +0.000 OA
BRANCH  19  20
ATOM     20  C   UNL     1       1.472   3.453  18.317  0.00  0.00    +0.000 C 
BRANCH  20  22
ATOM     21  C   UNL     1       1.276   2.979  21.094  0.00  0.00    +0.000 C 
ATOM     22  C   UNL     1       1.366   3.198  19.812  0.00  0.00    +0.000 C 
ENDBRANCH  20  22
ENDBRANCH  19  20
ENDBRANCH   1  19
TORSDOF 7
ENDMDL
