MODEL 1
REMARK VINA RESULT:      -8.3      0.000      0.000
REMARK  Name = 
REMARK  5 active torsions:
REMARK  status: ('A' for Active; 'I' for Inactive)
REMARK    1  A    between atoms: C_5  and  O_6
REMARK    2  A    between atoms: O_6  and  C_7
REMARK    3  A    between atoms: C_10  and  C_11
REMARK    4  A    between atoms: N_23  and  C_24
REMARK    5  A    between atoms: C_24  and  C_25
REMARK                            x       y       z     vdW  Elec       q    Type
REMARK                         _______ _______ _______ _____ _____    ______ ____
ROOT
ATOM      1  O   UNL     1       5.484   3.921  19.647  0.00  0.00    +0.000 OA
ATOM      2  C   UNL     1       4.391   3.565  19.218  0.00  0.00    +0.000 C 
ATOM      3  C   UNL     1       3.162   4.208  19.738  0.00  0.00    +0.000 A 
ATOM      4  C   UNL     1       3.240   5.587  19.992  0.00  0.00    +0.000 A 
ATOM      5  C   UNL     1       2.115   6.294  20.415  0.00  0.00    +0.000 A 
ATOM      6  C   UNL     1       0.898   5.626  20.565  0.00  0.00    +0.000 A 
ATOM      7  C   UNL     1       0.828   4.245  20.369  0.00  0.00    +0.000 A 
ATOM      8  C   UNL     1       1.951   3.541  19.929  0.00  0.00    +0.000 A 
ATOM      9  O   UNL     1       1.789   2.195  19.763  0.00  0.00    +0.000 OA
ATOM     10  C   UNL     1       1.979   1.813  18.396  0.00  0.00    +0.000 C 
ATOM     11  C   UNL     1       3.459   1.582  18.101  0.00  0.00    +0.000 C 
ATOM     12  N   UNL     1       4.264   2.797  18.068  0.00  0.00    +0.000 N 
ENDROOT
BRANCH   5  13
ATOM     13  O   UNL     1       2.294   7.648  20.594  0.00  0.00    +0.000 OA
BRANCH  13  14
ATOM     14  C   UNL     1       1.393   8.539  20.059  0.00  0.00    +0.000 A 
ATOM     15  C   UNL     1       0.393   9.174  20.801  0.00  0.00    +0.000 A 
ATOM     16  C   UNL     1      -0.523  10.014  20.162  0.00  0.00    +0.000 A 
ATOM     17  C   UNL     1      -0.416  10.273  18.790  0.00  0.00    +0.000 A 
ATOM     18  C   UNL     1       0.650   9.706  18.075  0.00  0.00    +0.000 A 
ATOM     19  C   UNL     1       1.548   8.842  18.707  0.00  0.00    +0.000 A 
BRANCH  17  20
ATOM     20  C   UNL     1      -1.433  11.141  18.086  0.00  0.00    +0.000 C 
ATOM     21  F   UNL     1      -0.964  12.379  17.772  0.00  0.00    +0.000 F 
ATOM     22  F   UNL     1      -1.866  10.591  16.916  0.00  0.00    +0.000 F 
ATOM     23  F   UNL     1      -2.547  11.346  18.841  0.00  0.00    +0.000 F 
ENDBRANCH  17  20
ENDBRANCH  13  14
ENDBRANCH   5  13
BRANCH  12  24
ATOM     24  C   UNL     1       4.333   3.578  16.828  0.00  0.00    +0.000 C 
BRANCH  24  25
ATOM     25  C   UNL     1       5.330   4.717  16.812  0.00  0.00    +0.000 A 
ATOM     26  N   UNL     1       4.848   5.975  16.917  0.00  0.00    +0.000 NA
ATOM     27  C   UNL     1       5.763   6.962  16.970  0.00  0.00    +0.000 A 
ATOM     28  C   UNL     1       7.119   6.748  16.919  0.00  0.00    +0.000 A 
ATOM     29  C   UNL     1       7.508   5.435  16.802  0.00  0.00    +0.000 A 
ATOM     30  N   UNL     1       6.641   4.409  16.751  0.00  0.00    +0.000 NA
ENDBRANCH  24  25
ENDBRANCH  12  24
TORSDOF 5
ENDMDL
MODEL 2
REMARK VINA RESULT:      -8.3      1.134      1.529
REMARK  Name = 
REMARK  5 active torsions:
REMARK  status: ('A' for Active; 'I' for Inactive)
REMARK    1  A    between atoms: C_5  and  O_6
REMARK    2  A    between atoms: O_6  and  C_7
REMARK    3  A    between atoms: C_10  and  C_11
REMARK    4  A    between atoms: N_23  and  C_24
REMARK    5  A    between atoms: C_24  and  C_25
REMARK                            x       y       z     vdW  Elec       q    Type
REMARK                         _______ _______ _______ _____ _____    ______ ____
ROOT
ATOM      1  O   UNL     1       5.598   4.526  19.107  0.00  0.00    +0.000 OA
ATOM      2  C   UNL     1       4.499   4.062  18.817  0.00  0.00    +0.000 C 
ATOM      3  C   UNL     1       3.294   4.553  19.526  0.00  0.00    +0.000 A 
ATOM      4  C   UNL     1       3.260   5.925  19.821  0.00  0.00    +0.000 A 
ATOM      5  C   UNL     1       2.138   6.494  20.423  0.00  0.00    +0.000 A 
ATOM      6  C   UNL     1       1.031   5.692  20.710  0.00  0.00    +0.000 A 
ATOM      7  C   UNL     1       1.081   4.317  20.470  0.00  0.00    +0.000 A 
ATOM      8  C   UNL     1       2.199   3.752  19.852  0.00  0.00    +0.000 A 
ATOM      9  O   UNL     1       2.158   2.401  19.656  0.00  0.00    +0.000 OA
ATOM     10  C   UNL     1       2.193   2.077  18.261  0.00  0.00    +0.000 C 
ATOM     11  C   UNL     1       3.634   2.018  17.758  0.00  0.00    +0.000 C 
ATOM     12  N   UNL     1       4.294   3.314  17.665  0.00  0.00    +0.000 N 
ENDROOT
BRANCH   5  13
ATOM     13  O   UNL     1       2.197   7.854  20.630  0.00  0.00    +0.000 OA
BRANCH  13  14
ATOM     14  C   UNL     1       1.271   8.682  20.038  0.00  0.00    +0.000 A 
ATOM     15  C   UNL     1       0.257   9.341  20.737  0.00  0.00    +0.000 A 
ATOM     16  C   UNL     1      -0.683  10.110  20.046  0.00  0.00    +0.000 A 
ATOM     17  C   UNL     1      -0.586  10.276  18.659  0.00  0.00    +0.000 A 
ATOM     18  C   UNL     1       0.492   9.687  17.980  0.00  0.00    +0.000 A 
ATOM     19  C   UNL     1       1.414   8.893  18.667  0.00  0.00    +0.000 A 
BRANCH  17  20
ATOM     20  C   UNL     1      -1.627  11.065  17.900  0.00  0.00    +0.000 C 
ATOM     21  F   UNL     1      -2.827  11.131  18.536  0.00  0.00    +0.000 F 
ATOM     22  F   UNL     1      -1.243  12.354  17.677  0.00  0.00    +0.000 F 
ATOM     23  F   UNL     1      -1.886  10.531  16.673  0.00  0.00    +0.000 F 
ENDBRANCH  17  20
ENDBRANCH  13  14
ENDBRANCH   5  13
BRANCH  12  24
ATOM     24  C   UNL     1       4.106   4.130  16.460  0.00  0.00    +0.000 C 
BRANCH  24  25
ATOM     25  C   UNL     1       5.318   4.289  15.567  0.00  0.00    +0.000 A 
ATOM     26  N   UNL     1       5.243   3.796  14.312  0.00  0.00    +0.000 NA
ATOM     27  C   UNL     1       6.311   4.016  13.520  0.00  0.00    +0.000 A 
ATOM     28  C   UNL     1       7.436   4.692  13.927  0.00  0.00    +0.000 A 
ATOM     29  C   UNL     1       7.419   5.145  15.224  0.00  0.00    +0.000 A 
ATOM     30  N   UNL     1       6.379   4.962  16.058  0.00  0.00    +0.000 NA
ENDBRANCH  24  25
ENDBRANCH  12  24
TORSDOF 5
ENDMDL
MODEL 3
REMARK VINA RESULT:      -8.2      0.240      1.152
REMARK  Name = 
REMARK  5 active torsions:
REMARK  status: ('A' for Active; 'I' for Inactive)
REMARK    1  A    between atoms: C_5  and  O_6
REMARK    2  A    between atoms: O_6  and  C_7
REMARK    3  A    between atoms: C_10  and  C_11
REMARK    4  A    between atoms: N_23  and  C_24
REMARK    5  A    between atoms: C_24  and  C_25
REMARK                            x       y       z     vdW  Elec       q    Type
REMARK                         _______ _______ _______ _____ _____    ______ ____
ROOT
ATOM      1  O   UNL     1       5.484   3.929  19.623  0.00  0.00    +0.000 OA
ATOM      2  C   UNL     1       4.395   3.569  19.190  0.00  0.00    +0.000 C 
ATOM      3  C   UNL     1       3.160   4.194  19.719  0.00  0.00    +0.000 A 
ATOM      4  C   UNL     1       3.226   5.571  19.990  0.00  0.00    +0.000 A 
ATOM      5  C   UNL     1       2.095   6.263  20.423  0.00  0.00    +0.000 A 
ATOM      6  C   UNL     1       0.884   5.582  20.564  0.00  0.00    +0.000 A 
ATOM      7  C   UNL     1       0.826   4.203  20.350  0.00  0.00    +0.000 A 
ATOM      8  C   UNL     1       1.955   3.514  19.901  0.00  0.00    +0.000 A 
ATOM      9  O   UNL     1       1.804   2.170  19.717  0.00  0.00    +0.000 OA
ATOM     10  C   UNL     1       1.997   1.808  18.345  0.00  0.00    +0.000 C 
ATOM     11  C   UNL     1       3.478   1.593  18.047  0.00  0.00    +0.000 C 
ATOM     12  N   UNL     1       4.273   2.815  18.030  0.00  0.00    +0.000 N 
ENDROOT
BRANCH   5  13
ATOM     13  O   UNL     1       2.263   7.615  20.620  0.00  0.00    +0.000 OA
BRANCH  13  14
ATOM     14  C   UNL     1       1.427   8.512  19.995  0.00  0.00    +0.000 A 
ATOM     15  C   UNL     1       1.495   8.819  18.633  0.00  0.00    +0.000 A 
ATOM     16  C   UNL     1       0.650   9.793  18.094  0.00  0.00    +0.000 A 
ATOM     17  C   UNL     1      -0.307  10.428  18.895  0.00  0.00    +0.000 A 
ATOM     18  C   UNL     1      -0.430  10.042  20.239  0.00  0.00    +0.000 A 
ATOM     19  C   UNL     1       0.435   9.090  20.785  0.00  0.00    +0.000 A 
BRANCH  17  20
ATOM     20  C   UNL     1      -1.189  11.517  18.330  0.00  0.00    +0.000 C 
ATOM     21  F   UNL     1      -1.815  11.162  17.175  0.00  0.00    +0.000 F 
ATOM     22  F   UNL     1      -2.173  11.892  19.195  0.00  0.00    +0.000 F 
ATOM     23  F   UNL     1      -0.489  12.649  18.040  0.00  0.00    +0.000 F 
ENDBRANCH  17  20
ENDBRANCH  13  14
ENDBRANCH   5  13
BRANCH  12  24
ATOM     24  C   UNL     1       4.336   3.613  16.800  0.00  0.00    +0.000 C 
BRANCH  24  25
ATOM     25  C   UNL     1       5.331   4.753  16.795  0.00  0.00    +0.000 A 
ATOM     26  N   UNL     1       4.849   6.008  16.925  0.00  0.00    +0.000 NA
ATOM     27  C   UNL     1       5.764   6.995  16.987  0.00  0.00    +0.000 A 
ATOM     28  C   UNL     1       7.119   6.784  16.920  0.00  0.00    +0.000 A 
ATOM     29  C   UNL     1       7.509   5.473  16.778  0.00  0.00    +0.000 A 
ATOM     30  N   UNL     1       6.642   4.447  16.717  0.00  0.00    +0.000 NA
ENDBRANCH  24  25
ENDBRANCH  12  24
TORSDOF 5
ENDMDL
MODEL 4
REMARK VINA RESULT:      -8.2      0.155      1.097
REMARK  Name = 
REMARK  5 active torsions:
REMARK  status: ('A' for Active; 'I' for Inactive)
REMARK    1  A    between atoms: C_5  and  O_6
REMARK    2  A    between atoms: O_6  and  C_7
REMARK    3  A    between atoms: C_10  and  C_11
REMARK    4  A    between atoms: N_23  and  C_24
REMARK    5  A    between atoms: C_24  and  C_25
REMARK                            x       y       z     vdW  Elec       q    Type
REMARK                         _______ _______ _______ _____ _____    ______ ____
ROOT
ATOM      1  O   UNL     1       5.480   3.880  19.606  0.00  0.00    +0.000 OA
ATOM      2  C   UNL     1       4.376   3.523  19.208  0.00  0.00    +0.000 C 
ATOM      3  C   UNL     1       3.163   4.194  19.733  0.00  0.00    +0.000 A 
ATOM      4  C   UNL     1       3.260   5.578  19.945  0.00  0.00    +0.000 A 
ATOM      5  C   UNL     1       2.150   6.309  20.370  0.00  0.00    +0.000 A 
ATOM      6  C   UNL     1       0.929   5.658  20.561  0.00  0.00    +0.000 A 
ATOM      7  C   UNL     1       0.842   4.273  20.406  0.00  0.00    +0.000 A 
ATOM      8  C   UNL     1       1.950   3.545  19.965  0.00  0.00    +0.000 A 
ATOM      9  O   UNL     1       1.771   2.197  19.840  0.00  0.00    +0.000 OA
ATOM     10  C   UNL     1       1.931   1.775  18.481  0.00  0.00    +0.000 C 
ATOM     11  C   UNL     1       3.402   1.519  18.165  0.00  0.00    +0.000 C 
ATOM     12  N   UNL     1       4.219   2.724  18.083  0.00  0.00    +0.000 N 
ENDROOT
BRANCH   5  13
ATOM     13  O   UNL     1       2.347   7.665  20.507  0.00  0.00    +0.000 OA
BRANCH  13  14
ATOM     14  C   UNL     1       1.427   8.550  19.992  0.00  0.00    +0.000 A 
ATOM     15  C   UNL     1       0.433   9.170  20.754  0.00  0.00    +0.000 A 
ATOM     16  C   UNL     1      -0.502  10.004  20.137  0.00  0.00    +0.000 A 
ATOM     17  C   UNL     1      -0.421  10.273  18.765  0.00  0.00    +0.000 A 
ATOM     18  C   UNL     1       0.638   9.721  18.028  0.00  0.00    +0.000 A 
ATOM     19  C   UNL     1       1.556   8.863  18.640  0.00  0.00    +0.000 A 
BRANCH  17  20
ATOM     20  C   UNL     1      -1.458  11.134  18.083  0.00  0.00    +0.000 C 
ATOM     21  F   UNL     1      -1.813  10.681  16.850  0.00  0.00    +0.000 F 
ATOM     22  F   UNL     1      -2.614  11.225  18.801  0.00  0.00    +0.000 F 
ATOM     23  F   UNL     1      -1.027  12.412  17.898  0.00  0.00    +0.000 F 
ENDBRANCH  17  20
ENDBRANCH  13  14
ENDBRANCH   5  13
BRANCH  12  24
ATOM     24  C   UNL     1       4.273   3.470  16.820  0.00  0.00    +0.000 C 
BRANCH  24  25
ATOM     25  C   UNL     1       5.282   4.595  16.753  0.00  0.00    +0.000 A 
ATOM     26  N   UNL     1       6.573   4.268  16.523  0.00  0.00    +0.000 NA
ATOM     27  C   UNL     1       7.435   5.296  16.399  0.00  0.00    +0.000 A 
ATOM     28  C   UNL     1       7.068   6.616  16.499  0.00  0.00    +0.000 A 
ATOM     29  C   UNL     1       5.735   6.844  16.743  0.00  0.00    +0.000 A 
ATOM     30  N   UNL     1       4.828   5.860  16.870  0.00  0.00    +0.000 NA
ENDBRANCH  24  25
ENDBRANCH  12  24
TORSDOF 5
ENDMDL
MODEL 5
REMARK VINA RESULT:      -8.2      1.646      2.312
REMARK  Name = 
REMARK  5 active torsions:
REMARK  status: ('A' for Active; 'I' for Inactive)
REMARK    1  A    between atoms: C_5  and  O_6
REMARK    2  A    between atoms: O_6  and  C_7
REMARK    3  A    between atoms: C_10  and  C_11
REMARK    4  A    between atoms: N_23  and  C_24
REMARK    5  A    between atoms: C_24  and  C_25
REMARK                            x       y       z     vdW  Elec       q    Type
REMARK                         _______ _______ _______ _____ _____    ______ ____
ROOT
ATOM      1  O   UNL     1       5.454   4.110  19.471  0.00  0.00    +0.000 OA
ATOM      2  C   UNL     1       4.334   3.675  19.222  0.00  0.00    +0.000 C 
ATOM      3  C   UNL     1       3.144   4.390  19.741  0.00  0.00    +0.000 A 
ATOM      4  C   UNL     1       3.211   5.793  19.738  0.00  0.00    +0.000 A 
ATOM      5  C   UNL     1       2.115   6.555  20.141  0.00  0.00    +0.000 A 
ATOM      6  C   UNL     1       0.935   5.915  20.526  0.00  0.00    +0.000 A 
ATOM      7  C   UNL     1       0.883   4.520  20.584  0.00  0.00    +0.000 A 
ATOM      8  C   UNL     1       1.975   3.758  20.165  0.00  0.00    +0.000 A 
ATOM      9  O   UNL     1       1.832   2.403  20.256  0.00  0.00    +0.000 OA
ATOM     10  C   UNL     1       1.899   1.786  18.965  0.00  0.00    +0.000 C 
ATOM     11  C   UNL     1       3.349   1.518  18.570  0.00  0.00    +0.000 C 
ATOM     12  N   UNL     1       4.116   2.714  18.244  0.00  0.00    +0.000 N 
ENDROOT
BRANCH   5  13
ATOM     13  O   UNL     1       2.276   7.921  20.060  0.00  0.00    +0.000 OA
BRANCH  13  14
ATOM     14  C   UNL     1       1.336   8.760  20.613  0.00  0.00    +0.000 A 
ATOM     15  C   UNL     1       0.469   9.559  19.863  0.00  0.00    +0.000 A 
ATOM     16  C   UNL     1      -0.409  10.433  20.508  0.00  0.00    +0.000 A 
ATOM     17  C   UNL     1      -0.471  10.477  21.906  0.00  0.00    +0.000 A 
ATOM     18  C   UNL     1       0.336   9.601  22.648  0.00  0.00    +0.000 A 
ATOM     19  C   UNL     1       1.236   8.749  22.003  0.00  0.00    +0.000 A 
BRANCH  17  20
ATOM     20  C   UNL     1      -1.383  11.456  22.609  0.00  0.00    +0.000 C 
ATOM     21  F   UNL     1      -2.062  10.910  23.654  0.00  0.00    +0.000 F 
ATOM     22  F   UNL     1      -0.708  12.528  23.112  0.00  0.00    +0.000 F 
ATOM     23  F   UNL     1      -2.333  11.966  21.775  0.00  0.00    +0.000 F 
ENDBRANCH  17  20
ENDBRANCH  13  14
ENDBRANCH   5  13
BRANCH  12  24
ATOM     24  C   UNL     1       4.045   3.263  16.885  0.00  0.00    +0.000 C 
BRANCH  24  25
ATOM     25  C   UNL     1       5.070   4.322  16.540  0.00  0.00    +0.000 A 
ATOM     26  N   UNL     1       4.677   5.614  16.584  0.00  0.00    +0.000 NA
ATOM     27  C   UNL     1       5.629   6.535  16.340  0.00  0.00    +0.000 A 
ATOM     28  C   UNL     1       6.936   6.224  16.053  0.00  0.00    +0.000 A 
ATOM     29  C   UNL     1       7.233   4.883  16.022  0.00  0.00    +0.000 A 
ATOM     30  N   UNL     1       6.327   3.919  16.263  0.00  0.00    +0.000 NA
ENDBRANCH  24  25
ENDBRANCH  12  24
TORSDOF 5
ENDMDL
MODEL 6
REMARK VINA RESULT:      -8.1      2.495      3.455
REMARK  Name = 
REMARK  5 active torsions:
REMARK  status: ('A' for Active; 'I' for Inactive)
REMARK    1  A    between atoms: C_5  and  O_6
REMARK    2  A    between atoms: O_6  and  C_7
REMARK    3  A    between atoms: C_10  and  C_11
REMARK    4  A    between atoms: N_23  and  C_24
REMARK    5  A    between atoms: C_24  and  C_25
REMARK                            x       y       z     vdW  Elec       q    Type
REMARK                         _______ _______ _______ _____ _____    ______ ____
ROOT
ATOM      1  O   UNL     1       6.323   7.269  16.574  0.00  0.00    +0.000 OA
ATOM      2  C   UNL     1       5.661   6.368  17.080  0.00  0.00    +0.000 C 
ATOM      3  C   UNL     1       4.441   6.708  17.851  0.00  0.00    +0.000 A 
ATOM      4  C   UNL     1       3.660   7.761  17.348  0.00  0.00    +0.000 A 
ATOM      5  C   UNL     1       2.458   8.108  17.963  0.00  0.00    +0.000 A 
ATOM      6  C   UNL     1       2.019   7.384  19.074  0.00  0.00    +0.000 A 
ATOM      7  C   UNL     1       2.819   6.374  19.612  0.00  0.00    +0.000 A 
ATOM      8  C   UNL     1       4.015   6.016  18.985  0.00  0.00    +0.000 A 
ATOM      9  O   UNL     1       4.730   5.017  19.581  0.00  0.00    +0.000 OA
ATOM     10  C   UNL     1       4.845   3.877  18.721  0.00  0.00    +0.000 C 
ATOM     11  C   UNL     1       6.029   4.036  17.770  0.00  0.00    +0.000 C 
ATOM     12  N   UNL     1       5.833   5.036  16.727  0.00  0.00    +0.000 N 
ENDROOT
BRANCH   5  13
ATOM     13  O   UNL     1       1.753   9.128  17.363  0.00  0.00    +0.000 OA
BRANCH  13  14
ATOM     14  C   UNL     1       0.953   9.952  18.120  0.00  0.00    +0.000 A 
ATOM     15  C   UNL     1       1.445  10.952  18.964  0.00  0.00    +0.000 A 
ATOM     16  C   UNL     1       0.564  11.699  19.749  0.00  0.00    +0.000 A 
ATOM     17  C   UNL     1      -0.819  11.495  19.659  0.00  0.00    +0.000 A 
ATOM     18  C   UNL     1      -1.306  10.555  18.739  0.00  0.00    +0.000 A 
ATOM     19  C   UNL     1      -0.423   9.787  17.975  0.00  0.00    +0.000 A 
BRANCH  17  20
ATOM     20  C   UNL     1      -1.773  12.265  20.542  0.00  0.00    +0.000 C 
ATOM     21  F   UNL     1      -1.953  11.701  21.767  0.00  0.00    +0.000 F 
ATOM     22  F   UNL     1      -1.357  13.543  20.770  0.00  0.00    +0.000 F 
ATOM     23  F   UNL     1      -3.016  12.365  19.993  0.00  0.00    +0.000 F 
ENDBRANCH  17  20
ENDBRANCH  13  14
ENDBRANCH   5  13
BRANCH  12  24
ATOM     24  C   UNL     1       5.135   4.659  15.493  0.00  0.00    +0.000 C 
BRANCH  24  25
ATOM     25  C   UNL     1       6.001   4.480  14.265  0.00  0.00    +0.000 A 
ATOM     26  N   UNL     1       5.592   3.593  13.332  0.00  0.00    +0.000 NA
ATOM     27  C   UNL     1       6.348   3.507  12.219  0.00  0.00    +0.000 A 
ATOM     28  C   UNL     1       7.480   4.256  12.006  0.00  0.00    +0.000 A 
ATOM     29  C   UNL     1       7.817   5.121  13.018  0.00  0.00    +0.000 A 
ATOM     30  N   UNL     1       7.099   5.255  14.147  0.00  0.00    +0.000 NA
ENDBRANCH  24  25
ENDBRANCH  12  24
TORSDOF 5
ENDMDL
MODEL 7
REMARK VINA RESULT:      -8.1      2.448      3.426
REMARK  Name = 
REMARK  5 active torsions:
REMARK  status: ('A' for Active; 'I' for Inactive)
REMARK    1  A    between atoms: C_5  and  O_6
REMARK    2  A    between atoms: O_6  and  C_7
REMARK    3  A    between atoms: C_10  and  C_11
REMARK    4  A    between atoms: N_23  and  C_24
REMARK    5  A    between atoms: C_24  and  C_25
REMARK                            x       y       z     vdW  Elec       q    Type
REMARK                         _______ _______ _______ _____ _____    ______ ____
ROOT
ATOM      1  O   UNL     1       6.301   7.268  16.617  0.00  0.00    +0.000 OA
ATOM      2  C   UNL     1       5.621   6.372  17.107  0.00  0.00    +0.000 C 
ATOM      3  C   UNL     1       4.398   6.721  17.867  0.00  0.00    +0.000 A 
ATOM      4  C   UNL     1       3.637   7.789  17.365  0.00  0.00    +0.000 A 
ATOM      5  C   UNL     1       2.432   8.147  17.970  0.00  0.00    +0.000 A 
ATOM      6  C   UNL     1       1.971   7.419  19.069  0.00  0.00    +0.000 A 
ATOM      7  C   UNL     1       2.751   6.393  19.607  0.00  0.00    +0.000 A 
ATOM      8  C   UNL     1       3.949   6.025  18.990  0.00  0.00    +0.000 A 
ATOM      9  O   UNL     1       4.643   5.010  19.585  0.00  0.00    +0.000 OA
ATOM     10  C   UNL     1       4.753   3.877  18.716  0.00  0.00    +0.000 C 
ATOM     11  C   UNL     1       5.949   4.029  17.780  0.00  0.00    +0.000 C 
ATOM     12  N   UNL     1       5.780   5.041  16.744  0.00  0.00    +0.000 N 
ENDROOT
BRANCH   5  13
ATOM     13  O   UNL     1       1.748   9.182  17.371  0.00  0.00    +0.000 OA
BRANCH  13  14
ATOM     14  C   UNL     1       0.777   9.861  18.069  0.00  0.00    +0.000 A 
ATOM     15  C   UNL     1      -0.594   9.703  17.849  0.00  0.00    +0.000 A 
ATOM     16  C   UNL     1      -1.511  10.484  18.557  0.00  0.00    +0.000 A 
ATOM     17  C   UNL     1      -1.072  11.389  19.532  0.00  0.00    +0.000 A 
ATOM     18  C   UNL     1       0.301  11.470  19.812  0.00  0.00    +0.000 A 
ATOM     19  C   UNL     1       1.219  10.710  19.082  0.00  0.00    +0.000 A 
BRANCH  17  20
ATOM     20  C   UNL     1      -2.054  12.272  20.266  0.00  0.00    +0.000 C 
ATOM     21  F   UNL     1      -3.324  12.186  19.785  0.00  0.00    +0.000 F 
ATOM     22  F   UNL     1      -2.130  11.975  21.595  0.00  0.00    +0.000 F 
ATOM     23  F   UNL     1      -1.717  13.590  20.193  0.00  0.00    +0.000 F 
ENDBRANCH  17  20
ENDBRANCH  13  14
ENDBRANCH   5  13
BRANCH  12  24
ATOM     24  C   UNL     1       5.091   4.684  15.499  0.00  0.00    +0.000 C 
BRANCH  24  25
ATOM     25  C   UNL     1       5.970   4.494  14.282  0.00  0.00    +0.000 A 
ATOM     26  N   UNL     1       5.562   3.611  13.344  0.00  0.00    +0.000 NA
ATOM     27  C   UNL     1       6.329   3.516  12.241  0.00  0.00    +0.000 A 
ATOM     28  C   UNL     1       7.472   4.251  12.041  0.00  0.00    +0.000 A 
ATOM     29  C   UNL     1       7.808   5.114  13.057  0.00  0.00    +0.000 A 
ATOM     30  N   UNL     1       7.078   5.257  14.177  0.00  0.00    +0.000 NA
ENDBRANCH  24  25
ENDBRANCH  12  24
TORSDOF 5
ENDMDL
MODEL 8
REMARK VINA RESULT:      -8.1      4.987      8.483
REMARK  Name = 
REMARK  5 active torsions:
REMARK  status: ('A' for Active; 'I' for Inactive)
REMARK    1  A    between atoms: C_5  and  O_6
REMARK    2  A    between atoms: O_6  and  C_7
REMARK    3  A    between atoms: C_10  and  C_11
REMARK    4  A    between atoms: N_23  and  C_24
REMARK    5  A    between atoms: C_24  and  C_25
REMARK                            x       y       z     vdW  Elec       q    Type
REMARK                         _______ _______ _______ _____ _____    ______ ____
ROOT
ATOM      1  O   UNL     1      -1.626  10.216  18.092  0.00  0.00    +0.000 OA
ATOM      2  C   UNL     1      -1.267  10.846  19.082  0.00  0.00    +0.000 C 
ATOM      3  C   UNL     1      -0.424  10.179  20.102  0.00  0.00    +0.000 A 
ATOM      4  C   UNL     1       0.552   9.293  19.620  0.00  0.00    +0.000 A 
ATOM      5  C   UNL     1       1.440   8.672  20.498  0.00  0.00    +0.000 A 
ATOM      6  C   UNL     1       1.369   8.955  21.864  0.00  0.00    +0.000 A 
ATOM      7  C   UNL     1       0.364   9.792  22.354  0.00  0.00    +0.000 A 
ATOM      8  C   UNL     1      -0.514  10.426  21.472  0.00  0.00    +0.000 A 
ATOM      9  O   UNL     1      -1.462  11.227  22.042  0.00  0.00    +0.000 OA
ATOM     10  C   UNL     1      -1.303  12.591  21.635  0.00  0.00    +0.000 C 
ATOM     11  C   UNL     1      -2.013  12.844  20.308  0.00  0.00    +0.000 C 
ATOM     12  N   UNL     1      -1.369  12.230  19.153  0.00  0.00    +0.000 N 
ENDROOT
BRANCH   5  13
ATOM     13  O   UNL     1       2.382   7.854  19.914  0.00  0.00    +0.000 OA
BRANCH  13  14
ATOM     14  C   UNL     1       2.090   6.533  19.667  0.00  0.00    +0.000 A 
ATOM     15  C   UNL     1       1.592   5.652  20.631  0.00  0.00    +0.000 A 
ATOM     16  C   UNL     1       1.387   4.308  20.311  0.00  0.00    +0.000 A 
ATOM     17  C   UNL     1       1.622   3.841  19.011  0.00  0.00    +0.000 A 
ATOM     18  C   UNL     1       2.030   4.755  18.027  0.00  0.00    +0.000 A 
ATOM     19  C   UNL     1       2.265   6.093  18.355  0.00  0.00    +0.000 A 
BRANCH  17  20
ATOM     20  C   UNL     1       1.450   2.380  18.672  0.00  0.00    +0.000 C 
ATOM     21  F   UNL     1       2.126   2.000  17.554  0.00  0.00    +0.000 F 
ATOM     22  F   UNL     1       1.878   1.558  19.672  0.00  0.00    +0.000 F 
ATOM     23  F   UNL     1       0.147   2.053  18.447  0.00  0.00    +0.000 F 
ENDBRANCH  17  20
ENDBRANCH  13  14
ENDBRANCH   5  13
BRANCH  12  24
ATOM     24  C   UNL     1      -0.271  12.936  18.483  0.00  0.00    +0.000 C 
BRANCH  24  25
ATOM     25  C   UNL     1       0.722  13.634  19.387  0.00  0.00    +0.000 A 
ATOM     26  N   UNL     1       0.526  14.946  19.641  0.00  0.00    +0.000 NA
ATOM     27  C   UNL     1       1.386  15.521  20.504  0.00  0.00    +0.000 A 
ATOM     28  C   UNL     1       2.422  14.852  21.109  0.00  0.00    +0.000 A 
ATOM     29  C   UNL     1       2.544  13.524  20.777  0.00  0.00    +0.000 A 
ATOM     30  N   UNL     1       1.712  12.894  19.929  0.00  0.00    +0.000 NA
ENDBRANCH  24  25
ENDBRANCH  12  24
TORSDOF 5
ENDMDL
MODEL 9
REMARK VINA RESULT:      -8.0      0.233      1.253
REMARK  Name = 
REMARK  5 active torsions:
REMARK  status: ('A' for Active; 'I' for Inactive)
REMARK    1  A    between atoms: C_5  and  O_6
REMARK    2  A    between atoms: O_6  and  C_7
REMARK    3  A    between atoms: C_10  and  C_11
REMARK    4  A    between atoms: N_23  and  C_24
REMARK    5  A    between atoms: C_24  and  C_25
REMARK                            x       y       z     vdW  Elec       q    Type
REMARK                         _______ _______ _______ _____ _____    ______ ____
ROOT
ATOM      1  O   UNL     1       5.476   3.896  19.695  0.00  0.00    +0.000 OA
ATOM      2  C   UNL     1       4.390   3.538  19.252  0.00  0.00    +0.000 C 
ATOM      3  C   UNL     1       3.153   4.178  19.758  0.00  0.00    +0.000 A 
ATOM      4  C   UNL     1       3.225   5.557  20.013  0.00  0.00    +0.000 A 
ATOM      5  C   UNL     1       2.093   6.262  20.424  0.00  0.00    +0.000 A 
ATOM      6  C   UNL     1       0.876   5.591  20.558  0.00  0.00    +0.000 A 
ATOM      7  C   UNL     1       0.812   4.210  20.361  0.00  0.00    +0.000 A 
ATOM      8  C   UNL     1       1.941   3.508  19.933  0.00  0.00    +0.000 A 
ATOM      9  O   UNL     1       1.784   2.162  19.765  0.00  0.00    +0.000 OA
ATOM     10  C   UNL     1       1.991   1.782  18.400  0.00  0.00    +0.000 C 
ATOM     11  C   UNL     1       3.475   1.553  18.123  0.00  0.00    +0.000 C 
ATOM     12  N   UNL     1       4.278   2.770  18.100  0.00  0.00    +0.000 N 
ENDROOT
BRANCH   5  13
ATOM     13  O   UNL     1       2.268   7.615  20.605  0.00  0.00    +0.000 OA
BRANCH  13  14
ATOM     14  C   UNL     1       1.427   8.509  19.982  0.00  0.00    +0.000 A 
ATOM     15  C   UNL     1       1.461   8.783  18.612  0.00  0.00    +0.000 A 
ATOM     16  C   UNL     1       0.615   9.756  18.073  0.00  0.00    +0.000 A 
ATOM     17  C   UNL     1      -0.311  10.423  18.884  0.00  0.00    +0.000 A 
ATOM     18  C   UNL     1      -0.403  10.070  20.240  0.00  0.00    +0.000 A 
ATOM     19  C   UNL     1       0.464   9.119  20.784  0.00  0.00    +0.000 A 
BRANCH  17  20
ATOM     20  C   UNL     1      -1.194  11.510  18.317  0.00  0.00    +0.000 C 
ATOM     21  F   UNL     1      -0.530  12.671  18.067  0.00  0.00    +0.000 F 
ATOM     22  F   UNL     1      -1.779  11.146  17.140  0.00  0.00    +0.000 F 
ATOM     23  F   UNL     1      -2.213  11.838  19.159  0.00  0.00    +0.000 F 
ENDBRANCH  17  20
ENDBRANCH  13  14
ENDBRANCH   5  13
BRANCH  12  24
ATOM     24  C   UNL     1       4.361   3.552  16.862  0.00  0.00    +0.000 C 
BRANCH  24  25
ATOM     25  C   UNL     1       5.331   4.713  16.870  0.00  0.00    +0.000 A 
ATOM     26  N   UNL     1       6.645   4.435  16.726  0.00  0.00    +0.000 NA
ATOM     27  C   UNL     1       7.476   5.494  16.668  0.00  0.00    +0.000 A 
ATOM     28  C   UNL     1       7.056   6.799  16.751  0.00  0.00    +0.000 A 
ATOM     29  C   UNL     1       5.702   6.977  16.907  0.00  0.00    +0.000 A 
ATOM     30  N   UNL     1       4.824   5.960  16.965  0.00  0.00    +0.000 NA
ENDBRANCH  24  25
ENDBRANCH  12  24
TORSDOF 5
ENDMDL
