MODEL 1
REMARK VINA RESULT:      -8.0      0.000      0.000
REMARK  Name = 
REMARK  5 active torsions:
REMARK  status: ('A' for Active; 'I' for Inactive)
REMARK    1  A    between atoms: C_1  and  C_2
REMARK    2  A    between atoms: C_4  and  N_5
REMARK    3  A    between atoms: N_5  and  C_6
REMARK    4  A    between atoms: C_12  and  C_13
REMARK    5  A    between atoms: C_17  and  C_18
REMARK                            x       y       z     vdW  Elec       q    Type
REMARK                         _______ _______ _______ _____ _____    ______ ____
ROOT
ATOM      1  C   UNL     1       3.248   5.082  18.556  0.00  0.00    +0.000 A 
ATOM      2  N   UNL     1       3.368   3.928  19.270  0.00  0.00    +0.000 NA
ATOM      3  C   UNL     1       2.805   3.780  20.481  0.00  0.00    +0.000 A 
ATOM      4  C   UNL     1       2.050   4.750  21.093  0.00  0.00    +0.000 A 
ATOM      5  C   UNL     1       1.930   5.961  20.412  0.00  0.00    +0.000 A 
ATOM      6  N   UNL     1       1.177   7.028  20.850  0.00  0.00    +0.000 NA
ATOM      7  C   UNL     1       1.301   8.063  20.048  0.00  0.00    +0.000 A 
ATOM      8  S   UNL     1       2.341   7.784  18.702  0.00  0.00    +0.000 S 
ATOM      9  C   UNL     1       2.572   6.144  19.189  0.00  0.00    +0.000 A 
ENDROOT
BRANCH   7  10
ATOM     10  C   UNL     1       0.639   9.354  20.325  0.00  0.00    +0.000 A 
ATOM     11  C   UNL     1       0.657   9.878  21.640  0.00  0.00    +0.000 A 
ATOM     12 CL   UNL     1       1.590   9.186  22.934  0.00  0.00    +0.000 Cl
ATOM     13  C   UNL     1      -0.079  11.023  21.989  0.00  0.00    +0.000 A 
ATOM     14  C   UNL     1      -0.838  11.719  21.047  0.00  0.00    +0.000 A 
ATOM     15  C   UNL     1      -0.831  11.225  19.739  0.00  0.00    +0.000 A 
ATOM     16  C   UNL     1      -0.124  10.064  19.378  0.00  0.00    +0.000 A 
ATOM     17 CL   UNL     1      -0.346   9.566  17.732  0.00  0.00    +0.000 Cl
BRANCH  14  18
ATOM     18  C   UNL     1      -1.672  12.914  21.429  0.00  0.00    +0.000 C 
ATOM     19  C   UNL     1      -2.997  13.179  20.756  0.00  0.00    +0.000 C 
ATOM     20  C   UNL     1      -2.968  12.708  22.178  0.00  0.00    +0.000 C 
ENDBRANCH  14  18
ENDBRANCH   7  10
BRANCH   1  21
ATOM     21  N   UNL     1       3.728   5.164  17.241  0.00  0.00    +0.000 N 
ATOM     22  H   UNL     1       3.366   4.460  16.612  0.00  0.00    +0.000 HD
BRANCH  21  26
ATOM     23  C   UNL     1       7.844   7.851  17.672  0.00  0.00    +0.000 C 
ATOM     24  C   UNL     1       7.028   6.774  17.022  0.00  0.00    +0.000 A 
ATOM     25  C   UNL     1       5.716   6.580  17.400  0.00  0.00    +0.000 A 
ATOM     26  C   UNL     1       5.023   5.525  16.838  0.00  0.00    +0.000 A 
ATOM     27  N   UNL     1       5.584   4.758  15.884  0.00  0.00    +0.000 NA
ATOM     28  C   UNL     1       6.855   5.045  15.556  0.00  0.00    +0.000 A 
ATOM     29  N   UNL     1       7.621   6.009  16.088  0.00  0.00    +0.000 NA
ENDBRANCH  21  26
ENDBRANCH   1  21
TORSDOF 4
ENDMDL
MODEL 2
REMARK VINA RESULT:      -7.8      0.970      1.528
REMARK  Name = 
REMARK  5 active torsions:
REMARK  status: ('A' for Active; 'I' for Inactive)
REMARK    1  A    between atoms: C_1  and  C_2
REMARK    2  A    between atoms: C_4  and  N_5
REMARK    3  A    between atoms: N_5  and  C_6
REMARK    4  A    between atoms: C_12  and  C_13
REMARK    5  A    between atoms: C_17  and  C_18
REMARK                            x       y       z     vdW  Elec       q    Type
REMARK                         _______ _______ _______ _____ _____    ______ ____
ROOT
ATOM      1  C   UNL     1       3.315   5.798  18.515  0.00  0.00    +0.000 A 
ATOM      2  N   UNL     1       3.466   4.578  19.103  0.00  0.00    +0.000 NA
ATOM      3  C   UNL     1       2.838   4.259  20.247  0.00  0.00    +0.000 A 
ATOM      4  C   UNL     1       1.983   5.106  20.908  0.00  0.00    +0.000 A 
ATOM      5  C   UNL     1       1.826   6.378  20.358  0.00  0.00    +0.000 A 
ATOM      6  N   UNL     1       0.978   7.341  20.858  0.00  0.00    +0.000 NA
ATOM      7  C   UNL     1       1.084   8.468  20.187  0.00  0.00    +0.000 A 
ATOM      8  S   UNL     1       2.223   8.407  18.895  0.00  0.00    +0.000 S 
ATOM      9  C   UNL     1       2.531   6.738  19.212  0.00  0.00    +0.000 A 
ENDROOT
BRANCH   7  10
ATOM     10  C   UNL     1       0.321   9.677  20.558  0.00  0.00    +0.000 A 
ATOM     11  C   UNL     1       0.274  10.082  21.913  0.00  0.00    +0.000 A 
ATOM     12 CL   UNL     1       1.232   9.350  23.166  0.00  0.00    +0.000 Cl
ATOM     13  C   UNL     1      -0.552  11.135  22.341  0.00  0.00    +0.000 A 
ATOM     14  C   UNL     1      -1.344  11.853  21.445  0.00  0.00    +0.000 A 
ATOM     15  C   UNL     1      -1.275  11.479  20.099  0.00  0.00    +0.000 A 
ATOM     16  C   UNL     1      -0.476  10.409  19.657  0.00  0.00    +0.000 A 
ATOM     17 CL   UNL     1      -0.628  10.044  17.969  0.00  0.00    +0.000 Cl
BRANCH  14  18
ATOM     18  C   UNL     1      -2.273  12.946  21.907  0.00  0.00    +0.000 C 
ATOM     19  C   UNL     1      -3.446  13.374  21.059  0.00  0.00    +0.000 C 
ATOM     20  C   UNL     1      -3.684  12.597  22.319  0.00  0.00    +0.000 C 
ENDBRANCH  14  18
ENDBRANCH   7  10
BRANCH   1  21
ATOM     21  N   UNL     1       3.871   6.058  17.254  0.00  0.00    +0.000 N 
ATOM     22  H   UNL     1       3.198   6.179  16.510  0.00  0.00    +0.000 HD
BRANCH  21  26
ATOM     23  C   UNL     1       6.468   3.940  13.633  0.00  0.00    +0.000 C 
ATOM     24  C   UNL     1       6.347   4.522  15.009  0.00  0.00    +0.000 A 
ATOM     25  C   UNL     1       5.113   4.908  15.488  0.00  0.00    +0.000 A 
ATOM     26  C   UNL     1       5.055   5.517  16.727  0.00  0.00    +0.000 A 
ATOM     27  N   UNL     1       6.159   5.654  17.485  0.00  0.00    +0.000 NA
ATOM     28  C   UNL     1       7.311   5.216  16.948  0.00  0.00    +0.000 A 
ATOM     29  N   UNL     1       7.471   4.668  15.734  0.00  0.00    +0.000 NA
ENDBRANCH  21  26
ENDBRANCH   1  21
TORSDOF 4
ENDMDL
MODEL 3
REMARK VINA RESULT:      -7.7      1.076      2.389
REMARK  Name = 
REMARK  5 active torsions:
REMARK  status: ('A' for Active; 'I' for Inactive)
REMARK    1  A    between atoms: C_1  and  C_2
REMARK    2  A    between atoms: C_4  and  N_5
REMARK    3  A    between atoms: N_5  and  C_6
REMARK    4  A    between atoms: C_12  and  C_13
REMARK    5  A    between atoms: C_17  and  C_18
REMARK                            x       y       z     vdW  Elec       q    Type
REMARK                         _______ _______ _______ _____ _____    ______ ____
ROOT
ATOM      1  C   UNL     1       3.249   6.411  18.712  0.00  0.00    +0.000 A 
ATOM      2  N   UNL     1       3.478   5.166  19.215  0.00  0.00    +0.000 NA
ATOM      3  C   UNL     1       2.822   4.703  20.292  0.00  0.00    +0.000 A 
ATOM      4  C   UNL     1       1.860   5.417  20.962  0.00  0.00    +0.000 A 
ATOM      5  C   UNL     1       1.618   6.711  20.501  0.00  0.00    +0.000 A 
ATOM      6  N   UNL     1       0.660   7.554  21.019  0.00  0.00    +0.000 NA
ATOM      7  C   UNL     1       0.699   8.736  20.442  0.00  0.00    +0.000 A 
ATOM      8  S   UNL     1       1.906   8.878  19.221  0.00  0.00    +0.000 S 
ATOM      9  C   UNL     1       2.347   7.221  19.429  0.00  0.00    +0.000 A 
ENDROOT
BRANCH   7  10
ATOM     10  C   UNL     1      -0.190   9.841  20.858  0.00  0.00    +0.000 A 
ATOM     11  C   UNL     1      -0.817  10.639  19.872  0.00  0.00    +0.000 A 
ATOM     12 CL   UNL     1      -0.765  10.277  18.171  0.00  0.00    +0.000 Cl
ATOM     13  C   UNL     1      -1.551  11.788  20.208  0.00  0.00    +0.000 A 
ATOM     14  C   UNL     1      -1.725  12.181  21.536  0.00  0.00    +0.000 A 
ATOM     15  C   UNL     1      -1.136  11.376  22.516  0.00  0.00    +0.000 A 
ATOM     16  C   UNL     1      -0.373  10.239  22.196  0.00  0.00    +0.000 A 
ATOM     17 CL   UNL     1       0.359   9.455  23.557  0.00  0.00    +0.000 Cl
BRANCH  14  18
ATOM     18  C   UNL     1      -2.464  13.443  21.898  0.00  0.00    +0.000 C 
ATOM     19  C   UNL     1      -3.736  13.827  21.180  0.00  0.00    +0.000 C 
ATOM     20  C   UNL     1      -3.800  13.347  22.598  0.00  0.00    +0.000 C 
ENDBRANCH  14  18
ENDBRANCH   7  10
BRANCH   1  21
ATOM     21  N   UNL     1       3.845   6.819  17.510  0.00  0.00    +0.000 N 
ATOM     22  H   UNL     1       3.197   7.030  16.764  0.00  0.00    +0.000 HD
BRANCH  21  26
ATOM     23  C   UNL     1       6.393   4.195  14.198  0.00  0.00    +0.000 C 
ATOM     24  C   UNL     1       6.312   5.117  15.377  0.00  0.00    +0.000 A 
ATOM     25  C   UNL     1       5.086   5.425  15.929  0.00  0.00    +0.000 A 
ATOM     26  C   UNL     1       5.047   6.343  16.961  0.00  0.00    +0.000 A 
ATOM     27  N   UNL     1       6.179   6.858  17.474  0.00  0.00    +0.000 NA
ATOM     28  C   UNL     1       7.328   6.472  16.894  0.00  0.00    +0.000 A 
ATOM     29  N   UNL     1       7.458   5.635  15.854  0.00  0.00    +0.000 NA
ENDBRANCH  21  26
ENDBRANCH   1  21
TORSDOF 4
ENDMDL
MODEL 4
REMARK VINA RESULT:      -7.6      3.189      8.735
REMARK  Name = 
REMARK  5 active torsions:
REMARK  status: ('A' for Active; 'I' for Inactive)
REMARK    1  A    between atoms: C_1  and  C_2
REMARK    2  A    between atoms: C_4  and  N_5
REMARK    3  A    between atoms: N_5  and  C_6
REMARK    4  A    between atoms: C_12  and  C_13
REMARK    5  A    between atoms: C_17  and  C_18
REMARK                            x       y       z     vdW  Elec       q    Type
REMARK                         _______ _______ _______ _____ _____    ______ ____
ROOT
ATOM      1  C   UNL     1       0.348   9.917  19.778  0.00  0.00    +0.000 A 
ATOM      2  N   UNL     1      -0.008   9.973  21.092  0.00  0.00    +0.000 NA
ATOM      3  C   UNL     1       0.465   9.097  21.994  0.00  0.00    +0.000 A 
ATOM      4  C   UNL     1       1.353   8.095  21.689  0.00  0.00    +0.000 A 
ATOM      5  C   UNL     1       1.718   7.980  20.348  0.00  0.00    +0.000 A 
ATOM      6  N   UNL     1       2.630   7.067  19.866  0.00  0.00    +0.000 NA
ATOM      7  C   UNL     1       2.728   7.134  18.556  0.00  0.00    +0.000 A 
ATOM      8  S   UNL     1       1.716   8.330  17.839  0.00  0.00    +0.000 S 
ATOM      9  C   UNL     1       1.174   8.841  19.397  0.00  0.00    +0.000 A 
ENDROOT
BRANCH   7  10
ATOM     10  C   UNL     1       3.598   6.220  17.787  0.00  0.00    +0.000 A 
ATOM     11  C   UNL     1       4.808   6.706  17.240  0.00  0.00    +0.000 A 
ATOM     12 CL   UNL     1       5.448   8.286  17.582  0.00  0.00    +0.000 Cl
ATOM     13  C   UNL     1       5.597   5.923  16.380  0.00  0.00    +0.000 A 
ATOM     14  C   UNL     1       5.241   4.615  16.050  0.00  0.00    +0.000 A 
ATOM     15  C   UNL     1       4.063   4.118  16.617  0.00  0.00    +0.000 A 
ATOM     16  C   UNL     1       3.246   4.897  17.455  0.00  0.00    +0.000 A 
ATOM     17 CL   UNL     1       1.777   4.123  17.953  0.00  0.00    +0.000 Cl
BRANCH  14  18
ATOM     18  C   UNL     1       6.055   3.791  15.086  0.00  0.00    +0.000 C 
ATOM     19  C   UNL     1       5.729   3.781  13.612  0.00  0.00    +0.000 C 
ATOM     20  C   UNL     1       6.961   4.485  14.096  0.00  0.00    +0.000 C 
ENDBRANCH  14  18
ENDBRANCH   7  10
BRANCH   1  21
ATOM     21  N   UNL     1      -0.050  10.921  18.885  0.00  0.00    +0.000 N 
ATOM     22  H   UNL     1       0.305  11.844  19.096  0.00  0.00    +0.000 HD
BRANCH  21  26
ATOM     23  C   UNL     1      -3.202   9.888  15.231  0.00  0.00    +0.000 C 
ATOM     24  C   UNL     1      -2.852  10.550  16.529  0.00  0.00    +0.000 A 
ATOM     25  C   UNL     1      -1.561  10.488  17.010  0.00  0.00    +0.000 A 
ATOM     26  C   UNL     1      -1.297  11.038  18.250  0.00  0.00    +0.000 A 
ATOM     27  N   UNL     1      -2.253  11.693  18.934  0.00  0.00    +0.000 NA
ATOM     28  C   UNL     1      -3.472  11.733  18.370  0.00  0.00    +0.000 A 
ATOM     29  N   UNL     1      -3.833  11.179  17.202  0.00  0.00    +0.000 NA
ENDBRANCH  21  26
ENDBRANCH   1  21
TORSDOF 4
ENDMDL
MODEL 5
REMARK VINA RESULT:      -7.6      0.655      1.890
REMARK  Name = 
REMARK  5 active torsions:
REMARK  status: ('A' for Active; 'I' for Inactive)
REMARK    1  A    between atoms: C_1  and  C_2
REMARK    2  A    between atoms: C_4  and  N_5
REMARK    3  A    between atoms: N_5  and  C_6
REMARK    4  A    between atoms: C_12  and  C_13
REMARK    5  A    between atoms: C_17  and  C_18
REMARK                            x       y       z     vdW  Elec       q    Type
REMARK                         _______ _______ _______ _____ _____    ______ ____
ROOT
ATOM      1  C   UNL     1       3.270   4.818  18.590  0.00  0.00    +0.000 A 
ATOM      2  N   UNL     1       3.334   3.673  19.325  0.00  0.00    +0.000 NA
ATOM      3  C   UNL     1       2.768   3.575  20.539  0.00  0.00    +0.000 A 
ATOM      4  C   UNL     1       2.065   4.593  21.135  0.00  0.00    +0.000 A 
ATOM      5  C   UNL     1       2.004   5.796  20.432  0.00  0.00    +0.000 A 
ATOM      6  N   UNL     1       1.307   6.907  20.852  0.00  0.00    +0.000 NA
ATOM      7  C   UNL     1       1.481   7.921  20.031  0.00  0.00    +0.000 A 
ATOM      8  S   UNL     1       2.502   7.565  18.688  0.00  0.00    +0.000 S 
ATOM      9  C   UNL     1       2.651   5.924  19.204  0.00  0.00    +0.000 A 
ENDROOT
BRANCH   7  10
ATOM     10  C   UNL     1       0.886   9.248  20.286  0.00  0.00    +0.000 A 
ATOM     11  C   UNL     1       0.349   9.990  19.208  0.00  0.00    +0.000 A 
ATOM     12 CL   UNL     1       0.164   9.349  17.601  0.00  0.00    +0.000 Cl
ATOM     13  C   UNL     1      -0.095  11.313  19.369  0.00  0.00    +0.000 A 
ATOM     14  C   UNL     1      -0.057  11.950  20.610  0.00  0.00    +0.000 A 
ATOM     15  C   UNL     1       0.440  11.209  21.686  0.00  0.00    +0.000 A 
ATOM     16  C   UNL     1       0.916   9.894  21.537  0.00  0.00    +0.000 A 
ATOM     17 CL   UNL     1       1.594   9.204  22.976  0.00  0.00    +0.000 Cl
BRANCH  14  18
ATOM     18  C   UNL     1      -0.480  13.386  20.777  0.00  0.00    +0.000 C 
ATOM     19  C   UNL     1      -1.062  14.161  19.619  0.00  0.00    +0.000 C 
ATOM     20  C   UNL     1      -1.950  13.737  20.749  0.00  0.00    +0.000 C 
ENDBRANCH  14  18
ENDBRANCH   7  10
BRANCH   1  21
ATOM     21  N   UNL     1       3.750   4.852  17.273  0.00  0.00    +0.000 N 
ATOM     22  H   UNL     1       3.443   4.085  16.689  0.00  0.00    +0.000 HD
BRANCH  21  26
ATOM     23  C   UNL     1       7.808   7.619  17.746  0.00  0.00    +0.000 C 
ATOM     24  C   UNL     1       6.995   6.570  17.049  0.00  0.00    +0.000 A 
ATOM     25  C   UNL     1       5.705   6.310  17.461  0.00  0.00    +0.000 A 
ATOM     26  C   UNL     1       5.018   5.280  16.848  0.00  0.00    +0.000 A 
ATOM     27  N   UNL     1       5.559   4.603  15.818  0.00  0.00    +0.000 NA
ATOM     28  C   UNL     1       6.808   4.951  15.464  0.00  0.00    +0.000 A 
ATOM     29  N   UNL     1       7.569   5.894  16.038  0.00  0.00    +0.000 NA
ENDBRANCH  21  26
ENDBRANCH   1  21
TORSDOF 4
ENDMDL
MODEL 6
REMARK VINA RESULT:      -7.6      1.280      1.656
REMARK  Name = 
REMARK  5 active torsions:
REMARK  status: ('A' for Active; 'I' for Inactive)
REMARK    1  A    between atoms: C_1  and  C_2
REMARK    2  A    between atoms: C_4  and  N_5
REMARK    3  A    between atoms: N_5  and  C_6
REMARK    4  A    between atoms: C_12  and  C_13
REMARK    5  A    between atoms: C_17  and  C_18
REMARK                            x       y       z     vdW  Elec       q    Type
REMARK                         _______ _______ _______ _____ _____    ______ ____
ROOT
ATOM      1  C   UNL     1       3.243   4.527  18.687  0.00  0.00    +0.000 A 
ATOM      2  N   UNL     1       3.269   3.436  19.502  0.00  0.00    +0.000 NA
ATOM      3  C   UNL     1       2.717   3.451  20.727  0.00  0.00    +0.000 A 
ATOM      4  C   UNL     1       2.067   4.538  21.255  0.00  0.00    +0.000 A 
ATOM      5  C   UNL     1       2.047   5.689  20.468  0.00  0.00    +0.000 A 
ATOM      6  N   UNL     1       1.404   6.857  20.815  0.00  0.00    +0.000 NA
ATOM      7  C   UNL     1       1.610   7.800  19.921  0.00  0.00    +0.000 A 
ATOM      8  S   UNL     1       2.595   7.305  18.596  0.00  0.00    +0.000 S 
ATOM      9  C   UNL     1       2.681   5.700  19.227  0.00  0.00    +0.000 A 
ENDROOT
BRANCH   7  10
ATOM     10  C   UNL     1       1.076   9.168  20.086  0.00  0.00    +0.000 A 
ATOM     11  C   UNL     1       1.051   9.755  21.373  0.00  0.00    +0.000 A 
ATOM     12 CL   UNL     1       1.802   9.037  22.768  0.00  0.00    +0.000 Cl
ATOM     13  C   UNL     1       0.423  10.989  21.610  0.00  0.00    +0.000 A 
ATOM     14  C   UNL     1      -0.181  11.711  20.581  0.00  0.00    +0.000 A 
ATOM     15  C   UNL     1      -0.129  11.151  19.301  0.00  0.00    +0.000 A 
ATOM     16  C   UNL     1       0.470   9.903  19.050  0.00  0.00    +0.000 A 
ATOM     17 CL   UNL     1       0.319   9.346  17.415  0.00  0.00    +0.000 Cl
BRANCH  14  18
ATOM     18  C   UNL     1      -0.904  13.008  20.840  0.00  0.00    +0.000 C 
ATOM     19  C   UNL     1      -0.688  13.769  22.126  0.00  0.00    +0.000 C 
ATOM     20  C   UNL     1      -0.128  14.304  20.842  0.00  0.00    +0.000 C 
ENDBRANCH  14  18
ENDBRANCH   7  10
BRANCH   1  21
ATOM     21  N   UNL     1       3.705   4.445  17.366  0.00  0.00    +0.000 N 
ATOM     22  H   UNL     1       3.174   3.826  16.768  0.00  0.00    +0.000 HD
BRANCH  21  26
ATOM     23  C   UNL     1       7.157   4.856  13.865  0.00  0.00    +0.000 C 
ATOM     24  C   UNL     1       6.734   4.689  15.293  0.00  0.00    +0.000 A 
ATOM     25  C   UNL     1       5.399   4.540  15.603  0.00  0.00    +0.000 A 
ATOM     26  C   UNL     1       5.041   4.472  16.937  0.00  0.00    +0.000 A 
ATOM     27  N   UNL     1       5.976   4.465  17.905  0.00  0.00    +0.000 NA
ATOM     28  C   UNL     1       7.254   4.578  17.504  0.00  0.00    +0.000 A 
ATOM     29  N   UNL     1       7.688   4.707  16.241  0.00  0.00    +0.000 NA
ENDBRANCH  21  26
ENDBRANCH   1  21
TORSDOF 4
ENDMDL
MODEL 7
REMARK VINA RESULT:      -7.6      1.833      2.681
REMARK  Name = 
REMARK  5 active torsions:
REMARK  status: ('A' for Active; 'I' for Inactive)
REMARK    1  A    between atoms: C_1  and  C_2
REMARK    2  A    between atoms: C_4  and  N_5
REMARK    3  A    between atoms: N_5  and  C_6
REMARK    4  A    between atoms: C_12  and  C_13
REMARK    5  A    between atoms: C_17  and  C_18
REMARK                            x       y       z     vdW  Elec       q    Type
REMARK                         _______ _______ _______ _____ _____    ______ ____
ROOT
ATOM      1  C   UNL     1       3.463   3.633  19.113  0.00  0.00    +0.000 A 
ATOM      2  N   UNL     1       3.379   2.645  20.046  0.00  0.00    +0.000 NA
ATOM      3  C   UNL     1       2.737   2.822  21.213  0.00  0.00    +0.000 A 
ATOM      4  C   UNL     1       2.096   3.986  21.559  0.00  0.00    +0.000 A 
ATOM      5  C   UNL     1       2.186   5.036  20.646  0.00  0.00    +0.000 A 
ATOM      6  N   UNL     1       1.570   6.258  20.804  0.00  0.00    +0.000 NA
ATOM      7  C   UNL     1       1.884   7.082  19.827  0.00  0.00    +0.000 A 
ATOM      8  S   UNL     1       2.944   6.402  18.651  0.00  0.00    +0.000 S 
ATOM      9  C   UNL     1       2.913   4.880  19.468  0.00  0.00    +0.000 A 
ENDROOT
BRANCH   7  10
ATOM     10  C   UNL     1       1.398   8.477  19.792  0.00  0.00    +0.000 A 
ATOM     11  C   UNL     1       1.742   9.307  18.699  0.00  0.00    +0.000 A 
ATOM     12 CL   UNL     1       2.552   8.727  17.273  0.00  0.00    +0.000 Cl
ATOM     13  C   UNL     1       1.432  10.677  18.686  0.00  0.00    +0.000 A 
ATOM     14  C   UNL     1       0.740  11.280  19.736  0.00  0.00    +0.000 A 
ATOM     15  C   UNL     1       0.367  10.457  20.803  0.00  0.00    +0.000 A 
ATOM     16  C   UNL     1       0.695   9.090  20.847  0.00  0.00    +0.000 A 
ATOM     17 CL   UNL     1       0.236   8.285  22.313  0.00  0.00    +0.000 Cl
BRANCH  14  18
ATOM     18  C   UNL     1       0.453  12.760  19.751  0.00  0.00    +0.000 C 
ATOM     19  C   UNL     1       0.368  13.543  18.464  0.00  0.00    +0.000 C 
ATOM     20  C   UNL     1      -0.878  13.264  19.248  0.00  0.00    +0.000 C 
ENDBRANCH  14  18
ENDBRANCH   7  10
BRANCH   1  21
ATOM     21  N   UNL     1       4.020   3.381  17.851  0.00  0.00    +0.000 N 
ATOM     22  H   UNL     1       3.852   2.451  17.490  0.00  0.00    +0.000 HD
BRANCH  21  26
ATOM     23  C   UNL     1       6.987   4.848  14.190  0.00  0.00    +0.000 C 
ATOM     24  C   UNL     1       6.700   4.590  15.639  0.00  0.00    +0.000 A 
ATOM     25  C   UNL     1       5.511   3.999  16.012  0.00  0.00    +0.000 A 
ATOM     26  C   UNL     1       5.248   3.854  17.361  0.00  0.00    +0.000 A 
ATOM     27  N   UNL     1       6.162   4.201  18.286  0.00  0.00    +0.000 NA
ATOM     28  C   UNL     1       7.306   4.736  17.826  0.00  0.00    +0.000 A 
ATOM     29  N   UNL     1       7.622   4.967  16.543  0.00  0.00    +0.000 NA
ENDBRANCH  21  26
ENDBRANCH   1  21
TORSDOF 4
ENDMDL
MODEL 8
REMARK VINA RESULT:      -7.5      3.475      8.309
REMARK  Name = 
REMARK  5 active torsions:
REMARK  status: ('A' for Active; 'I' for Inactive)
REMARK    1  A    between atoms: C_1  and  C_2
REMARK    2  A    between atoms: C_4  and  N_5
REMARK    3  A    between atoms: N_5  and  C_6
REMARK    4  A    between atoms: C_12  and  C_13
REMARK    5  A    between atoms: C_17  and  C_18
REMARK                            x       y       z     vdW  Elec       q    Type
REMARK                         _______ _______ _______ _____ _____    ______ ____
ROOT
ATOM      1  C   UNL     1       0.841  10.127  19.853  0.00  0.00    +0.000 A 
ATOM      2  N   UNL     1       0.212  10.017  21.056  0.00  0.00    +0.000 NA
ATOM      3  C   UNL     1       0.301   8.907  21.806  0.00  0.00    +0.000 A 
ATOM      4  C   UNL     1       1.039   7.805  21.450  0.00  0.00    +0.000 A 
ATOM      5  C   UNL     1       1.673   7.861  20.209  0.00  0.00    +0.000 A 
ATOM      6  N   UNL     1       2.490   6.872  19.708  0.00  0.00    +0.000 NA
ATOM      7  C   UNL     1       2.894   7.156  18.489  0.00  0.00    +0.000 A 
ATOM      8  S   UNL     1       2.304   8.660  17.889  0.00  0.00    +0.000 S 
ATOM      9  C   UNL     1       1.523   8.983  19.396  0.00  0.00    +0.000 A 
ENDROOT
BRANCH   7  10
ATOM     10  C   UNL     1       3.735   6.228  17.705  0.00  0.00    +0.000 A 
ATOM     11  C   UNL     1       4.985   6.670  17.210  0.00  0.00    +0.000 A 
ATOM     12 CL   UNL     1       5.697   8.199  17.635  0.00  0.00    +0.000 Cl
ATOM     13  C   UNL     1       5.756   5.881  16.340  0.00  0.00    +0.000 A 
ATOM     14  C   UNL     1       5.341   4.609  15.947  0.00  0.00    +0.000 A 
ATOM     15  C   UNL     1       4.123   4.153  16.461  0.00  0.00    +0.000 A 
ATOM     16  C   UNL     1       3.324   4.941  17.309  0.00  0.00    +0.000 A 
ATOM     17 CL   UNL     1       1.803   4.227  17.736  0.00  0.00    +0.000 Cl
BRANCH  14  18
ATOM     18  C   UNL     1       6.138   3.782  14.970  0.00  0.00    +0.000 C 
ATOM     19  C   UNL     1       5.749   3.719  13.513  0.00  0.00    +0.000 C 
ATOM     20  C   UNL     1       6.977   4.474  13.922  0.00  0.00    +0.000 C 
ENDBRANCH  14  18
ENDBRANCH   7  10
BRANCH   1  21
ATOM     21  N   UNL     1       0.844  11.342  19.154  0.00  0.00    +0.000 N 
ATOM     22  H   UNL     1       0.643  11.265  18.166  0.00  0.00    +0.000 HD
BRANCH  21  26
ATOM     23  C   UNL     1       3.474  15.206  17.573  0.00  0.00    +0.000 C 
ATOM     24  C   UNL     1       2.953  14.316  18.660  0.00  0.00    +0.000 A 
ATOM     25  C   UNL     1       2.230  13.186  18.339  0.00  0.00    +0.000 A 
ATOM     26  C   UNL     1       1.696  12.437  19.371  0.00  0.00    +0.000 A 
ATOM     27  N   UNL     1       1.944  12.751  20.655  0.00  0.00    +0.000 NA
ATOM     28  C   UNL     1       2.688  13.849  20.870  0.00  0.00    +0.000 A 
ATOM     29  N   UNL     1       3.197  14.666  19.936  0.00  0.00    +0.000 NA
ENDBRANCH  21  26
ENDBRANCH   1  21
TORSDOF 4
ENDMDL
MODEL 9
REMARK VINA RESULT:      -7.4      1.169      2.495
REMARK  Name = 
REMARK  5 active torsions:
REMARK  status: ('A' for Active; 'I' for Inactive)
REMARK    1  A    between atoms: C_1  and  C_2
REMARK    2  A    between atoms: C_4  and  N_5
REMARK    3  A    between atoms: N_5  and  C_6
REMARK    4  A    between atoms: C_12  and  C_13
REMARK    5  A    between atoms: C_17  and  C_18
REMARK                            x       y       z     vdW  Elec       q    Type
REMARK                         _______ _______ _______ _____ _____    ______ ____
ROOT
ATOM      1  C   UNL     1       3.250   4.633  18.607  0.00  0.00    +0.000 A 
ATOM      2  N   UNL     1       3.311   3.515  19.384  0.00  0.00    +0.000 NA
ATOM      3  C   UNL     1       2.774   3.475  20.614  0.00  0.00    +0.000 A 
ATOM      4  C   UNL     1       2.105   4.528  21.187  0.00  0.00    +0.000 A 
ATOM      5  C   UNL     1       2.048   5.704  20.440  0.00  0.00    +0.000 A 
ATOM      6  N   UNL     1       1.383   6.844  20.834  0.00  0.00    +0.000 NA
ATOM      7  C   UNL     1       1.555   7.822  19.971  0.00  0.00    +0.000 A 
ATOM      8  S   UNL     1       2.535   7.396  18.618  0.00  0.00    +0.000 S 
ATOM      9  C   UNL     1       2.667   5.773  19.193  0.00  0.00    +0.000 A 
ENDROOT
BRANCH   7  10
ATOM     10  C   UNL     1       0.991   9.170  20.189  0.00  0.00    +0.000 A 
ATOM     11  C   UNL     1       0.547   9.928  19.080  0.00  0.00    +0.000 A 
ATOM     12 CL   UNL     1       0.439   9.290  17.465  0.00  0.00    +0.000 Cl
ATOM     13  C   UNL     1       0.140  11.265  19.214  0.00  0.00    +0.000 A 
ATOM     14  C   UNL     1       0.123  11.903  20.455  0.00  0.00    +0.000 A 
ATOM     15  C   UNL     1       0.528  11.147  21.560  0.00  0.00    +0.000 A 
ATOM     16  C   UNL     1       0.967   9.816  21.440  0.00  0.00    +0.000 A 
ATOM     17 CL   UNL     1       1.531   9.106  22.918  0.00  0.00    +0.000 Cl
BRANCH  14  18
ATOM     18  C   UNL     1      -0.260  13.353  20.596  0.00  0.00    +0.000 C 
ATOM     19  C   UNL     1       0.427  14.240  21.606  0.00  0.00    +0.000 C 
ATOM     20  C   UNL     1       0.705  14.424  20.145  0.00  0.00    +0.000 C 
ENDBRANCH  14  18
ENDBRANCH   7  10
BRANCH   1  21
ATOM     21  N   UNL     1       3.698   4.607  17.279  0.00  0.00    +0.000 N 
ATOM     22  H   UNL     1       3.319   3.856  16.717  0.00  0.00    +0.000 HD
BRANCH  21  26
ATOM     23  C   UNL     1       7.167   4.749  13.773  0.00  0.00    +0.000 C 
ATOM     24  C   UNL     1       6.671   5.042  15.157  0.00  0.00    +0.000 A 
ATOM     25  C   UNL     1       5.441   4.569  15.563  0.00  0.00    +0.000 A 
ATOM     26  C   UNL     1       4.983   4.930  16.816  0.00  0.00    +0.000 A 
ATOM     27  N   UNL     1       5.751   5.653  17.652  0.00  0.00    +0.000 NA
ATOM     28  C   UNL     1       6.949   6.039  17.181  0.00  0.00    +0.000 A 
ATOM     29  N   UNL     1       7.450   5.786  15.963  0.00  0.00    +0.000 NA
ENDBRANCH  21  26
ENDBRANCH   1  21
TORSDOF 4
ENDMDL
