MODEL 1
REMARK VINA RESULT:      -8.3      0.000      0.000
REMARK  Name = 
REMARK  7 active torsions:
REMARK  status: ('A' for Active; 'I' for Inactive)
REMARK    1  A    between atoms: C_1  and  C_2
REMARK    2  A    between atoms: C_4  and  N_5
REMARK    3  A    between atoms: N_5  and  C_6
REMARK    4  A    between atoms: C_6  and  C_7
REMARK    5  A    between atoms: C_15  and  S_16
REMARK    6  A    between atoms: S_16  and  C_17
REMARK    7  A    between atoms: C_17  and  C_18
REMARK                            x       y       z     vdW  Elec       q    Type
REMARK                         _______ _______ _______ _____ _____    ______ ____
ROOT
ATOM      1  C   UNL     1       5.977   3.979  13.799  0.00  0.00    +0.000 C 
ATOM      2  C   UNL     1       6.285   4.590  15.147  0.00  0.00    +0.000 A 
ATOM      3  C   UNL     1       5.791   3.846  16.347  0.00  0.00    +0.000 A 
ATOM      4  C   UNL     1       6.111   4.356  17.548  0.00  0.00    +0.000 A 
ATOM      5  N   UNL     1       6.857   5.556  17.583  0.00  0.00    +0.000 N 
ATOM      6  N   UNL     1       7.282   6.255  18.665  0.00  0.00    +0.000 NA
ATOM      7  C   UNL     1       7.872   7.311  18.101  0.00  0.00    +0.000 A 
ATOM      8  N   UNL     1       7.869   7.329  16.737  0.00  0.00    +0.000 NA
ATOM      9  C   UNL     1       7.242   6.215  16.413  0.00  0.00    +0.000 A 
ATOM     10  N   UNL     1       6.959   5.704  15.178  0.00  0.00    +0.000 NA
ENDROOT
BRANCH   4  11
ATOM     11  N   UNL     1       5.742   3.733  18.753  0.00  0.00    +0.000 N 
ATOM     12  H   UNL     1       6.579   3.689  19.346  0.00  0.00    +0.000 HD
BRANCH  11  13
ATOM     13  C   UNL     1       4.691   4.346  19.586  0.00  0.00    +0.000 C 
BRANCH  13  14
ATOM     14  C   UNL     1       3.315   3.764  19.343  0.00  0.00    +0.000 A 
ATOM     15  C   UNL     1       2.772   2.717  20.100  0.00  0.00    +0.000 A 
ATOM     16  C   UNL     1       1.498   2.211  19.811  0.00  0.00    +0.000 A 
ATOM     17  C   UNL     1       0.752   2.747  18.765  0.00  0.00    +0.000 A 
ATOM     18  C   UNL     1       1.271   3.796  18.011  0.00  0.00    +0.000 A 
ATOM     19  C   UNL     1       2.541   4.302  18.298  0.00  0.00    +0.000 A 
ENDBRANCH  13  14
ENDBRANCH  11  13
ENDBRANCH   4  11
BRANCH   7  20
ATOM     20  S   UNL     1       8.632   8.517  19.105  0.00  0.00    +0.000 S 
BRANCH  20  21
ATOM     21  C   UNL     1       8.705   9.956  18.001  0.00  0.00    +0.000 C 
BRANCH  21  22
ATOM     22  C   UNL     1       9.678  10.997  18.524  0.00  0.00    +0.000 A 
ATOM     23  C   UNL     1       9.994  11.057  19.890  0.00  0.00    +0.000 A 
ATOM     24  C   UNL     1      10.862  12.035  20.381  0.00  0.00    +0.000 A 
ATOM     25  C   UNL     1      11.424  12.970  19.515  0.00  0.00    +0.000 A 
ATOM     26  C   UNL     1      11.120  12.925  18.157  0.00  0.00    +0.000 A 
ATOM     27  C   UNL     1      10.252  11.946  17.663  0.00  0.00    +0.000 A 
ENDBRANCH  21  22
ENDBRANCH  20  21
ENDBRANCH   7  20
TORSDOF 6
ENDMDL
MODEL 2
REMARK VINA RESULT:      -8.3      3.761      6.259
REMARK  Name = 
REMARK  7 active torsions:
REMARK  status: ('A' for Active; 'I' for Inactive)
REMARK    1  A    between atoms: C_1  and  C_2
REMARK    2  A    between atoms: C_4  and  N_5
REMARK    3  A    between atoms: N_5  and  C_6
REMARK    4  A    between atoms: C_6  and  C_7
REMARK    5  A    between atoms: C_15  and  S_16
REMARK    6  A    between atoms: S_16  and  C_17
REMARK    7  A    between atoms: C_17  and  C_18
REMARK                            x       y       z     vdW  Elec       q    Type
REMARK                         _______ _______ _______ _____ _____    ______ ____
ROOT
ATOM      1  C   UNL     1       1.455   2.558  21.561  0.00  0.00    +0.000 C 
ATOM      2  C   UNL     1       2.100   3.381  20.469  0.00  0.00    +0.000 A 
ATOM      3  C   UNL     1       2.088   4.865  20.654  0.00  0.00    +0.000 A 
ATOM      4  C   UNL     1       2.710   5.596  19.714  0.00  0.00    +0.000 A 
ATOM      5  N   UNL     1       3.296   4.916  18.622  0.00  0.00    +0.000 N 
ATOM      6  N   UNL     1       3.959   5.436  17.560  0.00  0.00    +0.000 NA
ATOM      7  C   UNL     1       4.226   4.347  16.837  0.00  0.00    +0.000 A 
ATOM      8  N   UNL     1       3.796   3.167  17.367  0.00  0.00    +0.000 NA
ATOM      9  C   UNL     1       3.223   3.526  18.499  0.00  0.00    +0.000 A 
ATOM     10  N   UNL     1       2.625   2.754  19.456  0.00  0.00    +0.000 NA
ENDROOT
BRANCH   4  11
ATOM     11  N   UNL     1       2.804   6.997  19.789  0.00  0.00    +0.000 N 
ATOM     12  H   UNL     1       3.799   7.234  19.878  0.00  0.00    +0.000 HD
BRANCH  11  13
ATOM     13  C   UNL     1       2.294   7.812  18.672  0.00  0.00    +0.000 C 
BRANCH  13  14
ATOM     14  C   UNL     1       1.296   8.866  19.102  0.00  0.00    +0.000 A 
ATOM     15  C   UNL     1       0.949   9.105  20.439  0.00  0.00    +0.000 A 
ATOM     16  C   UNL     1       0.003  10.084  20.769  0.00  0.00    +0.000 A 
ATOM     17  C   UNL     1      -0.603  10.837  19.768  0.00  0.00    +0.000 A 
ATOM     18  C   UNL     1      -0.261  10.623  18.436  0.00  0.00    +0.000 A 
ATOM     19  C   UNL     1       0.683   9.646  18.105  0.00  0.00    +0.000 A 
ENDBRANCH  13  14
ENDBRANCH  11  13
ENDBRANCH   4  11
BRANCH   7  20
ATOM     20  S   UNL     1       5.126   4.494  15.350  0.00  0.00    +0.000 S 
BRANCH  20  21
ATOM     21  C   UNL     1       6.827   4.159  15.888  0.00  0.00    +0.000 C 
BRANCH  21  22
ATOM     22  C   UNL     1       7.285   5.177  16.916  0.00  0.00    +0.000 A 
ATOM     23  C   UNL     1       7.698   4.768  18.193  0.00  0.00    +0.000 A 
ATOM     24  C   UNL     1       8.087   5.705  19.154  0.00  0.00    +0.000 A 
ATOM     25  C   UNL     1       8.066   7.065  18.853  0.00  0.00    +0.000 A 
ATOM     26  C   UNL     1       7.659   7.488  17.590  0.00  0.00    +0.000 A 
ATOM     27  C   UNL     1       7.269   6.551  16.627  0.00  0.00    +0.000 A 
ENDBRANCH  21  22
ENDBRANCH  20  21
ENDBRANCH   7  20
TORSDOF 6
ENDMDL
MODEL 3
REMARK VINA RESULT:      -8.3      4.821      8.059
REMARK  Name = 
REMARK  7 active torsions:
REMARK  status: ('A' for Active; 'I' for Inactive)
REMARK    1  A    between atoms: C_1  and  C_2
REMARK    2  A    between atoms: C_4  and  N_5
REMARK    3  A    between atoms: N_5  and  C_6
REMARK    4  A    between atoms: C_6  and  C_7
REMARK    5  A    between atoms: C_15  and  S_16
REMARK    6  A    between atoms: S_16  and  C_17
REMARK    7  A    between atoms: C_17  and  C_18
REMARK                            x       y       z     vdW  Elec       q    Type
REMARK                         _______ _______ _______ _____ _____    ______ ____
ROOT
ATOM      1  C   UNL     1       2.240   3.165  21.607  0.00  0.00    +0.000 C 
ATOM      2  C   UNL     1       2.414   4.255  20.574  0.00  0.00    +0.000 A 
ATOM      3  C   UNL     1       3.103   3.869  19.304  0.00  0.00    +0.000 A 
ATOM      4  C   UNL     1       3.210   4.820  18.361  0.00  0.00    +0.000 A 
ATOM      5  N   UNL     1       2.694   6.103  18.650  0.00  0.00    +0.000 N 
ATOM      6  N   UNL     1       2.696   7.211  17.868  0.00  0.00    +0.000 NA
ATOM      7  C   UNL     1       2.140   8.121  18.670  0.00  0.00    +0.000 A 
ATOM      8  N   UNL     1       1.769   7.672  19.903  0.00  0.00    +0.000 NA
ATOM      9  C   UNL     1       2.104   6.397  19.883  0.00  0.00    +0.000 A 
ATOM     10  N   UNL     1       1.953   5.442  20.849  0.00  0.00    +0.000 NA
ENDROOT
BRANCH   4  11
ATOM     11  N   UNL     1       3.800   4.575  17.109  0.00  0.00    +0.000 N 
ATOM     12  H   UNL     1       3.769   5.454  16.577  0.00  0.00    +0.000 HD
BRANCH  11  13
ATOM     13  C   UNL     1       5.201   4.121  17.052  0.00  0.00    +0.000 C 
BRANCH  13  14
ATOM     14  C   UNL     1       6.190   5.161  17.533  0.00  0.00    +0.000 A 
ATOM     15  C   UNL     1       7.072   4.957  18.602  0.00  0.00    +0.000 A 
ATOM     16  C   UNL     1       7.951   5.968  19.010  0.00  0.00    +0.000 A 
ATOM     17  C   UNL     1       7.961   7.194  18.351  0.00  0.00    +0.000 A 
ATOM     18  C   UNL     1       7.101   7.411  17.277  0.00  0.00    +0.000 A 
ATOM     19  C   UNL     1       6.224   6.402  16.870  0.00  0.00    +0.000 A 
ENDBRANCH  13  14
ENDBRANCH  11  13
ENDBRANCH   4  11
BRANCH   7  20
ATOM     20  S   UNL     1       1.882   9.745  18.089  0.00  0.00    +0.000 S 
BRANCH  20  21
ATOM     21  C   UNL     1       0.806  10.452  19.369  0.00  0.00    +0.000 C 
BRANCH  21  22
ATOM     22  C   UNL     1      -0.582  10.733  18.821  0.00  0.00    +0.000 A 
ATOM     23  C   UNL     1      -1.422  11.667  19.447  0.00  0.00    +0.000 A 
ATOM     24  C   UNL     1      -2.713  11.903  18.966  0.00  0.00    +0.000 A 
ATOM     25  C   UNL     1      -3.184  11.207  17.855  0.00  0.00    +0.000 A 
ATOM     26  C   UNL     1      -2.362  10.277  17.222  0.00  0.00    +0.000 A 
ATOM     27  C   UNL     1      -1.070  10.039  17.701  0.00  0.00    +0.000 A 
ENDBRANCH  21  22
ENDBRANCH  20  21
ENDBRANCH   7  20
TORSDOF 6
ENDMDL
MODEL 4
REMARK VINA RESULT:      -8.3      0.755      1.259
REMARK  Name = 
REMARK  7 active torsions:
REMARK  status: ('A' for Active; 'I' for Inactive)
REMARK    1  A    between atoms: C_1  and  C_2
REMARK    2  A    between atoms: C_4  and  N_5
REMARK    3  A    between atoms: N_5  and  C_6
REMARK    4  A    between atoms: C_6  and  C_7
REMARK    5  A    between atoms: C_15  and  S_16
REMARK    6  A    between atoms: S_16  and  C_17
REMARK    7  A    between atoms: C_17  and  C_18
REMARK                            x       y       z     vdW  Elec       q    Type
REMARK                         _______ _______ _______ _____ _____    ______ ____
ROOT
ATOM      1  C   UNL     1       5.565   3.914  13.795  0.00  0.00    +0.000 C 
ATOM      2  C   UNL     1       5.954   4.515  15.126  0.00  0.00    +0.000 A 
ATOM      3  C   UNL     1       5.479   3.797  16.349  0.00  0.00    +0.000 A 
ATOM      4  C   UNL     1       5.869   4.296  17.533  0.00  0.00    +0.000 A 
ATOM      5  N   UNL     1       6.666   5.464  17.532  0.00  0.00    +0.000 N 
ATOM      6  N   UNL     1       7.164   6.147  18.592  0.00  0.00    +0.000 NA
ATOM      7  C   UNL     1       7.774   7.176  17.999  0.00  0.00    +0.000 A 
ATOM      8  N   UNL     1       7.715   7.191  16.637  0.00  0.00    +0.000 NA
ATOM      9  C   UNL     1       7.029   6.103  16.344  0.00  0.00    +0.000 A 
ATOM     10  N   UNL     1       6.674   5.600  15.124  0.00  0.00    +0.000 NA
ENDROOT
BRANCH   4  11
ATOM     11  N   UNL     1       5.524   3.693  18.756  0.00  0.00    +0.000 N 
ATOM     12  H   UNL     1       6.394   3.531  19.275  0.00  0.00    +0.000 HD
BRANCH  11  13
ATOM     13  C   UNL     1       4.630   4.410  19.682  0.00  0.00    +0.000 C 
BRANCH  13  14
ATOM     14  C   UNL     1       3.213   3.877  19.685  0.00  0.00    +0.000 A 
ATOM     15  C   UNL     1       2.159   4.480  20.385  0.00  0.00    +0.000 A 
ATOM     16  C   UNL     1       0.873   3.924  20.362  0.00  0.00    +0.000 A 
ATOM     17  C   UNL     1       0.626   2.763  19.636  0.00  0.00    +0.000 A 
ATOM     18  C   UNL     1       1.659   2.157  18.924  0.00  0.00    +0.000 A 
ATOM     19  C   UNL     1       2.941   2.711  18.947  0.00  0.00    +0.000 A 
ENDBRANCH  13  14
ENDBRANCH  11  13
ENDBRANCH   4  11
BRANCH   7  20
ATOM     20  S   UNL     1       8.624   8.353  18.966  0.00  0.00    +0.000 S 
BRANCH  20  21
ATOM     21  C   UNL     1       8.556   9.837  17.924  0.00  0.00    +0.000 C 
BRANCH  21  22
ATOM     22  C   UNL     1       9.231  11.014  18.606  0.00  0.00    +0.000 A 
ATOM     23  C   UNL     1       9.285  12.268  17.979  0.00  0.00    +0.000 A 
ATOM     24  C   UNL     1       9.935  13.345  18.588  0.00  0.00    +0.000 A 
ATOM     25  C   UNL     1      10.544  13.182  19.830  0.00  0.00    +0.000 A 
ATOM     26  C   UNL     1      10.499  11.943  20.466  0.00  0.00    +0.000 A 
ATOM     27  C   UNL     1       9.849  10.865  19.858  0.00  0.00    +0.000 A 
ENDBRANCH  21  22
ENDBRANCH  20  21
ENDBRANCH   7  20
TORSDOF 6
ENDMDL
MODEL 5
REMARK VINA RESULT:      -8.2      1.069      1.238
REMARK  Name = 
REMARK  7 active torsions:
REMARK  status: ('A' for Active; 'I' for Inactive)
REMARK    1  A    between atoms: C_1  and  C_2
REMARK    2  A    between atoms: C_4  and  N_5
REMARK    3  A    between atoms: N_5  and  C_6
REMARK    4  A    between atoms: C_6  and  C_7
REMARK    5  A    between atoms: C_15  and  S_16
REMARK    6  A    between atoms: S_16  and  C_17
REMARK    7  A    between atoms: C_17  and  C_18
REMARK                            x       y       z     vdW  Elec       q    Type
REMARK                         _______ _______ _______ _____ _____    ______ ____
ROOT
ATOM      1  C   UNL     1       5.886   3.805  13.068  0.00  0.00    +0.000 C 
ATOM      2  C   UNL     1       5.981   4.499  14.408  0.00  0.00    +0.000 A 
ATOM      3  C   UNL     1       4.902   4.191  15.398  0.00  0.00    +0.000 A 
ATOM      4  C   UNL     1       5.012   4.762  16.608  0.00  0.00    +0.000 A 
ATOM      5  N   UNL     1       6.111   5.620  16.842  0.00  0.00    +0.000 N 
ATOM      6  N   UNL     1       6.422   6.308  17.968  0.00  0.00    +0.000 NA
ATOM      7  C   UNL     1       7.511   6.982  17.592  0.00  0.00    +0.000 A 
ATOM      8  N   UNL     1       7.928   6.762  16.313  0.00  0.00    +0.000 NA
ATOM      9  C   UNL     1       7.053   5.892  15.846  0.00  0.00    +0.000 A 
ATOM     10  N   UNL     1       6.985   5.301  14.616  0.00  0.00    +0.000 NA
ENDROOT
BRANCH   4  11
ATOM     11  N   UNL     1       4.087   4.524  17.641  0.00  0.00    +0.000 N 
ATOM     12  H   UNL     1       3.147   4.573  17.229  0.00  0.00    +0.000 HD
BRANCH  11  13
ATOM     13  C   UNL     1       4.140   3.246  18.372  0.00  0.00    +0.000 C 
BRANCH  13  14
ATOM     14  C   UNL     1       3.091   3.130  19.458  0.00  0.00    +0.000 A 
ATOM     15  C   UNL     1       3.340   2.574  20.720  0.00  0.00    +0.000 A 
ATOM     16  C   UNL     1       2.320   2.480  21.675  0.00  0.00    +0.000 A 
ATOM     17  C   UNL     1       1.041   2.944  21.381  0.00  0.00    +0.000 A 
ATOM     18  C   UNL     1       0.779   3.512  20.137  0.00  0.00    +0.000 A 
ATOM     19  C   UNL     1       1.796   3.606  19.184  0.00  0.00    +0.000 A 
ENDBRANCH  13  14
ENDBRANCH  11  13
ENDBRANCH   4  11
BRANCH   7  20
ATOM     20  S   UNL     1       8.331   8.011  18.738  0.00  0.00    +0.000 S 
BRANCH  20  21
ATOM     21  C   UNL     1       8.359   9.609  17.877  0.00  0.00    +0.000 C 
BRANCH  21  22
ATOM     22  C   UNL     1       9.310  10.577  18.556  0.00  0.00    +0.000 A 
ATOM     23  C   UNL     1       9.334  10.694  19.954  0.00  0.00    +0.000 A 
ATOM     24  C   UNL     1      10.184  11.609  20.581  0.00  0.00    +0.000 A 
ATOM     25  C   UNL     1      11.019  12.423  19.820  0.00  0.00    +0.000 A 
ATOM     26  C   UNL     1      11.007  12.320  18.431  0.00  0.00    +0.000 A 
ATOM     27  C   UNL     1      10.158  11.405  17.801  0.00  0.00    +0.000 A 
ENDBRANCH  21  22
ENDBRANCH  20  21
ENDBRANCH   7  20
TORSDOF 6
ENDMDL
MODEL 6
REMARK VINA RESULT:      -8.1      4.811      7.646
REMARK  Name = 
REMARK  7 active torsions:
REMARK  status: ('A' for Active; 'I' for Inactive)
REMARK    1  A    between atoms: C_1  and  C_2
REMARK    2  A    between atoms: C_4  and  N_5
REMARK    3  A    between atoms: N_5  and  C_6
REMARK    4  A    between atoms: C_6  and  C_7
REMARK    5  A    between atoms: C_15  and  S_16
REMARK    6  A    between atoms: S_16  and  C_17
REMARK    7  A    between atoms: C_17  and  C_18
REMARK                            x       y       z     vdW  Elec       q    Type
REMARK                         _______ _______ _______ _____ _____    ______ ____
ROOT
ATOM      1  C   UNL     1       1.253   2.827  20.988  0.00  0.00    +0.000 C 
ATOM      2  C   UNL     1       1.865   3.953  20.187  0.00  0.00    +0.000 A 
ATOM      3  C   UNL     1       1.530   5.344  20.623  0.00  0.00    +0.000 A 
ATOM      4  C   UNL     1       2.116   6.346  19.949  0.00  0.00    +0.000 A 
ATOM      5  N   UNL     1       2.972   6.014  18.874  0.00  0.00    +0.000 N 
ATOM      6  N   UNL     1       3.658   6.846  18.052  0.00  0.00    +0.000 NA
ATOM      7  C   UNL     1       4.236   5.990  17.207  0.00  0.00    +0.000 A 
ATOM      8  N   UNL     1       3.982   4.670  17.440  0.00  0.00    +0.000 NA
ATOM      9  C   UNL     1       3.197   4.687  18.499  0.00  0.00    +0.000 A 
ATOM     10  N   UNL     1       2.640   3.645  19.187  0.00  0.00    +0.000 NA
ENDROOT
BRANCH   4  11
ATOM     11  N   UNL     1       1.916   7.698  20.284  0.00  0.00    +0.000 N 
ATOM     12  H   UNL     1       1.178   8.061  19.669  0.00  0.00    +0.000 HD
BRANCH  11  13
ATOM     13  C   UNL     1       1.502   8.044  21.655  0.00  0.00    +0.000 C 
BRANCH  13  14
ATOM     14  C   UNL     1       0.573   9.237  21.720  0.00  0.00    +0.000 A 
ATOM     15  C   UNL     1       0.337  10.096  20.638  0.00  0.00    +0.000 A 
ATOM     16  C   UNL     1      -0.522  11.195  20.770  0.00  0.00    +0.000 A 
ATOM     17  C   UNL     1      -1.157  11.445  21.983  0.00  0.00    +0.000 A 
ATOM     18  C   UNL     1      -0.945  10.595  23.065  0.00  0.00    +0.000 A 
ATOM     19  C   UNL     1      -0.089   9.499  22.934  0.00  0.00    +0.000 A 
ENDBRANCH  13  14
ENDBRANCH  11  13
ENDBRANCH   4  11
BRANCH   7  20
ATOM     20  S   UNL     1       5.286   6.589  15.950  0.00  0.00    +0.000 S 
BRANCH  20  21
ATOM     21  C   UNL     1       6.524   5.269  15.812  0.00  0.00    +0.000 C 
BRANCH  21  22
ATOM     22  C   UNL     1       6.657   4.794  14.377  0.00  0.00    +0.000 A 
ATOM     23  C   UNL     1       5.811   3.793  13.874  0.00  0.00    +0.000 A 
ATOM     24  C   UNL     1       5.953   3.328  12.563  0.00  0.00    +0.000 A 
ATOM     25  C   UNL     1       6.944   3.854  11.738  0.00  0.00    +0.000 A 
ATOM     26  C   UNL     1       7.792   4.847  12.222  0.00  0.00    +0.000 A 
ATOM     27  C   UNL     1       7.651   5.315  13.533  0.00  0.00    +0.000 A 
ENDBRANCH  21  22
ENDBRANCH  20  21
ENDBRANCH   7  20
TORSDOF 6
ENDMDL
MODEL 7
REMARK VINA RESULT:      -8.1      4.616      6.092
REMARK  Name = 
REMARK  7 active torsions:
REMARK  status: ('A' for Active; 'I' for Inactive)
REMARK    1  A    between atoms: C_1  and  C_2
REMARK    2  A    between atoms: C_4  and  N_5
REMARK    3  A    between atoms: N_5  and  C_6
REMARK    4  A    between atoms: C_6  and  C_7
REMARK    5  A    between atoms: C_15  and  S_16
REMARK    6  A    between atoms: S_16  and  C_17
REMARK    7  A    between atoms: C_17  and  C_18
REMARK                            x       y       z     vdW  Elec       q    Type
REMARK                         _______ _______ _______ _____ _____    ______ ____
ROOT
ATOM      1  C   UNL     1       7.305   4.784  14.815  0.00  0.00    +0.000 C 
ATOM      2  C   UNL     1       6.317   5.221  15.873  0.00  0.00    +0.000 A 
ATOM      3  C   UNL     1       6.333   4.456  17.159  0.00  0.00    +0.000 A 
ATOM      4  C   UNL     1       5.497   4.877  18.122  0.00  0.00    +0.000 A 
ATOM      5  N   UNL     1       4.657   5.978  17.840  0.00  0.00    +0.000 N 
ATOM      6  N   UNL     1       3.736   6.565  18.642  0.00  0.00    +0.000 NA
ATOM      7  C   UNL     1       3.219   7.497  17.839  0.00  0.00    +0.000 A 
ATOM      8  N   UNL     1       3.754   7.558  16.586  0.00  0.00    +0.000 NA
ATOM      9  C   UNL     1       4.671   6.610  16.593  0.00  0.00    +0.000 A 
ATOM     10  N   UNL     1       5.533   6.225  15.606  0.00  0.00    +0.000 NA
ENDROOT
BRANCH   4  11
ATOM     11  N   UNL     1       5.442   4.270  19.390  0.00  0.00    +0.000 N 
ATOM     12  H   UNL     1       4.908   4.893  20.006  0.00  0.00    +0.000 HD
BRANCH  11  13
ATOM     13  C   UNL     1       4.818   2.941  19.523  0.00  0.00    +0.000 C 
BRANCH  13  14
ATOM     14  C   UNL     1       3.309   2.994  19.629  0.00  0.00    +0.000 A 
ATOM     15  C   UNL     1       2.452   2.984  18.521  0.00  0.00    +0.000 A 
ATOM     16  C   UNL     1       1.063   3.054  18.688  0.00  0.00    +0.000 A 
ATOM     17  C   UNL     1       0.514   3.131  19.965  0.00  0.00    +0.000 A 
ATOM     18  C   UNL     1       1.350   3.129  21.079  0.00  0.00    +0.000 A 
ATOM     19  C   UNL     1       2.736   3.059  20.913  0.00  0.00    +0.000 A 
ENDBRANCH  13  14
ENDBRANCH  11  13
ENDBRANCH   4  11
BRANCH   7  20
ATOM     20  S   UNL     1       1.984   8.572  18.441  0.00  0.00    +0.000 S 
BRANCH  20  21
ATOM     21  C   UNL     1       1.756   7.989  20.145  0.00  0.00    +0.000 C 
BRANCH  21  22
ATOM     22  C   UNL     1       0.858   8.929  20.927  0.00  0.00    +0.000 A 
ATOM     23  C   UNL     1       0.160   9.959  20.276  0.00  0.00    +0.000 A 
ATOM     24  C   UNL     1      -0.641  10.848  20.998  0.00  0.00    +0.000 A 
ATOM     25  C   UNL     1      -0.753  10.724  22.381  0.00  0.00    +0.000 A 
ATOM     26  C   UNL     1      -0.067   9.708  23.042  0.00  0.00    +0.000 A 
ATOM     27  C   UNL     1       0.735   8.817  22.322  0.00  0.00    +0.000 A 
ENDBRANCH  21  22
ENDBRANCH  20  21
ENDBRANCH   7  20
TORSDOF 6
ENDMDL
MODEL 8
REMARK VINA RESULT:      -8.1      4.639      5.957
REMARK  Name = 
REMARK  7 active torsions:
REMARK  status: ('A' for Active; 'I' for Inactive)
REMARK    1  A    between atoms: C_1  and  C_2
REMARK    2  A    between atoms: C_4  and  N_5
REMARK    3  A    between atoms: N_5  and  C_6
REMARK    4  A    between atoms: C_6  and  C_7
REMARK    5  A    between atoms: C_15  and  S_16
REMARK    6  A    between atoms: S_16  and  C_17
REMARK    7  A    between atoms: C_17  and  C_18
REMARK                            x       y       z     vdW  Elec       q    Type
REMARK                         _______ _______ _______ _____ _____    ______ ____
ROOT
ATOM      1  C   UNL     1       7.256   4.901  14.900  0.00  0.00    +0.000 C 
ATOM      2  C   UNL     1       6.251   5.313  15.951  0.00  0.00    +0.000 A 
ATOM      3  C   UNL     1       6.251   4.524  17.223  0.00  0.00    +0.000 A 
ATOM      4  C   UNL     1       5.399   4.923  18.181  0.00  0.00    +0.000 A 
ATOM      5  N   UNL     1       4.558   6.025  17.906  0.00  0.00    +0.000 N 
ATOM      6  N   UNL     1       3.621   6.593  18.706  0.00  0.00    +0.000 NA
ATOM      7  C   UNL     1       3.112   7.538  17.912  0.00  0.00    +0.000 A 
ATOM      8  N   UNL     1       3.665   7.624  16.669  0.00  0.00    +0.000 NA
ATOM      9  C   UNL     1       4.587   6.681  16.672  0.00  0.00    +0.000 A 
ATOM     10  N   UNL     1       5.465   6.318  15.691  0.00  0.00    +0.000 NA
ENDROOT
BRANCH   4  11
ATOM     11  N   UNL     1       5.328   4.292  19.436  0.00  0.00    +0.000 N 
ATOM     12  H   UNL     1       4.791   4.906  20.059  0.00  0.00    +0.000 HD
BRANCH  11  13
ATOM     13  C   UNL     1       4.696   2.964  19.537  0.00  0.00    +0.000 C 
BRANCH  13  14
ATOM     14  C   UNL     1       3.186   3.023  19.633  0.00  0.00    +0.000 A 
ATOM     15  C   UNL     1       2.500   3.720  20.636  0.00  0.00    +0.000 A 
ATOM     16  C   UNL     1       1.100   3.719  20.680  0.00  0.00    +0.000 A 
ATOM     17  C   UNL     1       0.370   3.024  19.720  0.00  0.00    +0.000 A 
ATOM     18  C   UNL     1       1.035   2.336  18.708  0.00  0.00    +0.000 A 
ATOM     19  C   UNL     1       2.432   2.337  18.664  0.00  0.00    +0.000 A 
ENDBRANCH  13  14
ENDBRANCH  11  13
ENDBRANCH   4  11
BRANCH   7  20
ATOM     20  S   UNL     1       1.863   8.595  18.516  0.00  0.00    +0.000 S 
BRANCH  20  21
ATOM     21  C   UNL     1       1.704   8.064  20.245  0.00  0.00    +0.000 C 
BRANCH  21  22
ATOM     22  C   UNL     1       0.927   9.083  21.059  0.00  0.00    +0.000 A 
ATOM     23  C   UNL     1       0.296   8.711  22.256  0.00  0.00    +0.000 A 
ATOM     24  C   UNL     1      -0.449   9.637  22.990  0.00  0.00    +0.000 A 
ATOM     25  C   UNL     1      -0.577  10.948  22.537  0.00  0.00    +0.000 A 
ATOM     26  C   UNL     1       0.043  11.334  21.351  0.00  0.00    +0.000 A 
ATOM     27  C   UNL     1       0.789  10.408  20.615  0.00  0.00    +0.000 A 
ENDBRANCH  21  22
ENDBRANCH  20  21
ENDBRANCH   7  20
TORSDOF 6
ENDMDL
MODEL 9
REMARK VINA RESULT:      -8.1      4.415      7.336
REMARK  Name = 
REMARK  7 active torsions:
REMARK  status: ('A' for Active; 'I' for Inactive)
REMARK    1  A    between atoms: C_1  and  C_2
REMARK    2  A    between atoms: C_4  and  N_5
REMARK    3  A    between atoms: N_5  and  C_6
REMARK    4  A    between atoms: C_6  and  C_7
REMARK    5  A    between atoms: C_15  and  S_16
REMARK    6  A    between atoms: S_16  and  C_17
REMARK    7  A    between atoms: C_17  and  C_18
REMARK                            x       y       z     vdW  Elec       q    Type
REMARK                         _______ _______ _______ _____ _____    ______ ____
ROOT
ATOM      1  C   UNL     1       1.327   2.491  21.704  0.00  0.00    +0.000 C 
ATOM      2  C   UNL     1       2.250   3.366  20.886  0.00  0.00    +0.000 A 
ATOM      3  C   UNL     1       1.857   4.803  20.744  0.00  0.00    +0.000 A 
ATOM      4  C   UNL     1       2.703   5.596  20.066  0.00  0.00    +0.000 A 
ATOM      5  N   UNL     1       3.871   5.013  19.523  0.00  0.00    +0.000 N 
ATOM      6  N   UNL     1       4.853   5.605  18.800  0.00  0.00    +0.000 NA
ATOM      7  C   UNL     1       5.650   4.573  18.513  0.00  0.00    +0.000 A 
ATOM      8  N   UNL     1       5.255   3.367  19.013  0.00  0.00    +0.000 NA
ATOM      9  C   UNL     1       4.142   3.649  19.661  0.00  0.00    +0.000 A 
ATOM     10  N   UNL     1       3.317   2.824  20.373  0.00  0.00    +0.000 NA
ENDROOT
BRANCH   4  11
ATOM     11  N   UNL     1       2.471   6.972  19.893  0.00  0.00    +0.000 N 
ATOM     12  H   UNL     1       2.176   7.115  18.920  0.00  0.00    +0.000 HD
BRANCH  11  13
ATOM     13  C   UNL     1       1.452   7.637  20.724  0.00  0.00    +0.000 C 
BRANCH  13  14
ATOM     14  C   UNL     1       1.175   9.066  20.308  0.00  0.00    +0.000 A 
ATOM     15  C   UNL     1       0.810  10.079  21.205  0.00  0.00    +0.000 A 
ATOM     16  C   UNL     1       0.550  11.378  20.751  0.00  0.00    +0.000 A 
ATOM     17  C   UNL     1       0.655  11.681  19.397  0.00  0.00    +0.000 A 
ATOM     18  C   UNL     1       1.030  10.691  18.492  0.00  0.00    +0.000 A 
ATOM     19  C   UNL     1       1.290   9.395  18.944  0.00  0.00    +0.000 A 
ENDBRANCH  13  14
ENDBRANCH  11  13
ENDBRANCH   4  11
BRANCH   7  20
ATOM     20  S   UNL     1       7.115   4.837  17.604  0.00  0.00    +0.000 S 
BRANCH  20  21
ATOM     21  C   UNL     1       6.544   5.887  16.238  0.00  0.00    +0.000 C 
BRANCH  21  22
ATOM     22  C   UNL     1       6.524   5.117  14.930  0.00  0.00    +0.000 A 
ATOM     23  C   UNL     1       7.523   5.320  13.965  0.00  0.00    +0.000 A 
ATOM     24  C   UNL     1       7.489   4.639  12.745  0.00  0.00    +0.000 A 
ATOM     25  C   UNL     1       6.455   3.748  12.471  0.00  0.00    +0.000 A 
ATOM     26  C   UNL     1       5.455   3.534  13.417  0.00  0.00    +0.000 A 
ATOM     27  C   UNL     1       5.488   4.215  14.639  0.00  0.00    +0.000 A 
ENDBRANCH  21  22
ENDBRANCH  20  21
ENDBRANCH   7  20
TORSDOF 6
ENDMDL
