MODEL 1
REMARK VINA RESULT:      -7.4      0.000      0.000
REMARK  Name = 
REMARK  8 active torsions:
REMARK  status: ('A' for Active; 'I' for Inactive)
REMARK    1  A    between atoms: C_1  and  C_2
REMARK    2  A    between atoms: C_2  and  C_3
REMARK    3  A    between atoms: C_2  and  N_4
REMARK    4  A    between atoms: C_7  and  C_8
REMARK    5  A    between atoms: C_8  and  C_9
REMARK    6  A    between atoms: C_13  and  C_14
REMARK    7  A    between atoms: C_19  and  C_20
REMARK    8  A    between atoms: C_20  and  O_22
REMARK                            x       y       z     vdW  Elec       q    Type
REMARK                         _______ _______ _______ _____ _____    ______ ____
ROOT
ATOM      1  C   UNL     1       2.526   7.440  18.905  0.00  0.00    +0.000 A 
ATOM      2  C   UNL     1       2.074   6.606  19.915  0.00  0.00    +0.000 A 
ATOM      3  N   UNL     1       2.643   5.411  20.187  0.00  0.00    +0.000 NA
ATOM      4  C   UNL     1       3.673   5.068  19.383  0.00  0.00    +0.000 A 
ATOM      5  C   UNL     1       4.108   5.852  18.310  0.00  0.00    +0.000 A 
ATOM      6  N   UNL     1       3.521   7.048  18.062  0.00  0.00    +0.000 NA
ENDROOT
BRANCH   5   7
ATOM      7  C   UNL     1       5.160   5.412  17.385  0.00  0.00    +0.000 A 
ATOM      8  C   UNL     1       4.746   4.923  16.115  0.00  0.00    +0.000 A 
ATOM      9  C   UNL     1       5.632   4.339  15.213  0.00  0.00    +0.000 A 
ATOM     10  C   UNL     1       6.973   4.262  15.534  0.00  0.00    +0.000 A 
ATOM     11  C   UNL     1       7.425   4.798  16.741  0.00  0.00    +0.000 A 
ATOM     12  C   UNL     1       6.542   5.384  17.677  0.00  0.00    +0.000 A 
BRANCH  12  13
ATOM     13  C   UNL     1       7.216   5.827  18.940  0.00  0.00    +0.000 C 
ATOM     14  O   UNL     1       7.005   5.244  20.001  0.00  0.00    +0.000 OA
BRANCH  13  15
ATOM     15  O   UNL     1       8.162   6.780  18.853  0.00  0.00    +0.000 OA
ATOM     16  H   UNL     1       9.062   6.409  18.685  0.00  0.00    +0.000 HD
ENDBRANCH  13  15
ENDBRANCH  12  13
ENDBRANCH   5   7
BRANCH   1  17
ATOM     17  C   UNL     1       1.914   8.798  18.672  0.00  0.00    +0.000 C 
BRANCH  17  21
ATOM     18  N   UNL     1       0.601  10.986  21.106  0.00  0.00    +0.000 NA
ATOM     19  C   UNL     1       0.454  11.493  19.728  0.00  0.00    +0.000 C 
ATOM     20  C   UNL     1      -0.163  10.333  18.971  0.00  0.00    +0.000 C 
ATOM     21  C   UNL     1       0.642   9.140  19.481  0.00  0.00    +0.000 C 
ATOM     22  C   UNL     1       1.053   9.585  20.907  0.00  0.00    +0.000 C 
BRANCH  18  24
ATOM     23  C   UNL     1      -0.663  10.104  23.102  0.00  0.00    +0.000 C 
ATOM     24  C   UNL     1      -0.642  11.090  21.918  0.00  0.00    +0.000 C 
ATOM     25  C   UNL     1      -0.868  12.500  22.506  0.00  0.00    +0.000 C 
ENDBRANCH  18  24
ENDBRANCH  17  21
ENDBRANCH   1  17
TORSDOF 6
ENDMDL
MODEL 2
REMARK VINA RESULT:      -7.2      1.350      2.269
REMARK  Name = 
REMARK  8 active torsions:
REMARK  status: ('A' for Active; 'I' for Inactive)
REMARK    1  A    between atoms: C_1  and  C_2
REMARK    2  A    between atoms: C_2  and  C_3
REMARK    3  A    between atoms: C_2  and  N_4
REMARK    4  A    between atoms: C_7  and  C_8
REMARK    5  A    between atoms: C_8  and  C_9
REMARK    6  A    between atoms: C_13  and  C_14
REMARK    7  A    between atoms: C_19  and  C_20
REMARK    8  A    between atoms: C_20  and  O_22
REMARK                            x       y       z     vdW  Elec       q    Type
REMARK                         _______ _______ _______ _____ _____    ______ ____
ROOT
ATOM      1  C   UNL     1       2.462   5.192  20.057  0.00  0.00    +0.000 A 
ATOM      2  C   UNL     1       2.507   3.991  20.747  0.00  0.00    +0.000 A 
ATOM      3  N   UNL     1       3.446   3.048  20.515  0.00  0.00    +0.000 NA
ATOM      4  C   UNL     1       4.330   3.345  19.538  0.00  0.00    +0.000 A 
ATOM      5  C   UNL     1       4.271   4.515  18.775  0.00  0.00    +0.000 A 
ATOM      6  N   UNL     1       3.320   5.445  19.031  0.00  0.00    +0.000 NA
ENDROOT
BRANCH   5   7
ATOM      7  C   UNL     1       5.179   4.770  17.648  0.00  0.00    +0.000 A 
ATOM      8  C   UNL     1       4.724   4.403  16.351  0.00  0.00    +0.000 A 
ATOM      9  C   UNL     1       5.546   4.454  15.228  0.00  0.00    +0.000 A 
ATOM     10  C   UNL     1       6.841   4.915  15.357  0.00  0.00    +0.000 A 
ATOM     11  C   UNL     1       7.297   5.351  16.602  0.00  0.00    +0.000 A 
ATOM     12  C   UNL     1       6.485   5.297  17.758  0.00  0.00    +0.000 A 
BRANCH  12  13
ATOM     13  C   UNL     1       7.188   5.738  19.005  0.00  0.00    +0.000 C 
ATOM     14  O   UNL     1       7.036   5.128  20.061  0.00  0.00    +0.000 OA
BRANCH  13  15
ATOM     15  O   UNL     1       8.098   6.725  18.905  0.00  0.00    +0.000 OA
ATOM     16  H   UNL     1       7.845   7.410  18.239  0.00  0.00    +0.000 HD
ENDBRANCH  13  15
ENDBRANCH  12  13
ENDBRANCH   5   7
BRANCH   1  17
ATOM     17  C   UNL     1       1.444   6.254  20.388  0.00  0.00    +0.000 C 
BRANCH  17  21
ATOM     18  N   UNL     1       0.621   9.585  19.575  0.00  0.00    +0.000 NA
ATOM     19  C   UNL     1       0.137   9.174  20.908  0.00  0.00    +0.000 C 
ATOM     20  C   UNL     1       1.356   8.566  21.573  0.00  0.00    +0.000 C 
ATOM     21  C   UNL     1       1.952   7.712  20.456  0.00  0.00    +0.000 C 
ATOM     22  C   UNL     1       1.508   8.462  19.175  0.00  0.00    +0.000 C 
BRANCH  18  24
ATOM     23  C   UNL     1       2.017  11.200  18.232  0.00  0.00    +0.000 C 
ATOM     24  C   UNL     1       1.309  10.905  19.569  0.00  0.00    +0.000 C 
ATOM     25  C   UNL     1       0.356  12.088  19.842  0.00  0.00    +0.000 C 
ENDBRANCH  18  24
ENDBRANCH  17  21
ENDBRANCH   1  17
TORSDOF 6
ENDMDL
MODEL 3
REMARK VINA RESULT:      -7.2      3.620      8.496
REMARK  Name = 
REMARK  8 active torsions:
REMARK  status: ('A' for Active; 'I' for Inactive)
REMARK    1  A    between atoms: C_1  and  C_2
REMARK    2  A    between atoms: C_2  and  C_3
REMARK    3  A    between atoms: C_2  and  N_4
REMARK    4  A    between atoms: C_7  and  C_8
REMARK    5  A    between atoms: C_8  and  C_9
REMARK    6  A    between atoms: C_13  and  C_14
REMARK    7  A    between atoms: C_19  and  C_20
REMARK    8  A    between atoms: C_20  and  O_22
REMARK                            x       y       z     vdW  Elec       q    Type
REMARK                         _______ _______ _______ _____ _____    ______ ____
ROOT
ATOM      1  C   UNL     1       1.808   8.076  19.657  0.00  0.00    +0.000 A 
ATOM      2  C   UNL     1       2.142   8.409  18.353  0.00  0.00    +0.000 A 
ATOM      3  N   UNL     1       1.804   9.588  17.789  0.00  0.00    +0.000 NA
ATOM      4  C   UNL     1       1.088  10.419  18.578  0.00  0.00    +0.000 A 
ATOM      5  C   UNL     1       0.673  10.087  19.871  0.00  0.00    +0.000 A 
ATOM      6  N   UNL     1       1.029   8.898  20.413  0.00  0.00    +0.000 NA
ENDROOT
BRANCH   5   7
ATOM      7  C   UNL     1      -0.193  10.962  20.672  0.00  0.00    +0.000 A 
ATOM      8  C   UNL     1      -0.641  12.167  20.063  0.00  0.00    +0.000 A 
ATOM      9  C   UNL     1      -1.339  13.146  20.767  0.00  0.00    +0.000 A 
ATOM     10  C   UNL     1      -1.649  12.933  22.095  0.00  0.00    +0.000 A 
ATOM     11  C   UNL     1      -1.289  11.731  22.704  0.00  0.00    +0.000 A 
ATOM     12  C   UNL     1      -0.569  10.728  22.014  0.00  0.00    +0.000 A 
BRANCH  12  13
ATOM     13  C   UNL     1      -0.213   9.550  22.868  0.00  0.00    +0.000 C 
ATOM     14  O   UNL     1       0.552   9.675  23.822  0.00  0.00    +0.000 OA
BRANCH  13  15
ATOM     15  O   UNL     1      -0.862   8.391  22.654  0.00  0.00    +0.000 OA
ATOM     16  H   UNL     1      -1.843   8.505  22.614  0.00  0.00    +0.000 HD
ENDBRANCH  13  15
ENDBRANCH  12  13
ENDBRANCH   5   7
BRANCH   1  17
ATOM     17  C   UNL     1       2.261   6.781  20.280  0.00  0.00    +0.000 C 
BRANCH  17  21
ATOM     18  N   UNL     1       3.243   3.452  19.652  0.00  0.00    +0.000 NA
ATOM     19  C   UNL     1       2.449   3.602  20.888  0.00  0.00    +0.000 C 
ATOM     20  C   UNL     1       1.235   4.398  20.452  0.00  0.00    +0.000 C 
ATOM     21  C   UNL     1       1.847   5.477  19.561  0.00  0.00    +0.000 C 
ATOM     22  C   UNL     1       3.115   4.782  19.003  0.00  0.00    +0.000 C 
BRANCH  18  24
ATOM     23  C   UNL     1       2.472   2.785  17.346  0.00  0.00    +0.000 C 
ATOM     24  C   UNL     1       2.793   2.331  18.783  0.00  0.00    +0.000 C 
ATOM     25  C   UNL     1       3.831   1.194  18.672  0.00  0.00    +0.000 C 
ENDBRANCH  18  24
ENDBRANCH  17  21
ENDBRANCH   1  17
TORSDOF 6
ENDMDL
MODEL 4
REMARK VINA RESULT:      -7.2      1.494      1.832
REMARK  Name = 
REMARK  8 active torsions:
REMARK  status: ('A' for Active; 'I' for Inactive)
REMARK    1  A    between atoms: C_1  and  C_2
REMARK    2  A    between atoms: C_2  and  C_3
REMARK    3  A    between atoms: C_2  and  N_4
REMARK    4  A    between atoms: C_7  and  C_8
REMARK    5  A    between atoms: C_8  and  C_9
REMARK    6  A    between atoms: C_13  and  C_14
REMARK    7  A    between atoms: C_19  and  C_20
REMARK    8  A    between atoms: C_20  and  O_22
REMARK                            x       y       z     vdW  Elec       q    Type
REMARK                         _______ _______ _______ _____ _____    ______ ____
ROOT
ATOM      1  C   UNL     1       2.605   6.524  19.744  0.00  0.00    +0.000 A 
ATOM      2  C   UNL     1       2.045   5.407  20.345  0.00  0.00    +0.000 A 
ATOM      3  N   UNL     1       2.494   4.154  20.121  0.00  0.00    +0.000 NA
ATOM      4  C   UNL     1       3.517   4.056  19.243  0.00  0.00    +0.000 A 
ATOM      5  C   UNL     1       4.057   5.153  18.566  0.00  0.00    +0.000 A 
ATOM      6  N   UNL     1       3.590   6.400  18.812  0.00  0.00    +0.000 NA
ENDROOT
BRANCH   5   7
ATOM      7  C   UNL     1       5.097   5.012  17.537  0.00  0.00    +0.000 A 
ATOM      8  C   UNL     1       4.684   4.567  16.251  0.00  0.00    +0.000 A 
ATOM      9  C   UNL     1       5.591   4.252  15.242  0.00  0.00    +0.000 A 
ATOM     10  C   UNL     1       6.942   4.411  15.472  0.00  0.00    +0.000 A 
ATOM     11  C   UNL     1       7.379   4.915  16.698  0.00  0.00    +0.000 A 
ATOM     12  C   UNL     1       6.478   5.231  17.741  0.00  0.00    +0.000 A 
BRANCH  12  13
ATOM     13  C   UNL     1       7.154   5.683  18.999  0.00  0.00    +0.000 C 
ATOM     14  O   UNL     1       6.955   5.099  20.063  0.00  0.00    +0.000 OA
BRANCH  13  15
ATOM     15  O   UNL     1       8.089   6.646  18.907  0.00  0.00    +0.000 OA
ATOM     16  H   UNL     1       7.798   7.407  18.348  0.00  0.00    +0.000 HD
ENDBRANCH  13  15
ENDBRANCH  12  13
ENDBRANCH   5   7
BRANCH   1  17
ATOM     17  C   UNL     1       2.128   7.916  20.069  0.00  0.00    +0.000 C 
BRANCH  17  21
ATOM     18  N   UNL     1       0.613  10.961  19.135  0.00  0.00    +0.000 NA
ATOM     19  C   UNL     1       1.874  10.694  18.416  0.00  0.00    +0.000 C 
ATOM     20  C   UNL     1       1.710   9.279  17.895  0.00  0.00    +0.000 C 
ATOM     21  C   UNL     1       1.109   8.551  19.096  0.00  0.00    +0.000 C 
ATOM     22  C   UNL     1       0.339   9.677  19.832  0.00  0.00    +0.000 C 
BRANCH  18  24
ATOM     23  C   UNL     1      -1.820  10.653  18.546  0.00  0.00    +0.000 C 
ATOM     24  C   UNL     1      -0.502  11.394  18.248  0.00  0.00    +0.000 C 
ATOM     25  C   UNL     1      -0.805  12.905  18.348  0.00  0.00    +0.000 C 
ENDBRANCH  18  24
ENDBRANCH  17  21
ENDBRANCH   1  17
TORSDOF 6
ENDMDL
MODEL 5
REMARK VINA RESULT:      -7.1      2.445      4.017
REMARK  Name = 
REMARK  8 active torsions:
REMARK  status: ('A' for Active; 'I' for Inactive)
REMARK    1  A    between atoms: C_1  and  C_2
REMARK    2  A    between atoms: C_2  and  C_3
REMARK    3  A    between atoms: C_2  and  N_4
REMARK    4  A    between atoms: C_7  and  C_8
REMARK    5  A    between atoms: C_8  and  C_9
REMARK    6  A    between atoms: C_13  and  C_14
REMARK    7  A    between atoms: C_19  and  C_20
REMARK    8  A    between atoms: C_20  and  O_22
REMARK                            x       y       z     vdW  Elec       q    Type
REMARK                         _______ _______ _______ _____ _____    ______ ____
ROOT
ATOM      1  C   UNL     1       3.005   7.674  17.922  0.00  0.00    +0.000 A 
ATOM      2  C   UNL     1       4.194   7.523  17.225  0.00  0.00    +0.000 A 
ATOM      3  N   UNL     1       4.877   6.359  17.186  0.00  0.00    +0.000 NA
ATOM      4  C   UNL     1       4.334   5.349  17.901  0.00  0.00    +0.000 A 
ATOM      5  C   UNL     1       3.176   5.487  18.672  0.00  0.00    +0.000 A 
ATOM      6  N   UNL     1       2.509   6.666  18.690  0.00  0.00    +0.000 NA
ENDROOT
BRANCH   5   7
ATOM      7  C   UNL     1       2.662   4.407  19.525  0.00  0.00    +0.000 A 
ATOM      8  C   UNL     1       2.324   4.742  20.865  0.00  0.00    +0.000 A 
ATOM      9  C   UNL     1       1.971   3.781  21.810  0.00  0.00    +0.000 A 
ATOM     10  C   UNL     1       1.903   2.455  21.434  0.00  0.00    +0.000 A 
ATOM     11  C   UNL     1       2.157   2.099  20.109  0.00  0.00    +0.000 A 
ATOM     12  C   UNL     1       2.530   3.055  19.136  0.00  0.00    +0.000 A 
BRANCH  12  13
ATOM     13  C   UNL     1       2.833   2.458  17.795  0.00  0.00    +0.000 C 
ATOM     14  O   UNL     1       2.168   2.763  16.807  0.00  0.00    +0.000 OA
BRANCH  13  15
ATOM     15  O   UNL     1       3.937   1.698  17.675  0.00  0.00    +0.000 OA
ATOM     16  H   UNL     1       3.745   0.806  17.294  0.00  0.00    +0.000 HD
ENDBRANCH  13  15
ENDBRANCH  12  13
ENDBRANCH   5   7
BRANCH   1  17
ATOM     17  C   UNL     1       2.230   8.967  17.887  0.00  0.00    +0.000 C 
BRANCH  17  21
ATOM     18  N   UNL     1       0.767  10.589  20.656  0.00  0.00    +0.000 NA
ATOM     19  C   UNL     1       0.531  11.290  19.378  0.00  0.00    +0.000 C 
ATOM     20  C   UNL     1       0.016  10.206  18.452  0.00  0.00    +0.000 C 
ATOM     21  C   UNL     1       0.953   9.039  18.754  0.00  0.00    +0.000 C 
ATOM     22  C   UNL     1       1.355   9.293  20.229  0.00  0.00    +0.000 C 
BRANCH  18  24
ATOM     23  C   UNL     1      -0.284   9.388  22.609  0.00  0.00    +0.000 C 
ATOM     24  C   UNL     1      -0.458  10.430  21.487  0.00  0.00    +0.000 C 
ATOM     25  C   UNL     1      -0.908  11.743  22.162  0.00  0.00    +0.000 C 
ENDBRANCH  18  24
ENDBRANCH  17  21
ENDBRANCH   1  17
TORSDOF 6
ENDMDL
MODEL 6
REMARK VINA RESULT:      -7.1      4.044      8.671
REMARK  Name = 
REMARK  8 active torsions:
REMARK  status: ('A' for Active; 'I' for Inactive)
REMARK    1  A    between atoms: C_1  and  C_2
REMARK    2  A    between atoms: C_2  and  C_3
REMARK    3  A    between atoms: C_2  and  N_4
REMARK    4  A    between atoms: C_7  and  C_8
REMARK    5  A    between atoms: C_8  and  C_9
REMARK    6  A    between atoms: C_13  and  C_14
REMARK    7  A    between atoms: C_19  and  C_20
REMARK    8  A    between atoms: C_20  and  O_22
REMARK                            x       y       z     vdW  Elec       q    Type
REMARK                         _______ _______ _______ _____ _____    ______ ____
ROOT
ATOM      1  C   UNL     1       1.885   7.900  19.550  0.00  0.00    +0.000 A 
ATOM      2  C   UNL     1       2.413   8.128  18.289  0.00  0.00    +0.000 A 
ATOM      3  N   UNL     1       2.219   9.281  17.612  0.00  0.00    +0.000 NA
ATOM      4  C   UNL     1       1.447  10.194  18.240  0.00  0.00    +0.000 A 
ATOM      5  C   UNL     1       0.841   9.969  19.480  0.00  0.00    +0.000 A 
ATOM      6  N   UNL     1       1.055   8.805  20.138  0.00  0.00    +0.000 NA
ENDROOT
BRANCH   5   7
ATOM      7  C   UNL     1      -0.079  10.935  20.096  0.00  0.00    +0.000 A 
ATOM      8  C   UNL     1       0.181  11.312  21.443  0.00  0.00    +0.000 A 
ATOM      9  C   UNL     1      -0.699  12.099  22.182  0.00  0.00    +0.000 A 
ATOM     10  C   UNL     1      -1.851  12.569  21.585  0.00  0.00    +0.000 A 
ATOM     11  C   UNL     1      -2.102  12.279  20.244  0.00  0.00    +0.000 A 
ATOM     12  C   UNL     1      -1.229  11.472  19.477  0.00  0.00    +0.000 A 
BRANCH  12  13
ATOM     13  C   UNL     1      -1.719  11.217  18.084  0.00  0.00    +0.000 C 
ATOM     14  O   UNL     1      -2.241  10.144  17.790  0.00  0.00    +0.000 OA
BRANCH  13  15
ATOM     15  O   UNL     1      -1.705  12.239  17.209  0.00  0.00    +0.000 OA
ATOM     16  H   UNL     1      -2.582  12.382  16.776  0.00  0.00    +0.000 HD
ENDBRANCH  13  15
ENDBRANCH  12  13
ENDBRANCH   5   7
BRANCH   1  17
ATOM     17  C   UNL     1       2.178   6.631  20.309  0.00  0.00    +0.000 C 
BRANCH  17  21
ATOM     18  N   UNL     1       3.246   3.318  19.740  0.00  0.00    +0.000 NA
ATOM     19  C   UNL     1       2.460   3.472  20.981  0.00  0.00    +0.000 C 
ATOM     20  C   UNL     1       1.220   4.225  20.541  0.00  0.00    +0.000 C 
ATOM     21  C   UNL     1       1.793   5.301  19.622  0.00  0.00    +0.000 C 
ATOM     22  C   UNL     1       3.075   4.631  19.065  0.00  0.00    +0.000 C 
BRANCH  18  24
ATOM     23  C   UNL     1       2.403   2.592  17.478  0.00  0.00    +0.000 C 
ATOM     24  C   UNL     1       2.818   2.167  18.900  0.00  0.00    +0.000 C 
ATOM     25  C   UNL     1       3.912   1.089  18.744  0.00  0.00    +0.000 C 
ENDBRANCH  18  24
ENDBRANCH  17  21
ENDBRANCH   1  17
TORSDOF 6
ENDMDL
MODEL 7
REMARK VINA RESULT:      -7.0      2.160      3.064
REMARK  Name = 
REMARK  8 active torsions:
REMARK  status: ('A' for Active; 'I' for Inactive)
REMARK    1  A    between atoms: C_1  and  C_2
REMARK    2  A    between atoms: C_2  and  C_3
REMARK    3  A    between atoms: C_2  and  N_4
REMARK    4  A    between atoms: C_7  and  C_8
REMARK    5  A    between atoms: C_8  and  C_9
REMARK    6  A    between atoms: C_13  and  C_14
REMARK    7  A    between atoms: C_19  and  C_20
REMARK    8  A    between atoms: C_20  and  O_22
REMARK                            x       y       z     vdW  Elec       q    Type
REMARK                         _______ _______ _______ _____ _____    ______ ____
ROOT
ATOM      1  C   UNL     1       2.092   5.558  19.957  0.00  0.00    +0.000 A 
ATOM      2  C   UNL     1       1.671   4.292  19.580  0.00  0.00    +0.000 A 
ATOM      3  N   UNL     1       2.485   3.401  18.973  0.00  0.00    +0.000 NA
ATOM      4  C   UNL     1       3.739   3.839  18.731  0.00  0.00    +0.000 A 
ATOM      5  C   UNL     1       4.175   5.133  19.032  0.00  0.00    +0.000 A 
ATOM      6  N   UNL     1       3.339   6.005  19.643  0.00  0.00    +0.000 NA
ENDROOT
BRANCH   5   7
ATOM      7  C   UNL     1       5.511   5.622  18.664  0.00  0.00    +0.000 A 
ATOM      8  C   UNL     1       6.589   5.280  19.527  0.00  0.00    +0.000 A 
ATOM      9  C   UNL     1       7.869   5.806  19.369  0.00  0.00    +0.000 A 
ATOM     10  C   UNL     1       8.124   6.663  18.317  0.00  0.00    +0.000 A 
ATOM     11  C   UNL     1       7.107   6.963  17.410  0.00  0.00    +0.000 A 
ATOM     12  C   UNL     1       5.798   6.450  17.556  0.00  0.00    +0.000 A 
BRANCH  12  13
ATOM     13  C   UNL     1       4.838   6.955  16.523  0.00  0.00    +0.000 C 
ATOM     14  O   UNL     1       5.059   6.785  15.325  0.00  0.00    +0.000 OA
BRANCH  13  15
ATOM     15  O   UNL     1       3.666   7.467  16.941  0.00  0.00    +0.000 OA
ATOM     16  H   UNL     1       2.892   7.093  16.454  0.00  0.00    +0.000 HD
ENDBRANCH  13  15
ENDBRANCH  12  13
ENDBRANCH   5   7
BRANCH   1  17
ATOM     17  C   UNL     1       1.180   6.503  20.696  0.00  0.00    +0.000 C 
BRANCH  17  21
ATOM     18  N   UNL     1       0.308   9.869  20.106  0.00  0.00    +0.000 NA
ATOM     19  C   UNL     1      -0.165   9.365  21.410  0.00  0.00    +0.000 C 
ATOM     20  C   UNL     1       1.065   8.732  22.030  0.00  0.00    +0.000 C 
ATOM     21  C   UNL     1       1.668   7.961  20.858  0.00  0.00    +0.000 C 
ATOM     22  C   UNL     1       1.209   8.788  19.630  0.00  0.00    +0.000 C 
BRANCH  18  24
ATOM     23  C   UNL     1       1.298  11.784  18.797  0.00  0.00    +0.000 C 
ATOM     24  C   UNL     1       0.979  11.196  20.185  0.00  0.00    +0.000 C 
ATOM     25  C   UNL     1       0.144  12.254  20.938  0.00  0.00    +0.000 C 
ENDBRANCH  18  24
ENDBRANCH  17  21
ENDBRANCH   1  17
TORSDOF 6
ENDMDL
MODEL 8
REMARK VINA RESULT:      -7.0      2.470      4.238
REMARK  Name = 
REMARK  8 active torsions:
REMARK  status: ('A' for Active; 'I' for Inactive)
REMARK    1  A    between atoms: C_1  and  C_2
REMARK    2  A    between atoms: C_2  and  C_3
REMARK    3  A    between atoms: C_2  and  N_4
REMARK    4  A    between atoms: C_7  and  C_8
REMARK    5  A    between atoms: C_8  and  C_9
REMARK    6  A    between atoms: C_13  and  C_14
REMARK    7  A    between atoms: C_19  and  C_20
REMARK    8  A    between atoms: C_20  and  O_22
REMARK                            x       y       z     vdW  Elec       q    Type
REMARK                         _______ _______ _______ _____ _____    ______ ____
ROOT
ATOM      1  C   UNL     1       1.910   8.416  18.919  0.00  0.00    +0.000 A 
ATOM      2  C   UNL     1       2.748   8.636  17.837  0.00  0.00    +0.000 A 
ATOM      3  N   UNL     1       3.495   7.658  17.280  0.00  0.00    +0.000 NA
ATOM      4  C   UNL     1       3.390   6.447  17.871  0.00  0.00    +0.000 A 
ATOM      5  C   UNL     1       2.611   6.208  19.006  0.00  0.00    +0.000 A 
ATOM      6  N   UNL     1       1.869   7.207  19.542  0.00  0.00    +0.000 NA
ENDROOT
BRANCH   5   7
ATOM      7  C   UNL     1       2.594   4.910  19.694  0.00  0.00    +0.000 A 
ATOM      8  C   UNL     1       1.404   4.560  20.392  0.00  0.00    +0.000 A 
ATOM      9  C   UNL     1       1.319   3.431  21.203  0.00  0.00    +0.000 A 
ATOM     10  C   UNL     1       2.409   2.591  21.312  0.00  0.00    +0.000 A 
ATOM     11  C   UNL     1       3.567   2.865  20.583  0.00  0.00    +0.000 A 
ATOM     12  C   UNL     1       3.681   4.011  19.763  0.00  0.00    +0.000 A 
BRANCH  12  13
ATOM     13  C   UNL     1       5.031   4.162  19.131  0.00  0.00    +0.000 C 
ATOM     14  O   UNL     1       5.921   4.795  19.695  0.00  0.00    +0.000 OA
BRANCH  13  15
ATOM     15  O   UNL     1       5.286   3.470  18.005  0.00  0.00    +0.000 OA
ATOM     16  H   UNL     1       4.785   2.619  17.959  0.00  0.00    +0.000 HD
ENDBRANCH  13  15
ENDBRANCH  12  13
ENDBRANCH   5   7
BRANCH   1  17
ATOM     17  C   UNL     1       1.035   9.513  19.473  0.00  0.00    +0.000 C 
BRANCH  17  21
ATOM     18  N   UNL     1      -2.144  10.436  18.257  0.00  0.00    +0.000 NA
ATOM     19  C   UNL     1      -1.695  11.258  19.398  0.00  0.00    +0.000 C 
ATOM     20  C   UNL     1      -0.297  11.697  19.011  0.00  0.00    +0.000 C 
ATOM     21  C   UNL     1       0.310  10.413  18.448  0.00  0.00    +0.000 C 
ATOM     22  C   UNL     1      -0.928   9.659  17.899  0.00  0.00    +0.000 C 
BRANCH  18  24
ATOM     23  C   UNL     1      -2.596  10.484  15.776  0.00  0.00    +0.000 C 
ATOM     24  C   UNL     1      -2.684  11.232  17.121  0.00  0.00    +0.000 C 
ATOM     25  C   UNL     1      -4.162  11.636  17.312  0.00  0.00    +0.000 C 
ENDBRANCH  18  24
ENDBRANCH  17  21
ENDBRANCH   1  17
TORSDOF 6
ENDMDL
MODEL 9
REMARK VINA RESULT:      -7.0      1.424      1.783
REMARK  Name = 
REMARK  8 active torsions:
REMARK  status: ('A' for Active; 'I' for Inactive)
REMARK    1  A    between atoms: C_1  and  C_2
REMARK    2  A    between atoms: C_2  and  C_3
REMARK    3  A    between atoms: C_2  and  N_4
REMARK    4  A    between atoms: C_7  and  C_8
REMARK    5  A    between atoms: C_8  and  C_9
REMARK    6  A    between atoms: C_13  and  C_14
REMARK    7  A    between atoms: C_19  and  C_20
REMARK    8  A    between atoms: C_20  and  O_22
REMARK                            x       y       z     vdW  Elec       q    Type
REMARK                         _______ _______ _______ _____ _____    ______ ____
ROOT
ATOM      1  C   UNL     1       2.550   7.413  18.422  0.00  0.00    +0.000 A 
ATOM      2  C   UNL     1       2.425   6.711  19.611  0.00  0.00    +0.000 A 
ATOM      3  N   UNL     1       3.240   5.687  19.945  0.00  0.00    +0.000 NA
ATOM      4  C   UNL     1       4.177   5.372  19.023  0.00  0.00    +0.000 A 
ATOM      5  C   UNL     1       4.284   6.012  17.785  0.00  0.00    +0.000 A 
ATOM      6  N   UNL     1       3.455   7.038  17.477  0.00  0.00    +0.000 NA
ENDROOT
BRANCH   5   7
ATOM      7  C   UNL     1       5.241   5.585  16.755  0.00  0.00    +0.000 A 
ATOM      8  C   UNL     1       4.769   4.678  15.766  0.00  0.00    +0.000 A 
ATOM      9  C   UNL     1       5.614   4.085  14.830  0.00  0.00    +0.000 A 
ATOM     10  C   UNL     1       6.955   4.412  14.827  0.00  0.00    +0.000 A 
ATOM     11  C   UNL     1       7.439   5.353  15.737  0.00  0.00    +0.000 A 
ATOM     12  C   UNL     1       6.602   5.959  16.703  0.00  0.00    +0.000 A 
BRANCH  12  13
ATOM     13  C   UNL     1       7.331   6.880  17.632  0.00  0.00    +0.000 C 
ATOM     14  O   UNL     1       7.787   6.466  18.697  0.00  0.00    +0.000 OA
BRANCH  13  15
ATOM     15  O   UNL     1       7.598   8.129  17.208  0.00  0.00    +0.000 OA
ATOM     16  H   UNL     1       7.311   8.820  17.854  0.00  0.00    +0.000 HD
ENDBRANCH  13  15
ENDBRANCH  12  13
ENDBRANCH   5   7
BRANCH   1  17
ATOM     17  C   UNL     1       1.669   8.596  18.110  0.00  0.00    +0.000 C 
BRANCH  17  21
ATOM     18  N   UNL     1       0.213  11.719  18.859  0.00  0.00    +0.000 NA
ATOM     19  C   UNL     1      -0.686  10.579  19.126  0.00  0.00    +0.000 C 
ATOM     20  C   UNL     1       0.157   9.630  19.955  0.00  0.00    +0.000 C 
ATOM     21  C   UNL     1       1.498   9.653  19.225  0.00  0.00    +0.000 C 
ATOM     22  C   UNL     1       1.520  11.067  18.590  0.00  0.00    +0.000 C 
BRANCH  18  24
ATOM     23  C   UNL     1       1.714  13.034  20.401  0.00  0.00    +0.000 C 
ATOM     24  C   UNL     1       0.270  12.708  19.971  0.00  0.00    +0.000 C 
ATOM     25  C   UNL     1      -0.408  14.050  19.625  0.00  0.00    +0.000 C 
ENDBRANCH  18  24
ENDBRANCH  17  21
ENDBRANCH   1  17
TORSDOF 6
ENDMDL
