MODEL 1
REMARK VINA RESULT:      -7.1      0.000      0.000
REMARK  Name = 
REMARK  5 active torsions:
REMARK  status: ('A' for Active; 'I' for Inactive)
REMARK    1  A    between atoms: C_1  and  C_2
REMARK    2  A    between atoms: C_4  and  C_5
REMARK    3  A    between atoms: C_4  and  C_6
REMARK    4  A    between atoms: C_9  and  O_10
REMARK    5  A    between atoms: C_9  and  C_11
REMARK                            x       y       z     vdW  Elec       q    Type
REMARK                         _______ _______ _______ _____ _____    ______ ____
ROOT
ATOM      1  C   UNL     1       3.361   2.563  20.550  0.00  0.00    +0.000 C 
ATOM      2  C   UNL     1       4.090   3.605  19.689  0.00  0.00    +0.000 C 
ATOM      3  N   UNL     1       3.700   4.986  20.076  0.00  0.00    +0.000 NA
ATOM      4  C   UNL     1       2.439   5.441  19.439  0.00  0.00    +0.000 C 
ATOM      5  C   UNL     1       1.229   4.979  20.271  0.00  0.00    +0.000 C 
ATOM      6  C   UNL     1       2.457   6.984  19.473  0.00  0.00    +0.000 C 
ATOM      7  C   UNL     1       2.285   4.993  17.958  0.00  0.00    +0.000 C 
ATOM      8  O   UNL     1       2.648   3.627  17.709  0.00  0.00    +0.000 OA
ATOM      9  C   UNL     1       3.982   3.315  18.141  0.00  0.00    +0.000 C 
ATOM     10  H   UNL     1       4.451   5.603  19.758  0.00  0.00    +0.000 HD
ENDROOT
BRANCH   9  11
ATOM     11  C   UNL     1       5.056   3.975  17.264  0.00  0.00    +0.000 A 
ATOM     12  C   UNL     1       6.035   4.840  17.790  0.00  0.00    +0.000 A 
ATOM     13  C   UNL     1       7.016   5.420  16.978  0.00  0.00    +0.000 A 
ATOM     14  C   UNL     1       7.053   5.134  15.618  0.00  0.00    +0.000 A 
ATOM     15  C   UNL     1       6.117   4.255  15.079  0.00  0.00    +0.000 A 
ATOM     16 CL   UNL     1       6.176   3.887  13.399  0.00  0.00    +0.000 Cl
ATOM     17  C   UNL     1       5.138   3.673  15.888  0.00  0.00    +0.000 A 
ENDBRANCH   9  11
BRANCH   9  18
ATOM     18  O   UNL     1       4.134   1.919  17.905  0.00  0.00    +0.000 OA
ATOM     19  H   UNL     1       5.082   1.772  18.060  0.00  0.00    +0.000 HD
ENDBRANCH   9  18
TORSDOF 2
ENDMDL
MODEL 2
REMARK VINA RESULT:      -7.1      1.413      1.831
REMARK  Name = 
REMARK  5 active torsions:
REMARK  status: ('A' for Active; 'I' for Inactive)
REMARK    1  A    between atoms: C_1  and  C_2
REMARK    2  A    between atoms: C_4  and  C_5
REMARK    3  A    between atoms: C_4  and  C_6
REMARK    4  A    between atoms: C_9  and  O_10
REMARK    5  A    between atoms: C_9  and  C_11
REMARK                            x       y       z     vdW  Elec       q    Type
REMARK                         _______ _______ _______ _____ _____    ______ ____
ROOT
ATOM      1  C   UNL     1       3.381   2.517  20.480  0.00  0.00    +0.000 C 
ATOM      2  C   UNL     1       4.057   3.641  19.680  0.00  0.00    +0.000 C 
ATOM      3  N   UNL     1       3.618   4.977  20.157  0.00  0.00    +0.000 NA
ATOM      4  C   UNL     1       2.332   5.420  19.563  0.00  0.00    +0.000 C 
ATOM      5  C   UNL     1       1.152   4.858  20.375  0.00  0.00    +0.000 C 
ATOM      6  C   UNL     1       2.290   6.958  19.696  0.00  0.00    +0.000 C 
ATOM      7  C   UNL     1       2.179   5.061  18.058  0.00  0.00    +0.000 C 
ATOM      8  O   UNL     1       2.593   3.730  17.719  0.00  0.00    +0.000 OA
ATOM      9  C   UNL     1       3.943   3.445  18.118  0.00  0.00    +0.000 C 
ATOM     10  H   UNL     1       4.340   5.643  19.873  0.00  0.00    +0.000 HD
ENDROOT
BRANCH   9  11
ATOM     11  C   UNL     1       4.979   4.202  17.275  0.00  0.00    +0.000 A 
ATOM     12  C   UNL     1       5.091   4.030  15.881  0.00  0.00    +0.000 A 
ATOM     13  C   UNL     1       6.030   4.741  15.126  0.00  0.00    +0.000 A 
ATOM     14  C   UNL     1       6.871   5.659  15.745  0.00  0.00    +0.000 A 
ATOM     15  C   UNL     1       6.757   5.872  17.116  0.00  0.00    +0.000 A 
ATOM     16 CL   UNL     1       7.786   7.023  17.879  0.00  0.00    +0.000 Cl
ATOM     17  C   UNL     1       5.819   5.165  17.872  0.00  0.00    +0.000 A 
ENDBRANCH   9  11
BRANCH   9  18
ATOM     18  O   UNL     1       4.147   2.074  17.792  0.00  0.00    +0.000 OA
ATOM     19  H   UNL     1       4.216   1.648  18.663  0.00  0.00    +0.000 HD
ENDBRANCH   9  18
TORSDOF 2
ENDMDL
MODEL 3
REMARK VINA RESULT:      -6.8      3.550      5.295
REMARK  Name = 
REMARK  5 active torsions:
REMARK  status: ('A' for Active; 'I' for Inactive)
REMARK    1  A    between atoms: C_1  and  C_2
REMARK    2  A    between atoms: C_4  and  C_5
REMARK    3  A    between atoms: C_4  and  C_6
REMARK    4  A    between atoms: C_9  and  O_10
REMARK    5  A    between atoms: C_9  and  C_11
REMARK                            x       y       z     vdW  Elec       q    Type
REMARK                         _______ _______ _______ _____ _____    ______ ____
ROOT
ATOM      1  C   UNL     1       5.241   4.425  19.071  0.00  0.00    +0.000 C 
ATOM      2  C   UNL     1       4.043   5.291  19.490  0.00  0.00    +0.000 C 
ATOM      3  N   UNL     1       3.077   4.510  20.304  0.00  0.00    +0.000 NA
ATOM      4  C   UNL     1       2.129   3.714  19.486  0.00  0.00    +0.000 C 
ATOM      5  C   UNL     1       2.755   2.356  19.120  0.00  0.00    +0.000 C 
ATOM      6  C   UNL     1       0.904   3.427  20.382  0.00  0.00    +0.000 C 
ATOM      7  C   UNL     1       1.631   4.447  18.209  0.00  0.00    +0.000 C 
ATOM      8  O   UNL     1       2.658   5.130  17.476  0.00  0.00    +0.000 OA
ATOM      9  C   UNL     1       3.389   6.068  18.282  0.00  0.00    +0.000 C 
ATOM     10  H   UNL     1       2.533   5.188  20.843  0.00  0.00    +0.000 HD
ENDROOT
BRANCH   9  11
ATOM     11  C   UNL     1       2.553   7.300  18.658  0.00  0.00    +0.000 A 
ATOM     12  C   UNL     1       2.136   8.250  17.707  0.00  0.00    +0.000 A 
ATOM     13  C   UNL     1       1.361   9.358  18.065  0.00  0.00    +0.000 A 
ATOM     14  C   UNL     1       0.964   9.533  19.386  0.00  0.00    +0.000 A 
ATOM     15  C   UNL     1       1.334   8.589  20.340  0.00  0.00    +0.000 A 
ATOM     16 CL   UNL     1       0.827   8.797  21.972  0.00  0.00    +0.000 Cl
ATOM     17  C   UNL     1       2.107   7.482  19.984  0.00  0.00    +0.000 A 
ENDBRANCH   9  11
BRANCH   9  18
ATOM     18  O   UNL     1       4.411   6.575  17.430  0.00  0.00    +0.000 OA
ATOM     19  H   UNL     1       3.910   7.041  16.739  0.00  0.00    +0.000 HD
ENDBRANCH   9  18
TORSDOF 2
ENDMDL
MODEL 4
REMARK VINA RESULT:      -6.7      3.229      5.398
REMARK  Name = 
REMARK  5 active torsions:
REMARK  status: ('A' for Active; 'I' for Inactive)
REMARK    1  A    between atoms: C_1  and  C_2
REMARK    2  A    between atoms: C_4  and  C_5
REMARK    3  A    between atoms: C_4  and  C_6
REMARK    4  A    between atoms: C_9  and  O_10
REMARK    5  A    between atoms: C_9  and  C_11
REMARK                            x       y       z     vdW  Elec       q    Type
REMARK                         _______ _______ _______ _____ _____    ______ ____
ROOT
ATOM      1  C   UNL     1       4.886   3.789  16.148  0.00  0.00    +0.000 C 
ATOM      2  C   UNL     1       4.624   5.207  16.678  0.00  0.00    +0.000 C 
ATOM      3  N   UNL     1       5.870   6.018  16.677  0.00  0.00    +0.000 NA
ATOM      4  C   UNL     1       6.715   5.798  17.877  0.00  0.00    +0.000 C 
ATOM      5  C   UNL     1       7.632   4.581  17.664  0.00  0.00    +0.000 C 
ATOM      6  C   UNL     1       7.623   7.039  18.012  0.00  0.00    +0.000 C 
ATOM      7  C   UNL     1       5.906   5.646  19.196  0.00  0.00    +0.000 C 
ATOM      8  O   UNL     1       4.748   4.806  19.091  0.00  0.00    +0.000 OA
ATOM      9  C   UNL     1       3.847   5.221  18.052  0.00  0.00    +0.000 C 
ATOM     10  H   UNL     1       5.581   6.999  16.672  0.00  0.00    +0.000 HD
ENDROOT
BRANCH   9  11
ATOM     11  C   UNL     1       3.119   6.529  18.391  0.00  0.00    +0.000 A 
ATOM     12  C   UNL     1       2.984   7.582  17.465  0.00  0.00    +0.000 A 
ATOM     13  C   UNL     1       2.303   8.761  17.787  0.00  0.00    +0.000 A 
ATOM     14  C   UNL     1       1.722   8.910  19.041  0.00  0.00    +0.000 A 
ATOM     15  C   UNL     1       1.811   7.870  19.962  0.00  0.00    +0.000 A 
ATOM     16 CL   UNL     1       1.074   8.048  21.508  0.00  0.00    +0.000 Cl
ATOM     17  C   UNL     1       2.489   6.692  19.643  0.00  0.00    +0.000 A 
ENDBRANCH   9  11
BRANCH   9  18
ATOM     18  O   UNL     1       2.821   4.234  18.031  0.00  0.00    +0.000 OA
ATOM     19  H   UNL     1       2.028   4.736  18.284  0.00  0.00    +0.000 HD
ENDBRANCH   9  18
TORSDOF 2
ENDMDL
MODEL 5
REMARK VINA RESULT:      -6.7      1.130      1.156
REMARK  Name = 
REMARK  5 active torsions:
REMARK  status: ('A' for Active; 'I' for Inactive)
REMARK    1  A    between atoms: C_1  and  C_2
REMARK    2  A    between atoms: C_4  and  C_5
REMARK    3  A    between atoms: C_4  and  C_6
REMARK    4  A    between atoms: C_9  and  O_10
REMARK    5  A    between atoms: C_9  and  C_11
REMARK                            x       y       z     vdW  Elec       q    Type
REMARK                         _______ _______ _______ _____ _____    ______ ____
ROOT
ATOM      1  C   UNL     1       4.149   2.113  20.390  0.00  0.00    +0.000 C 
ATOM      2  C   UNL     1       4.282   3.396  19.556  0.00  0.00    +0.000 C 
ATOM      3  N   UNL     1       3.621   4.544  20.230  0.00  0.00    +0.000 NA
ATOM      4  C   UNL     1       2.160   4.611  19.976  0.00  0.00    +0.000 C 
ATOM      5  C   UNL     1       1.406   3.723  20.981  0.00  0.00    +0.000 C 
ATOM      6  C   UNL     1       1.732   6.071  20.243  0.00  0.00    +0.000 C 
ATOM      7  C   UNL     1       1.759   4.249  18.519  0.00  0.00    +0.000 C 
ATOM      8  O   UNL     1       2.427   3.097  17.985  0.00  0.00    +0.000 OA
ATOM      9  C   UNL     1       3.859   3.202  18.048  0.00  0.00    +0.000 C 
ATOM     10  H   UNL     1       4.045   5.392  19.848  0.00  0.00    +0.000 HD
ENDROOT
BRANCH   9  11
ATOM     11  C   UNL     1       4.417   4.238  17.062  0.00  0.00    +0.000 A 
ATOM     12  C   UNL     1       4.342   5.624  17.297  0.00  0.00    +0.000 A 
ATOM     13  C   UNL     1       4.871   6.553  16.395  0.00  0.00    +0.000 A 
ATOM     14  C   UNL     1       5.508   6.116  15.238  0.00  0.00    +0.000 A 
ATOM     15  C   UNL     1       5.627   4.750  15.000  0.00  0.00    +0.000 A 
ATOM     16 CL   UNL     1       6.433   4.209  13.578  0.00  0.00    +0.000 Cl
ATOM     17  C   UNL     1       5.101   3.821  15.900  0.00  0.00    +0.000 A 
ENDBRANCH   9  11
BRANCH   9  18
ATOM     18  O   UNL     1       4.346   1.953  17.571  0.00  0.00    +0.000 OA
ATOM     19  H   UNL     1       5.298   1.999  17.766  0.00  0.00    +0.000 HD
ENDBRANCH   9  18
TORSDOF 2
ENDMDL
MODEL 6
REMARK VINA RESULT:      -6.7      1.625      1.939
REMARK  Name = 
REMARK  5 active torsions:
REMARK  status: ('A' for Active; 'I' for Inactive)
REMARK    1  A    between atoms: C_1  and  C_2
REMARK    2  A    between atoms: C_4  and  C_5
REMARK    3  A    between atoms: C_4  and  C_6
REMARK    4  A    between atoms: C_9  and  O_10
REMARK    5  A    between atoms: C_9  and  C_11
REMARK                            x       y       z     vdW  Elec       q    Type
REMARK                         _______ _______ _______ _____ _____    ______ ____
ROOT
ATOM      1  C   UNL     1       2.716   2.745  21.229  0.00  0.00    +0.000 C 
ATOM      2  C   UNL     1       3.290   3.718  20.188  0.00  0.00    +0.000 C 
ATOM      3  N   UNL     1       2.204   4.410  19.446  0.00  0.00    +0.000 NA
ATOM      4  C   UNL     1       1.671   3.616  18.311  0.00  0.00    +0.000 C 
ATOM      5  C   UNL     1       0.577   2.653  18.804  0.00  0.00    +0.000 C 
ATOM      6  C   UNL     1       1.000   4.619  17.347  0.00  0.00    +0.000 C 
ATOM      7  C   UNL     1       2.763   2.842  17.518  0.00  0.00    +0.000 C 
ATOM      8  O   UNL     1       3.733   2.176  18.338  0.00  0.00    +0.000 OA
ATOM      9  C   UNL     1       4.386   3.061  19.263  0.00  0.00    +0.000 C 
ATOM     10  H   UNL     1       2.609   5.268  19.066  0.00  0.00    +0.000 HD
ENDROOT
BRANCH   9  11
ATOM     11  C   UNL     1       5.343   4.039  18.567  0.00  0.00    +0.000 A 
ATOM     12  C   UNL     1       6.049   5.035  19.269  0.00  0.00    +0.000 A 
ATOM     13  C   UNL     1       6.930   5.907  18.621  0.00  0.00    +0.000 A 
ATOM     14  C   UNL     1       7.142   5.793  17.251  0.00  0.00    +0.000 A 
ATOM     15  C   UNL     1       6.482   4.795  16.540  0.00  0.00    +0.000 A 
ATOM     16 CL   UNL     1       6.760   4.642  14.848  0.00  0.00    +0.000 Cl
ATOM     17  C   UNL     1       5.604   3.921  17.186  0.00  0.00    +0.000 A 
ENDBRANCH   9  11
BRANCH   9  18
ATOM     18  O   UNL     1       5.233   2.225  20.045  0.00  0.00    +0.000 OA
ATOM     19  H   UNL     1       6.039   2.162  19.505  0.00  0.00    +0.000 HD
ENDBRANCH   9  18
TORSDOF 2
ENDMDL
MODEL 7
REMARK VINA RESULT:      -6.6      2.783      5.139
REMARK  Name = 
REMARK  5 active torsions:
REMARK  status: ('A' for Active; 'I' for Inactive)
REMARK    1  A    between atoms: C_1  and  C_2
REMARK    2  A    between atoms: C_4  and  C_5
REMARK    3  A    between atoms: C_4  and  C_6
REMARK    4  A    between atoms: C_9  and  O_10
REMARK    5  A    between atoms: C_9  and  C_11
REMARK                            x       y       z     vdW  Elec       q    Type
REMARK                         _______ _______ _______ _____ _____    ______ ____
ROOT
ATOM      1  C   UNL     1       5.205   4.347  15.438  0.00  0.00    +0.000 C 
ATOM      2  C   UNL     1       4.856   5.448  16.452  0.00  0.00    +0.000 C 
ATOM      3  N   UNL     1       6.069   6.203  16.861  0.00  0.00    +0.000 NA
ATOM      4  C   UNL     1       6.834   5.541  17.946  0.00  0.00    +0.000 C 
ATOM      5  C   UNL     1       7.807   4.506  17.353  0.00  0.00    +0.000 C 
ATOM      6  C   UNL     1       7.686   6.639  18.619  0.00  0.00    +0.000 C 
ATOM      7  C   UNL     1       5.941   4.886  19.036  0.00  0.00    +0.000 C 
ATOM      8  O   UNL     1       4.824   4.145  18.525  0.00  0.00    +0.000 OA
ATOM      9  C   UNL     1       3.984   4.925  17.659  0.00  0.00    +0.000 C 
ATOM     10  H   UNL     1       5.746   7.108  17.212  0.00  0.00    +0.000 HD
ENDROOT
BRANCH   9  11
ATOM     11  C   UNL     1       3.188   5.996  18.418  0.00  0.00    +0.000 A 
ATOM     12  C   UNL     1       2.684   5.785  19.716  0.00  0.00    +0.000 A 
ATOM     13  C   UNL     1       1.975   6.779  20.399  0.00  0.00    +0.000 A 
ATOM     14  C   UNL     1       1.766   8.019  19.806  0.00  0.00    +0.000 A 
ATOM     15  C   UNL     1       2.284   8.265  18.538  0.00  0.00    +0.000 A 
ATOM     16 CL   UNL     1       2.043   9.807  17.812  0.00  0.00    +0.000 Cl
ATOM     17  C   UNL     1       2.995   7.275  17.854  0.00  0.00    +0.000 A 
ENDBRANCH   9  11
BRANCH   9  18
ATOM     18  O   UNL     1       2.998   4.017  17.179  0.00  0.00    +0.000 OA
ATOM     19  H   UNL     1       3.391   3.679  16.357  0.00  0.00    +0.000 HD
ENDBRANCH   9  18
TORSDOF 2
ENDMDL
MODEL 8
REMARK VINA RESULT:      -6.6      2.196      2.504
REMARK  Name = 
REMARK  5 active torsions:
REMARK  status: ('A' for Active; 'I' for Inactive)
REMARK    1  A    between atoms: C_1  and  C_2
REMARK    2  A    between atoms: C_4  and  C_5
REMARK    3  A    between atoms: C_4  and  C_6
REMARK    4  A    between atoms: C_9  and  O_10
REMARK    5  A    between atoms: C_9  and  C_11
REMARK                            x       y       z     vdW  Elec       q    Type
REMARK                         _______ _______ _______ _____ _____    ______ ____
ROOT
ATOM      1  C   UNL     1       3.477   1.307  18.876  0.00  0.00    +0.000 C 
ATOM      2  C   UNL     1       4.011   2.743  18.988  0.00  0.00    +0.000 C 
ATOM      3  N   UNL     1       3.297   3.498  20.050  0.00  0.00    +0.000 NA
ATOM      4  C   UNL     1       2.013   4.084  19.591  0.00  0.00    +0.000 C 
ATOM      5  C   UNL     1       0.883   3.047  19.716  0.00  0.00    +0.000 C 
ATOM      6  C   UNL     1       1.684   5.241  20.560  0.00  0.00    +0.000 C 
ATOM      7  C   UNL     1       2.066   4.662  18.149  0.00  0.00    +0.000 C 
ATOM      8  O   UNL     1       2.741   3.828  17.197  0.00  0.00    +0.000 OA
ATOM      9  C   UNL     1       4.078   3.489  17.599  0.00  0.00    +0.000 C 
ATOM     10  H   UNL     1       3.912   4.267  20.326  0.00  0.00    +0.000 HD
ENDROOT
BRANCH   9  11
ATOM     11  C   UNL     1       5.034   4.688  17.533  0.00  0.00    +0.000 A 
ATOM     12  C   UNL     1       4.856   5.749  16.624  0.00  0.00    +0.000 A 
ATOM     13  C   UNL     1       5.728   6.842  16.589  0.00  0.00    +0.000 A 
ATOM     14  C   UNL     1       6.795   6.911  17.479  0.00  0.00    +0.000 A 
ATOM     15  C   UNL     1       6.973   5.893  18.412  0.00  0.00    +0.000 A 
ATOM     16 CL   UNL     1       8.281   5.988  19.526  0.00  0.00    +0.000 Cl
ATOM     17  C   UNL     1       6.102   4.801  18.449  0.00  0.00    +0.000 A 
ENDBRANCH   9  11
BRANCH   9  18
ATOM     18  O   UNL     1       4.553   2.595  16.598  0.00  0.00    +0.000 OA
ATOM     19  H   UNL     1       5.358   3.035  16.275  0.00  0.00    +0.000 HD
ENDBRANCH   9  18
TORSDOF 2
ENDMDL
MODEL 9
REMARK VINA RESULT:      -6.5      2.158      2.636
REMARK  Name = 
REMARK  5 active torsions:
REMARK  status: ('A' for Active; 'I' for Inactive)
REMARK    1  A    between atoms: C_1  and  C_2
REMARK    2  A    between atoms: C_4  and  C_5
REMARK    3  A    between atoms: C_4  and  C_6
REMARK    4  A    between atoms: C_9  and  O_10
REMARK    5  A    between atoms: C_9  and  C_11
REMARK                            x       y       z     vdW  Elec       q    Type
REMARK                         _______ _______ _______ _____ _____    ______ ____
ROOT
ATOM      1  C   UNL     1       2.849   2.918  21.141  0.00  0.00    +0.000 C 
ATOM      2  C   UNL     1       3.345   3.779  19.969  0.00  0.00    +0.000 C 
ATOM      3  N   UNL     1       2.208   4.408  19.248  0.00  0.00    +0.000 NA
ATOM      4  C   UNL     1       1.586   3.516  18.240  0.00  0.00    +0.000 C 
ATOM      5  C   UNL     1       0.529   2.618  18.907  0.00  0.00    +0.000 C 
ATOM      6  C   UNL     1       0.847   4.428  17.237  0.00  0.00    +0.000 C 
ATOM      7  C   UNL     1       2.609   2.655  17.446  0.00  0.00    +0.000 C 
ATOM      8  O   UNL     1       3.637   2.060  18.250  0.00  0.00    +0.000 OA
ATOM      9  C   UNL     1       4.364   3.022  19.032  0.00  0.00    +0.000 C 
ATOM     10  H   UNL     1       2.587   5.221  18.756  0.00  0.00    +0.000 HD
ENDROOT
BRANCH   9  11
ATOM     11  C   UNL     1       5.269   3.916  18.172  0.00  0.00    +0.000 A 
ATOM     12  C   UNL     1       5.211   3.921  16.765  0.00  0.00    +0.000 A 
ATOM     13  C   UNL     1       6.032   4.755  15.999  0.00  0.00    +0.000 A 
ATOM     14  C   UNL     1       6.922   5.622  16.623  0.00  0.00    +0.000 A 
ATOM     15  C   UNL     1       6.974   5.661  18.014  0.00  0.00    +0.000 A 
ATOM     16 CL   UNL     1       8.063   6.747  18.786  0.00  0.00    +0.000 Cl
ATOM     17  C   UNL     1       6.154   4.831  18.781  0.00  0.00    +0.000 A 
ENDBRANCH   9  11
BRANCH   9  18
ATOM     18  O   UNL     1       5.265   2.255  19.824  0.00  0.00    +0.000 OA
ATOM     19  H   UNL     1       4.851   2.270  20.704  0.00  0.00    +0.000 HD
ENDBRANCH   9  18
TORSDOF 2
ENDMDL
