MODEL 1
REMARK VINA RESULT:      -7.8      0.000      0.000
REMARK  Name = 
REMARK  8 active torsions:
REMARK  status: ('A' for Active; 'I' for Inactive)
REMARK    1  A    between atoms: C_6  and  C_7
REMARK    2  A    between atoms: C_10  and  O_11
REMARK    3  A    between atoms: C_12  and  C_13
REMARK    4  A    between atoms: C_12  and  C_14
REMARK    5  A    between atoms: C_14  and  O_15
REMARK    6  A    between atoms: C_16  and  C_17
REMARK    7  A    between atoms: C_17  and  C_18
REMARK    8  A    between atoms: C_18  and  C_19
REMARK                            x       y       z     vdW  Elec       q    Type
REMARK                         _______ _______ _______ _____ _____    ______ ____
ROOT
ATOM      1  C   UNL     1       4.779   6.679  16.180  0.00  0.00    +0.000 C 
ATOM      2  C   UNL     1       4.636   6.259  17.452  0.00  0.00    +0.000 C 
ATOM      3  C   UNL     1       5.699   5.380  18.069  0.00  0.00    +0.000 C 
ATOM      4  C   UNL     1       5.140   4.037  18.568  0.00  0.00    +0.000 C 
ATOM      5  C   UNL     1       3.892   4.200  19.450  0.00  0.00    +0.000 C 
ATOM      6  C   UNL     1       2.790   5.095  18.756  0.00  0.00    +0.000 C 
ATOM      7  C   UNL     1       2.252   4.489  17.426  0.00  0.00    +0.000 C 
ATOM      8  C   UNL     1       1.648   5.309  19.784  0.00  0.00    +0.000 C 
ATOM      9  C   UNL     1       1.279   4.253  20.812  0.00  0.00    +0.000 C 
ATOM     10  C   UNL     1       2.394   3.345  21.282  0.00  0.00    +0.000 C 
ATOM     11  C   UNL     1       3.331   2.875  20.138  0.00  0.00    +0.000 C 
ATOM     12  C   UNL     1       4.477   2.049  20.772  0.00  0.00    +0.000 C 
ATOM     13  C   UNL     1       3.404   6.520  18.350  0.00  0.00    +0.000 C 
ENDROOT
BRANCH  10  14
ATOM     14  O   UNL     1       1.808   2.238  21.981  0.00  0.00    +0.000 OA
ATOM     15  H   UNL     1       1.080   1.879  21.457  0.00  0.00    +0.000 HD
ENDBRANCH  10  14
BRANCH  11  16
ATOM     16  C   UNL     1       2.533   1.883  19.251  0.00  0.00    +0.000 C 
BRANCH  16  17
ATOM     17  O   UNL     1       3.374   1.083  18.434  0.00  0.00    +0.000 OA
ATOM     18  H   UNL     1       2.863   0.296  18.181  0.00  0.00    +0.000 HD
ENDBRANCH  16  17
ENDBRANCH  11  16
BRANCH  13  19
ATOM     19  C   UNL     1       2.394   7.529  17.687  0.00  0.00    +0.000 C 
BRANCH  19  20
ATOM     20  C   UNL     1       2.430   9.009  18.104  0.00  0.00    +0.000 C 
BRANCH  20  21
ATOM     21  C   UNL     1       1.245   9.413  18.915  0.00  0.00    +0.000 A 
ATOM     22  C   UNL     1       0.110  10.161  18.477  0.00  0.00    +0.000 A 
ATOM     23  C   UNL     1      -0.741  10.243  19.546  0.00  0.00    +0.000 A 
ATOM     24  O   UNL     1      -0.216   9.597  20.618  0.00  0.00    +0.000 OA
ATOM     25  C   UNL     1       0.983   9.093  20.231  0.00  0.00    +0.000 A 
ENDBRANCH  20  21
ENDBRANCH  19  20
ENDBRANCH  13  19
TORSDOF 6
ENDMDL
MODEL 2
REMARK VINA RESULT:      -7.6      2.598      4.327
REMARK  Name = 
REMARK  8 active torsions:
REMARK  status: ('A' for Active; 'I' for Inactive)
REMARK    1  A    between atoms: C_6  and  C_7
REMARK    2  A    between atoms: C_10  and  O_11
REMARK    3  A    between atoms: C_12  and  C_13
REMARK    4  A    between atoms: C_12  and  C_14
REMARK    5  A    between atoms: C_14  and  O_15
REMARK    6  A    between atoms: C_16  and  C_17
REMARK    7  A    between atoms: C_17  and  C_18
REMARK    8  A    between atoms: C_18  and  C_19
REMARK                            x       y       z     vdW  Elec       q    Type
REMARK                         _______ _______ _______ _____ _____    ______ ____
ROOT
ATOM      1  C   UNL     1       1.111   3.902  19.788  0.00  0.00    +0.000 C 
ATOM      2  C   UNL     1       1.764   4.318  18.686  0.00  0.00    +0.000 C 
ATOM      3  C   UNL     1       2.075   3.328  17.588  0.00  0.00    +0.000 C 
ATOM      4  C   UNL     1       3.580   3.235  17.284  0.00  0.00    +0.000 C 
ATOM      5  C   UNL     1       4.233   4.610  17.074  0.00  0.00    +0.000 C 
ATOM      6  C   UNL     1       3.916   5.604  18.259  0.00  0.00    +0.000 C 
ATOM      7  C   UNL     1       4.461   5.118  19.634  0.00  0.00    +0.000 C 
ATOM      8  C   UNL     1       4.498   6.990  17.874  0.00  0.00    +0.000 C 
ATOM      9  C   UNL     1       5.759   7.131  17.039  0.00  0.00    +0.000 C 
ATOM     10  C   UNL     1       6.042   6.026  16.046  0.00  0.00    +0.000 C 
ATOM     11  C   UNL     1       5.758   4.606  16.604  0.00  0.00    +0.000 C 
ATOM     12  C   UNL     1       5.985   3.590  15.458  0.00  0.00    +0.000 C 
ATOM     13  C   UNL     1       2.330   5.740  18.461  0.00  0.00    +0.000 C 
ENDROOT
BRANCH  10  14
ATOM     14  O   UNL     1       7.397   6.162  15.596  0.00  0.00    +0.000 OA
ATOM     15  H   UNL     1       7.989   6.155  16.360  0.00  0.00    +0.000 HD
ENDBRANCH  10  14
BRANCH  11  16
ATOM     16  C   UNL     1       6.841   4.292  17.671  0.00  0.00    +0.000 C 
BRANCH  16  17
ATOM     17  O   UNL     1       8.119   4.061  17.099  0.00  0.00    +0.000 OA
ATOM     18  H   UNL     1       8.447   4.916  16.777  0.00  0.00    +0.000 HD
ENDBRANCH  16  17
ENDBRANCH  11  16
BRANCH  13  19
ATOM     19  C   UNL     1       1.874   6.741  19.588  0.00  0.00    +0.000 C 
BRANCH  19  20
ATOM     20  C   UNL     1       1.768   8.240  19.261  0.00  0.00    +0.000 C 
BRANCH  20  21
ATOM     21  C   UNL     1       1.047   9.015  20.311  0.00  0.00    +0.000 A 
ATOM     22  C   UNL     1       1.062   8.785  21.721  0.00  0.00    +0.000 A 
ATOM     23  C   UNL     1       0.301   9.771  22.286  0.00  0.00    +0.000 A 
ATOM     24  O   UNL     1      -0.185  10.601  21.328  0.00  0.00    +0.000 OA
ATOM     25  C   UNL     1       0.272  10.142  20.136  0.00  0.00    +0.000 A 
ENDBRANCH  20  21
ENDBRANCH  19  20
ENDBRANCH  13  19
TORSDOF 6
ENDMDL
MODEL 3
REMARK VINA RESULT:      -7.6      3.008      6.007
REMARK  Name = 
REMARK  8 active torsions:
REMARK  status: ('A' for Active; 'I' for Inactive)
REMARK    1  A    between atoms: C_6  and  C_7
REMARK    2  A    between atoms: C_10  and  O_11
REMARK    3  A    between atoms: C_12  and  C_13
REMARK    4  A    between atoms: C_12  and  C_14
REMARK    5  A    between atoms: C_14  and  O_15
REMARK    6  A    between atoms: C_16  and  C_17
REMARK    7  A    between atoms: C_17  and  C_18
REMARK    8  A    between atoms: C_18  and  C_19
REMARK                            x       y       z     vdW  Elec       q    Type
REMARK                         _______ _______ _______ _____ _____    ______ ____
ROOT
ATOM      1  C   UNL     1       5.785   7.353  17.420  0.00  0.00    +0.000 C 
ATOM      2  C   UNL     1       4.671   6.596  17.384  0.00  0.00    +0.000 C 
ATOM      3  C   UNL     1       3.401   7.114  18.018  0.00  0.00    +0.000 C 
ATOM      4  C   UNL     1       2.857   6.173  19.106  0.00  0.00    +0.000 C 
ATOM      5  C   UNL     1       2.758   4.712  18.639  0.00  0.00    +0.000 C 
ATOM      6  C   UNL     1       4.115   4.197  18.016  0.00  0.00    +0.000 C 
ATOM      7  C   UNL     1       5.299   4.205  19.027  0.00  0.00    +0.000 C 
ATOM      8  C   UNL     1       3.860   2.775  17.452  0.00  0.00    +0.000 C 
ATOM      9  C   UNL     1       2.870   1.818  18.095  0.00  0.00    +0.000 C 
ATOM     10  C   UNL     1       1.689   2.440  18.806  0.00  0.00    +0.000 C 
ATOM     11  C   UNL     1       2.063   3.690  19.646  0.00  0.00    +0.000 C 
ATOM     12  C   UNL     1       0.754   4.282  20.226  0.00  0.00    +0.000 C 
ATOM     13  C   UNL     1       4.580   5.160  16.819  0.00  0.00    +0.000 C 
ENDROOT
BRANCH  10  14
ATOM     14  O   UNL     1       1.060   1.428  19.604  0.00  0.00    +0.000 OA
ATOM     15  H   UNL     1       1.222   1.612  20.538  0.00  0.00    +0.000 HD
ENDBRANCH  10  14
BRANCH  11  16
ATOM     16  C   UNL     1       2.888   3.208  20.869  0.00  0.00    +0.000 C 
BRANCH  16  17
ATOM     17  O   UNL     1       2.080   2.952  22.007  0.00  0.00    +0.000 OA
ATOM     18  H   UNL     1       1.509   2.197  21.789  0.00  0.00    +0.000 HD
ENDBRANCH  16  17
ENDBRANCH  11  16
BRANCH  13  19
ATOM     19  C   UNL     1       5.902   4.731  16.080  0.00  0.00    +0.000 C 
BRANCH  19  20
ATOM     20  C   UNL     1       5.833   3.654  14.985  0.00  0.00    +0.000 C 
BRANCH  20  21
ATOM     21  C   UNL     1       6.533   4.054  13.730  0.00  0.00    +0.000 A 
ATOM     22  C   UNL     1       6.349   3.508  12.424  0.00  0.00    +0.000 A 
ATOM     23  C   UNL     1       7.162   4.220  11.584  0.00  0.00    +0.000 A 
ATOM     24  O   UNL     1       7.837   5.173  12.276  0.00  0.00    +0.000 OA
ATOM     25  C   UNL     1       7.451   5.071  13.572  0.00  0.00    +0.000 A 
ENDBRANCH  20  21
ENDBRANCH  19  20
ENDBRANCH  13  19
TORSDOF 6
ENDMDL
MODEL 4
REMARK VINA RESULT:      -7.6      2.632      4.346
REMARK  Name = 
REMARK  8 active torsions:
REMARK  status: ('A' for Active; 'I' for Inactive)
REMARK    1  A    between atoms: C_6  and  C_7
REMARK    2  A    between atoms: C_10  and  O_11
REMARK    3  A    between atoms: C_12  and  C_13
REMARK    4  A    between atoms: C_12  and  C_14
REMARK    5  A    between atoms: C_14  and  O_15
REMARK    6  A    between atoms: C_16  and  C_17
REMARK    7  A    between atoms: C_17  and  C_18
REMARK    8  A    between atoms: C_18  and  C_19
REMARK                            x       y       z     vdW  Elec       q    Type
REMARK                         _______ _______ _______ _____ _____    ______ ____
ROOT
ATOM      1  C   UNL     1       1.249   3.159  20.481  0.00  0.00    +0.000 C 
ATOM      2  C   UNL     1       1.680   3.669  19.311  0.00  0.00    +0.000 C 
ATOM      3  C   UNL     1       1.953   2.741  18.151  0.00  0.00    +0.000 C 
ATOM      4  C   UNL     1       3.398   2.848  17.636  0.00  0.00    +0.000 C 
ATOM      5  C   UNL     1       3.836   4.299  17.378  0.00  0.00    +0.000 C 
ATOM      6  C   UNL     1       3.567   5.229  18.625  0.00  0.00    +0.000 C 
ATOM      7  C   UNL     1       4.362   4.801  19.895  0.00  0.00    +0.000 C 
ATOM      8  C   UNL     1       3.908   6.683  18.206  0.00  0.00    +0.000 C 
ATOM      9  C   UNL     1       5.008   6.997  17.206  0.00  0.00    +0.000 C 
ATOM     10  C   UNL     1       5.284   5.950  16.149  0.00  0.00    +0.000 C 
ATOM     11  C   UNL     1       5.265   4.499  16.698  0.00  0.00    +0.000 C 
ATOM     12  C   UNL     1       5.453   3.535  15.501  0.00  0.00    +0.000 C 
ATOM     13  C   UNL     1       2.022   5.155  19.053  0.00  0.00    +0.000 C 
ENDROOT
BRANCH  10  14
ATOM     14  O   UNL     1       6.532   6.266  15.518  0.00  0.00    +0.000 OA
ATOM     15  H   UNL     1       7.224   5.693  15.873  0.00  0.00    +0.000 HD
ENDBRANCH  10  14
BRANCH  11  16
ATOM     16  C   UNL     1       6.521   4.315  17.592  0.00  0.00    +0.000 C 
BRANCH  16  17
ATOM     17  O   UNL     1       7.699   4.083  16.837  0.00  0.00    +0.000 OA
ATOM     18  H   UNL     1       7.566   3.256  16.345  0.00  0.00    +0.000 HD
ENDBRANCH  16  17
ENDBRANCH  11  16
BRANCH  13  19
ATOM     19  C   UNL     1       1.610   6.074  20.262  0.00  0.00    +0.000 C 
BRANCH  19  20
ATOM     20  C   UNL     1       1.810   7.595  20.150  0.00  0.00    +0.000 C 
BRANCH  20  21
ATOM     21  C   UNL     1       1.101   8.355  21.220  0.00  0.00    +0.000 A 
ATOM     22  C   UNL     1      -0.300   8.360  21.496  0.00  0.00    +0.000 A 
ATOM     23  C   UNL     1      -0.480   9.156  22.595  0.00  0.00    +0.000 A 
ATOM     24  O   UNL     1       0.712   9.646  23.023  0.00  0.00    +0.000 OA
ATOM     25  C   UNL     1       1.665   9.156  22.191  0.00  0.00    +0.000 A 
ENDBRANCH  20  21
ENDBRANCH  19  20
ENDBRANCH  13  19
TORSDOF 6
ENDMDL
MODEL 5
REMARK VINA RESULT:      -7.3      3.052      6.085
REMARK  Name = 
REMARK  8 active torsions:
REMARK  status: ('A' for Active; 'I' for Inactive)
REMARK    1  A    between atoms: C_6  and  C_7
REMARK    2  A    between atoms: C_10  and  O_11
REMARK    3  A    between atoms: C_12  and  C_13
REMARK    4  A    between atoms: C_12  and  C_14
REMARK    5  A    between atoms: C_14  and  O_15
REMARK    6  A    between atoms: C_16  and  C_17
REMARK    7  A    between atoms: C_17  and  C_18
REMARK    8  A    between atoms: C_18  and  C_19
REMARK                            x       y       z     vdW  Elec       q    Type
REMARK                         _______ _______ _______ _____ _____    ______ ____
ROOT
ATOM      1  C   UNL     1       6.350   6.659  17.010  0.00  0.00    +0.000 C 
ATOM      2  C   UNL     1       5.065   6.271  17.114  0.00  0.00    +0.000 C 
ATOM      3  C   UNL     1       4.084   7.142  17.863  0.00  0.00    +0.000 C 
ATOM      4  C   UNL     1       3.407   6.403  19.030  0.00  0.00    +0.000 C 
ATOM      5  C   UNL     1       2.827   5.040  18.618  0.00  0.00    +0.000 C 
ATOM      6  C   UNL     1       3.893   4.145  17.870  0.00  0.00    +0.000 C 
ATOM      7  C   UNL     1       5.129   3.794  18.750  0.00  0.00    +0.000 C 
ATOM      8  C   UNL     1       3.165   2.867  17.378  0.00  0.00    +0.000 C 
ATOM      9  C   UNL     1       2.012   2.248  18.149  0.00  0.00    +0.000 C 
ATOM     10  C   UNL     1       1.155   3.192  18.964  0.00  0.00    +0.000 C 
ATOM     11  C   UNL     1       1.974   4.269  19.723  0.00  0.00    +0.000 C 
ATOM     12  C   UNL     1       0.973   5.223  20.420  0.00  0.00    +0.000 C 
ATOM     13  C   UNL     1       4.489   4.930  16.604  0.00  0.00    +0.000 C 
ENDROOT
BRANCH  10  14
ATOM     14  O   UNL     1       0.345   2.411  19.852  0.00  0.00    +0.000 OA
ATOM     15  H   UNL     1       0.435   2.754  20.751  0.00  0.00    +0.000 HD
ENDBRANCH  10  14
BRANCH  11  16
ATOM     16  C   UNL     1       2.747   3.557  20.865  0.00  0.00    +0.000 C 
BRANCH  16  17
ATOM     17  O   UNL     1       1.947   3.345  22.017  0.00  0.00    +0.000 OA
ATOM     18  H   UNL     1       2.537   3.388  22.788  0.00  0.00    +0.000 HD
ENDBRANCH  16  17
ENDBRANCH  11  16
BRANCH  13  19
ATOM     19  C   UNL     1       5.534   4.128  15.742  0.00  0.00    +0.000 C 
BRANCH  19  20
ATOM     20  C   UNL     1       6.126   4.783  14.482  0.00  0.00    +0.000 C 
BRANCH  20  21
ATOM     21  C   UNL     1       6.029   3.913  13.275  0.00  0.00    +0.000 A 
ATOM     22  C   UNL     1       4.855   3.301  12.741  0.00  0.00    +0.000 A 
ATOM     23  C   UNL     1       5.239   2.644  11.603  0.00  0.00    +0.000 A 
ATOM     24  O   UNL     1       6.570   2.807  11.390  0.00  0.00    +0.000 OA
ATOM     25  C   UNL     1       7.042   3.578  12.401  0.00  0.00    +0.000 A 
ENDBRANCH  20  21
ENDBRANCH  19  20
ENDBRANCH  13  19
TORSDOF 6
ENDMDL
MODEL 6
REMARK VINA RESULT:      -7.3      2.808      5.977
REMARK  Name = 
REMARK  8 active torsions:
REMARK  status: ('A' for Active; 'I' for Inactive)
REMARK    1  A    between atoms: C_6  and  C_7
REMARK    2  A    between atoms: C_10  and  O_11
REMARK    3  A    between atoms: C_12  and  C_13
REMARK    4  A    between atoms: C_12  and  C_14
REMARK    5  A    between atoms: C_14  and  O_15
REMARK    6  A    between atoms: C_16  and  C_17
REMARK    7  A    between atoms: C_17  and  C_18
REMARK    8  A    between atoms: C_18  and  C_19
REMARK                            x       y       z     vdW  Elec       q    Type
REMARK                         _______ _______ _______ _____ _____    ______ ____
ROOT
ATOM      1  C   UNL     1       5.970   7.233  17.316  0.00  0.00    +0.000 C 
ATOM      2  C   UNL     1       4.845   6.493  17.271  0.00  0.00    +0.000 C 
ATOM      3  C   UNL     1       3.570   7.042  17.866  0.00  0.00    +0.000 C 
ATOM      4  C   UNL     1       2.988   6.130  18.960  0.00  0.00    +0.000 C 
ATOM      5  C   UNL     1       2.877   4.662  18.518  0.00  0.00    +0.000 C 
ATOM      6  C   UNL     1       4.239   4.115  17.934  0.00  0.00    +0.000 C 
ATOM      7  C   UNL     1       5.401   4.124  18.971  0.00  0.00    +0.000 C 
ATOM      8  C   UNL     1       3.974   2.686  17.392  0.00  0.00    +0.000 C 
ATOM      9  C   UNL     1       2.956   1.757  18.030  0.00  0.00    +0.000 C 
ATOM     10  C   UNL     1       1.769   2.410  18.704  0.00  0.00    +0.000 C 
ATOM     11  C   UNL     1       2.144   3.670  19.529  0.00  0.00    +0.000 C 
ATOM     12  C   UNL     1       0.833   4.293  20.068  0.00  0.00    +0.000 C 
ATOM     13  C   UNL     1       4.744   5.048  16.731  0.00  0.00    +0.000 C 
ENDROOT
BRANCH  10  14
ATOM     14  O   UNL     1       1.108   1.423  19.507  0.00  0.00    +0.000 OA
ATOM     15  H   UNL     1       1.259   0.549  19.126  0.00  0.00    +0.000 HD
ENDBRANCH  10  14
BRANCH  11  16
ATOM     16  C   UNL     1       2.936   3.199  20.778  0.00  0.00    +0.000 C 
BRANCH  16  17
ATOM     17  O   UNL     1       2.089   2.865  21.867  0.00  0.00    +0.000 OA
ATOM     18  H   UNL     1       1.175   3.023  21.578  0.00  0.00    +0.000 HD
ENDBRANCH  16  17
ENDBRANCH  11  16
BRANCH  13  19
ATOM     19  C   UNL     1       6.075   4.586  16.028  0.00  0.00    +0.000 C 
BRANCH  19  20
ATOM     20  C   UNL     1       6.480   5.230  14.692  0.00  0.00    +0.000 C 
BRANCH  20  21
ATOM     21  C   UNL     1       6.279   4.323  13.525  0.00  0.00    +0.000 A 
ATOM     22  C   UNL     1       7.219   4.016  12.494  0.00  0.00    +0.000 A 
ATOM     23  C   UNL     1       6.615   3.103  11.673  0.00  0.00    +0.000 A 
ATOM     24  O   UNL     1       5.365   2.819  12.121  0.00  0.00    +0.000 OA
ATOM     25  C   UNL     1       5.168   3.556  13.243  0.00  0.00    +0.000 A 
ENDBRANCH  20  21
ENDBRANCH  19  20
ENDBRANCH  13  19
TORSDOF 6
ENDMDL
MODEL 7
REMARK VINA RESULT:      -7.1      2.539      4.237
REMARK  Name = 
REMARK  8 active torsions:
REMARK  status: ('A' for Active; 'I' for Inactive)
REMARK    1  A    between atoms: C_6  and  C_7
REMARK    2  A    between atoms: C_10  and  O_11
REMARK    3  A    between atoms: C_12  and  C_13
REMARK    4  A    between atoms: C_12  and  C_14
REMARK    5  A    between atoms: C_14  and  O_15
REMARK    6  A    between atoms: C_16  and  C_17
REMARK    7  A    between atoms: C_17  and  C_18
REMARK    8  A    between atoms: C_18  and  C_19
REMARK                            x       y       z     vdW  Elec       q    Type
REMARK                         _______ _______ _______ _____ _____    ______ ____
ROOT
ATOM      1  C   UNL     1       1.166   3.294  19.659  0.00  0.00    +0.000 C 
ATOM      2  C   UNL     1       1.808   3.792  18.584  0.00  0.00    +0.000 C 
ATOM      3  C   UNL     1       2.265   2.855  17.491  0.00  0.00    +0.000 C 
ATOM      4  C   UNL     1       3.780   2.931  17.241  0.00  0.00    +0.000 C 
ATOM      5  C   UNL     1       4.285   4.372  17.065  0.00  0.00    +0.000 C 
ATOM      6  C   UNL     1       3.818   5.312  18.245  0.00  0.00    +0.000 C 
ATOM      7  C   UNL     1       4.365   4.874  19.635  0.00  0.00    +0.000 C 
ATOM      8  C   UNL     1       4.256   6.758  17.892  0.00  0.00    +0.000 C 
ATOM      9  C   UNL     1       5.522   7.047  17.104  0.00  0.00    +0.000 C 
ATOM     10  C   UNL     1       5.961   5.991  16.113  0.00  0.00    +0.000 C 
ATOM     11  C   UNL     1       5.816   4.542  16.650  0.00  0.00    +0.000 C 
ATOM     12  C   UNL     1       6.194   3.571  15.505  0.00  0.00    +0.000 C 
ATOM     13  C   UNL     1       2.220   5.270  18.391  0.00  0.00    +0.000 C 
ENDROOT
BRANCH  10  14
ATOM     14  O   UNL     1       7.307   6.281  15.714  0.00  0.00    +0.000 OA
ATOM     15  H   UNL     1       7.320   7.107  15.213  0.00  0.00    +0.000 HD
ENDBRANCH  10  14
BRANCH  11  16
ATOM     16  C   UNL     1       6.889   4.337  17.753  0.00  0.00    +0.000 C 
BRANCH  16  17
ATOM     17  O   UNL     1       8.180   4.088  17.219  0.00  0.00    +0.000 OA
ATOM     18  H   UNL     1       8.467   4.903  16.773  0.00  0.00    +0.000 HD
ENDBRANCH  16  17
ENDBRANCH  11  16
BRANCH  13  19
ATOM     19  C   UNL     1       1.618   6.202  19.508  0.00  0.00    +0.000 C 
BRANCH  19  20
ATOM     20  C   UNL     1       2.278   7.563  19.785  0.00  0.00    +0.000 C 
BRANCH  20  21
ATOM     21  C   UNL     1       1.414   8.717  19.405  0.00  0.00    +0.000 A 
ATOM     22  C   UNL     1       1.217   9.257  18.098  0.00  0.00    +0.000 A 
ATOM     23  C   UNL     1       0.303  10.269  18.226  0.00  0.00    +0.000 A 
ATOM     24  O   UNL     1      -0.083  10.394  19.522  0.00  0.00    +0.000 OA
ATOM     25  C   UNL     1       0.588   9.451  20.230  0.00  0.00    +0.000 A 
ENDBRANCH  20  21
ENDBRANCH  19  20
ENDBRANCH  13  19
TORSDOF 6
ENDMDL
MODEL 8
REMARK VINA RESULT:      -6.9      1.091      1.236
REMARK  Name = 
REMARK  8 active torsions:
REMARK  status: ('A' for Active; 'I' for Inactive)
REMARK    1  A    between atoms: C_6  and  C_7
REMARK    2  A    between atoms: C_10  and  O_11
REMARK    3  A    between atoms: C_12  and  C_13
REMARK    4  A    between atoms: C_12  and  C_14
REMARK    5  A    between atoms: C_14  and  O_15
REMARK    6  A    between atoms: C_16  and  C_17
REMARK    7  A    between atoms: C_17  and  C_18
REMARK    8  A    between atoms: C_18  and  C_19
REMARK                            x       y       z     vdW  Elec       q    Type
REMARK                         _______ _______ _______ _____ _____    ______ ____
ROOT
ATOM      1  C   UNL     1       4.957   6.711  16.152  0.00  0.00    +0.000 C 
ATOM      2  C   UNL     1       4.845   6.268  17.419  0.00  0.00    +0.000 C 
ATOM      3  C   UNL     1       5.851   5.273  17.949  0.00  0.00    +0.000 C 
ATOM      4  C   UNL     1       5.194   3.975  18.446  0.00  0.00    +0.000 C 
ATOM      5  C   UNL     1       4.018   4.228  19.403  0.00  0.00    +0.000 C 
ATOM      6  C   UNL     1       2.971   5.244  18.798  0.00  0.00    +0.000 C 
ATOM      7  C   UNL     1       2.304   4.734  17.487  0.00  0.00    +0.000 C 
ATOM      8  C   UNL     1       1.914   5.535  19.896  0.00  0.00    +0.000 C 
ATOM      9  C   UNL     1       1.503   4.487  20.917  0.00  0.00    +0.000 C 
ATOM     10  C   UNL     1       2.549   3.463  21.297  0.00  0.00    +0.000 C 
ATOM     11  C   UNL     1       3.372   2.942  20.089  0.00  0.00    +0.000 C 
ATOM     12  C   UNL     1       4.466   1.991  20.634  0.00  0.00    +0.000 C 
ATOM     13  C   UNL     1       3.697   6.617  18.393  0.00  0.00    +0.000 C 
ENDROOT
BRANCH  10  14
ATOM     14  O   UNL     1       1.898   2.396  22.001  0.00  0.00    +0.000 OA
ATOM     15  H   UNL     1       1.377   2.764  22.726  0.00  0.00    +0.000 HD
ENDBRANCH  10  14
BRANCH  11  16
ATOM     16  C   UNL     1       2.433   2.058  19.225  0.00  0.00    +0.000 C 
BRANCH  16  17
ATOM     17  O   UNL     1       3.146   1.162  18.386  0.00  0.00    +0.000 OA
ATOM     18  H   UNL     1       2.678   1.132  17.536  0.00  0.00    +0.000 HD
ENDBRANCH  16  17
ENDBRANCH  11  16
BRANCH  13  19
ATOM     19  C   UNL     1       2.753   7.737  17.816  0.00  0.00    +0.000 C 
BRANCH  19  20
ATOM     20  C   UNL     1       1.581   8.244  18.673  0.00  0.00    +0.000 C 
BRANCH  20  21
ATOM     21  C   UNL     1       1.527   9.732  18.762  0.00  0.00    +0.000 A 
ATOM     22  C   UNL     1       0.845  10.516  19.741  0.00  0.00    +0.000 A 
ATOM     23  C   UNL     1       1.120  11.826  19.454  0.00  0.00    +0.000 A 
ATOM     24  O   UNL     1       1.927  11.911  18.366  0.00  0.00    +0.000 OA
ATOM     25  C   UNL     1       2.174  10.643  17.954  0.00  0.00    +0.000 A 
ENDBRANCH  20  21
ENDBRANCH  19  20
ENDBRANCH  13  19
TORSDOF 6
ENDMDL
MODEL 9
REMARK VINA RESULT:      -6.7      2.580      4.333
REMARK  Name = 
REMARK  8 active torsions:
REMARK  status: ('A' for Active; 'I' for Inactive)
REMARK    1  A    between atoms: C_6  and  C_7
REMARK    2  A    between atoms: C_10  and  O_11
REMARK    3  A    between atoms: C_12  and  C_13
REMARK    4  A    between atoms: C_12  and  C_14
REMARK    5  A    between atoms: C_14  and  O_15
REMARK    6  A    between atoms: C_16  and  C_17
REMARK    7  A    between atoms: C_17  and  C_18
REMARK    8  A    between atoms: C_18  and  C_19
REMARK                            x       y       z     vdW  Elec       q    Type
REMARK                         _______ _______ _______ _____ _____    ______ ____
ROOT
ATOM      1  C   UNL     1       1.515   4.936  20.704  0.00  0.00    +0.000 C 
ATOM      2  C   UNL     1       1.923   5.060  19.427  0.00  0.00    +0.000 C 
ATOM      3  C   UNL     1       1.952   3.842  18.534  0.00  0.00    +0.000 C 
ATOM      4  C   UNL     1       3.349   3.568  17.952  0.00  0.00    +0.000 C 
ATOM      5  C   UNL     1       3.985   4.812  17.312  0.00  0.00    +0.000 C 
ATOM      6  C   UNL     1       3.968   6.054  18.288  0.00  0.00    +0.000 C 
ATOM      7  C   UNL     1       4.787   5.824  19.593  0.00  0.00    +0.000 C 
ATOM      8  C   UNL     1       4.495   7.278  17.496  0.00  0.00    +0.000 C 
ATOM      9  C   UNL     1       5.545   7.142  16.406  0.00  0.00    +0.000 C 
ATOM     10  C   UNL     1       5.567   5.835  15.644  0.00  0.00    +0.000 C 
ATOM     11  C   UNL     1       5.367   4.590  16.548  0.00  0.00    +0.000 C 
ATOM     12  C   UNL     1       5.303   3.343  15.633  0.00  0.00    +0.000 C 
ATOM     13  C   UNL     1       2.471   6.355  18.782  0.00  0.00    +0.000 C 
ENDROOT
BRANCH  10  14
ATOM     14  O   UNL     1       6.793   5.767  14.904  0.00  0.00    +0.000 OA
ATOM     15  H   UNL     1       7.195   6.644  14.870  0.00  0.00    +0.000 HD
ENDBRANCH  10  14
BRANCH  11  16
ATOM     16  C   UNL     1       6.648   4.420  17.409  0.00  0.00    +0.000 C 
BRANCH  16  17
ATOM     17  O   UNL     1       7.758   3.965  16.652  0.00  0.00    +0.000 OA
ATOM     18  H   UNL     1       8.364   4.717  16.552  0.00  0.00    +0.000 HD
ENDBRANCH  16  17
ENDBRANCH  11  16
BRANCH  13  19
ATOM     19  C   UNL     1       2.307   7.601  19.729  0.00  0.00    +0.000 C 
BRANCH  19  20
ATOM     20  C   UNL     1       1.052   8.480  19.602  0.00  0.00    +0.000 C 
BRANCH  20  21
ATOM     21  C   UNL     1       0.707   9.188  20.868  0.00  0.00    +0.000 A 
ATOM     22  C   UNL     1      -0.317  10.163  21.064  0.00  0.00    +0.000 A 
ATOM     23  C   UNL     1      -0.297  10.491  22.393  0.00  0.00    +0.000 A 
ATOM     24  O   UNL     1       0.668   9.787  23.038  0.00  0.00    +0.000 OA
ATOM     25  C   UNL     1       1.269   8.998  22.113  0.00  0.00    +0.000 A 
ENDBRANCH  20  21
ENDBRANCH  19  20
ENDBRANCH  13  19
TORSDOF 6
ENDMDL
