MODEL 1
REMARK VINA RESULT:      -7.1      0.000      0.000
REMARK  Name = 
REMARK  3 active torsions:
REMARK  status: ('A' for Active; 'I' for Inactive)
REMARK    1  A    between atoms: C_1  and  N_2
REMARK    2  A    between atoms: C_4  and  C_5
REMARK    3  A    between atoms: C_12  and  C_14
REMARK                            x       y       z     vdW  Elec       q    Type
REMARK                         _______ _______ _______ _____ _____    ______ ____
ROOT
ATOM      1  C   UNL     1       4.422   4.381  16.837  0.00  0.00    +0.000 C 
ATOM      2  C   UNL     1       4.061   5.864  16.907  0.00  0.00    +0.000 C 
ATOM      3  S   UNL     1       4.279   6.673  18.512  0.00  0.00    +0.000 S 
ATOM      4  O   UNL     1       2.979   6.524  19.373  0.00  0.00    +0.000 OA
ATOM      5  C   UNL     1       5.628   5.748  19.280  0.00  0.00    +0.000 C 
ATOM      6  C   UNL     1       5.927   4.345  18.775  0.00  0.00    +0.000 C 
ATOM      7  N   UNL     1       5.793   4.188  17.329  0.00  0.00    +0.000 N 
ATOM      8  C   UNL     1       6.922   4.525  16.559  0.00  0.00    +0.000 C 
ATOM      9  O   UNL     1       7.950   4.932  17.104  0.00  0.00    +0.000 OA
ENDROOT
BRANCH   8  10
ATOM     10  C   UNL     1       6.873   4.464  15.110  0.00  0.00    +0.000 A 
ATOM     11  C   UNL     1       6.193   3.653  14.213  0.00  0.00    +0.000 A 
ATOM     12  C   UNL     1       6.531   4.079  12.915  0.00  0.00    +0.000 A 
ATOM     13  F   UNL     1       6.066   3.584  11.805  0.00  0.00    +0.000 F 
ATOM     14  C   UNL     1       7.448   5.086  13.000  0.00  0.00    +0.000 A 
ATOM     15  N   UNL     1       7.693   5.277  14.340  0.00  0.00    +0.000 N 
ATOM     16  H   UNL     1       8.369   5.924  14.734  0.00  0.00    +0.000 HD
ENDBRANCH   8  10
BRANCH   1  20
ATOM     17  C   UNL     1       0.354   2.288  18.952  0.00  0.00    +0.000 C 
ATOM     18  N   UNL     1       1.680   2.509  18.432  0.00  0.00    +0.000 N 
ATOM     19  C   UNL     1       2.139   3.657  17.863  0.00  0.00    +0.000 A 
ATOM     20  C   UNL     1       3.454   3.440  17.504  0.00  0.00    +0.000 A 
ATOM     21  C   UNL     1       3.671   2.089  17.885  0.00  0.00    +0.000 A 
ATOM     22  N   UNL     1       2.598   1.528  18.453  0.00  0.00    +0.000 NA
ENDBRANCH   1  20
TORSDOF 2
ENDMDL
MODEL 2
REMARK VINA RESULT:      -6.9      3.944      5.013
REMARK  Name = 
REMARK  3 active torsions:
REMARK  status: ('A' for Active; 'I' for Inactive)
REMARK    1  A    between atoms: C_1  and  N_2
REMARK    2  A    between atoms: C_4  and  C_5
REMARK    3  A    between atoms: C_12  and  C_14
REMARK                            x       y       z     vdW  Elec       q    Type
REMARK                         _______ _______ _______ _____ _____    ______ ____
ROOT
ATOM      1  C   UNL     1       3.354   5.872  19.435  0.00  0.00    +0.000 C 
ATOM      2  C   UNL     1       3.270   4.599  20.275  0.00  0.00    +0.000 C 
ATOM      3  S   UNL     1       1.878   3.494  19.931  0.00  0.00    +0.000 S 
ATOM      4  O   UNL     1       0.638   3.903  20.797  0.00  0.00    +0.000 OA
ATOM      5  C   UNL     1       1.523   3.780  18.184  0.00  0.00    +0.000 C 
ATOM      6  C   UNL     1       2.001   5.076  17.547  0.00  0.00    +0.000 C 
ATOM      7  N   UNL     1       3.315   5.520  18.009  0.00  0.00    +0.000 N 
ATOM      8  C   UNL     1       4.426   4.975  17.338  0.00  0.00    +0.000 C 
ATOM      9  O   UNL     1       4.267   4.168  16.421  0.00  0.00    +0.000 OA
ENDROOT
BRANCH   8  10
ATOM     10  C   UNL     1       5.776   5.303  17.760  0.00  0.00    +0.000 A 
ATOM     11  C   UNL     1       6.452   6.499  17.947  0.00  0.00    +0.000 A 
ATOM     12  C   UNL     1       7.752   6.189  18.385  0.00  0.00    +0.000 A 
ATOM     13  F   UNL     1       8.677   7.048  18.701  0.00  0.00    +0.000 F 
ATOM     14  C   UNL     1       7.904   4.832  18.408  0.00  0.00    +0.000 A 
ATOM     15  N   UNL     1       6.712   4.300  17.972  0.00  0.00    +0.000 N 
ATOM     16  H   UNL     1       6.520   3.314  17.827  0.00  0.00    +0.000 HD
ENDBRANCH   8  10
BRANCH   1  20
ATOM     17  C   UNL     1      -0.176   8.699  21.660  0.00  0.00    +0.000 C 
ATOM     18  N   UNL     1       0.805   8.193  20.733  0.00  0.00    +0.000 N 
ATOM     19  C   UNL     1       1.534   7.052  20.878  0.00  0.00    +0.000 A 
ATOM     20  C   UNL     1       2.350   6.943  19.770  0.00  0.00    +0.000 A 
ATOM     21  C   UNL     1       2.043   8.115  19.030  0.00  0.00    +0.000 A 
ATOM     22  N   UNL     1       1.102   8.868  19.610  0.00  0.00    +0.000 NA
ENDBRANCH   1  20
TORSDOF 2
ENDMDL
MODEL 3
REMARK VINA RESULT:      -6.8      3.253      4.330
REMARK  Name = 
REMARK  3 active torsions:
REMARK  status: ('A' for Active; 'I' for Inactive)
REMARK    1  A    between atoms: C_1  and  N_2
REMARK    2  A    between atoms: C_4  and  C_5
REMARK    3  A    between atoms: C_12  and  C_14
REMARK                            x       y       z     vdW  Elec       q    Type
REMARK                         _______ _______ _______ _____ _____    ______ ____
ROOT
ATOM      1  C   UNL     1       3.567   5.797  18.434  0.00  0.00    +0.000 C 
ATOM      2  C   UNL     1       4.016   5.051  19.689  0.00  0.00    +0.000 C 
ATOM      3  S   UNL     1       2.746   4.101  20.562  0.00  0.00    +0.000 S 
ATOM      4  O   UNL     1       2.017   5.010  21.609  0.00  0.00    +0.000 OA
ATOM      5  C   UNL     1       1.590   3.627  19.257  0.00  0.00    +0.000 C 
ATOM      6  C   UNL     1       1.581   4.432  17.966  0.00  0.00    +0.000 C 
ATOM      7  N   UNL     1       2.905   4.858  17.517  0.00  0.00    +0.000 N 
ATOM      8  C   UNL     1       3.626   3.933  16.740  0.00  0.00    +0.000 C 
ATOM      9  O   UNL     1       3.142   2.831  16.473  0.00  0.00    +0.000 OA
ENDROOT
BRANCH   8  10
ATOM     10  C   UNL     1       4.975   4.233  16.297  0.00  0.00    +0.000 A 
ATOM     11  C   UNL     1       5.507   4.671  15.093  0.00  0.00    +0.000 A 
ATOM     12  C   UNL     1       6.897   4.802  15.265  0.00  0.00    +0.000 A 
ATOM     13  F   UNL     1       7.741   5.223  14.369  0.00  0.00    +0.000 F 
ATOM     14  C   UNL     1       7.231   4.394  16.525  0.00  0.00    +0.000 A 
ATOM     15  N   UNL     1       6.061   3.996  17.128  0.00  0.00    +0.000 N 
ATOM     16  H   UNL     1       5.978   3.591  18.055  0.00  0.00    +0.000 HD
ENDBRANCH   8  10
BRANCH   1  20
ATOM     17  C   UNL     1       0.765   9.450  20.486  0.00  0.00    +0.000 C 
ATOM     18  N   UNL     1       1.503   8.635  19.553  0.00  0.00    +0.000 N 
ATOM     19  C   UNL     1       2.161   7.479  19.842  0.00  0.00    +0.000 A 
ATOM     20  C   UNL     1       2.731   7.027  18.668  0.00  0.00    +0.000 A 
ATOM     21  C   UNL     1       2.368   8.029  17.730  0.00  0.00    +0.000 A 
ATOM     22  N   UNL     1       1.619   8.999  18.265  0.00  0.00    +0.000 NA
ENDBRANCH   1  20
TORSDOF 2
ENDMDL
MODEL 4
REMARK VINA RESULT:      -6.6      3.285      4.403
REMARK  Name = 
REMARK  3 active torsions:
REMARK  status: ('A' for Active; 'I' for Inactive)
REMARK    1  A    between atoms: C_1  and  N_2
REMARK    2  A    between atoms: C_4  and  C_5
REMARK    3  A    between atoms: C_12  and  C_14
REMARK                            x       y       z     vdW  Elec       q    Type
REMARK                         _______ _______ _______ _____ _____    ______ ____
ROOT
ATOM      1  C   UNL     1       3.432   5.109  19.024  0.00  0.00    +0.000 C 
ATOM      2  C   UNL     1       3.932   4.091  20.048  0.00  0.00    +0.000 C 
ATOM      3  S   UNL     1       2.691   2.974  20.748  0.00  0.00    +0.000 S 
ATOM      4  O   UNL     1       2.034   3.622  22.014  0.00  0.00    +0.000 OA
ATOM      5  C   UNL     1       1.461   2.820  19.434  0.00  0.00    +0.000 C 
ATOM      6  C   UNL     1       1.400   3.900  18.365  0.00  0.00    +0.000 C 
ATOM      7  N   UNL     1       2.707   4.410  17.954  0.00  0.00    +0.000 N 
ATOM      8  C   UNL     1       3.369   3.684  16.947  0.00  0.00    +0.000 C 
ATOM      9  O   UNL     1       2.852   2.676  16.462  0.00  0.00    +0.000 OA
ENDROOT
BRANCH   8  10
ATOM     10  C   UNL     1       4.699   4.069  16.512  0.00  0.00    +0.000 A 
ATOM     11  C   UNL     1       5.203   4.574  15.323  0.00  0.00    +0.000 A 
ATOM     12  C   UNL     1       6.585   4.773  15.496  0.00  0.00    +0.000 A 
ATOM     13  F   UNL     1       7.401   5.268  14.613  0.00  0.00    +0.000 F 
ATOM     14  C   UNL     1       6.945   4.341  16.741  0.00  0.00    +0.000 A 
ATOM     15  N   UNL     1       5.799   3.862  17.333  0.00  0.00    +0.000 N 
ATOM     16  H   UNL     1       5.741   3.422  18.246  0.00  0.00    +0.000 HD
ENDBRANCH   8  10
BRANCH   1  20
ATOM     17  C   UNL     1       1.073   9.512  19.696  0.00  0.00    +0.000 C 
ATOM     18  N   UNL     1       1.594   8.181  19.888  0.00  0.00    +0.000 N 
ATOM     19  C   UNL     1       2.354   7.480  19.003  0.00  0.00    +0.000 A 
ATOM     20  C   UNL     1       2.633   6.257  19.579  0.00  0.00    +0.000 A 
ATOM     21  C   UNL     1       1.947   6.325  20.821  0.00  0.00    +0.000 A 
ATOM     22  N   UNL     1       1.323   7.493  21.010  0.00  0.00    +0.000 NA
ENDBRANCH   1  20
TORSDOF 2
ENDMDL
MODEL 5
REMARK VINA RESULT:      -6.5      2.597      5.793
REMARK  Name = 
REMARK  3 active torsions:
REMARK  status: ('A' for Active; 'I' for Inactive)
REMARK    1  A    between atoms: C_1  and  N_2
REMARK    2  A    between atoms: C_4  and  C_5
REMARK    3  A    between atoms: C_12  and  C_14
REMARK                            x       y       z     vdW  Elec       q    Type
REMARK                         _______ _______ _______ _____ _____    ______ ____
ROOT
ATOM      1  C   UNL     1       4.890   4.495  17.134  0.00  0.00    +0.000 C 
ATOM      2  C   UNL     1       5.824   4.503  18.342  0.00  0.00    +0.000 C 
ATOM      3  S   UNL     1       6.853   5.977  18.559  0.00  0.00    +0.000 S 
ATOM      4  O   UNL     1       8.199   5.815  17.774  0.00  0.00    +0.000 OA
ATOM      5  C   UNL     1       5.871   7.299  17.818  0.00  0.00    +0.000 C 
ATOM      6  C   UNL     1       4.787   6.927  16.818  0.00  0.00    +0.000 C 
ATOM      7  N   UNL     1       4.057   5.706  17.152  0.00  0.00    +0.000 N 
ATOM      8  C   UNL     1       2.965   5.854  18.027  0.00  0.00    +0.000 C 
ATOM      9  O   UNL     1       2.669   6.964  18.473  0.00  0.00    +0.000 OA
ENDROOT
BRANCH   8  10
ATOM     10  C   UNL     1       2.213   4.695  18.472  0.00  0.00    +0.000 A 
ATOM     11  C   UNL     1       1.446   3.746  17.812  0.00  0.00    +0.000 A 
ATOM     12  C   UNL     1       0.969   2.839  18.776  0.00  0.00    +0.000 A 
ATOM     13  F   UNL     1       0.240   1.788  18.540  0.00  0.00    +0.000 F 
ATOM     14  C   UNL     1       1.374   3.250  20.014  0.00  0.00    +0.000 A 
ATOM     15  N   UNL     1       2.085   4.412  19.825  0.00  0.00    +0.000 N 
ATOM     16  H   UNL     1       2.478   4.994  20.558  0.00  0.00    +0.000 HD
ENDBRANCH   8  10
BRANCH   1  20
ATOM     17  C   UNL     1       5.858   3.462  12.296  0.00  0.00    +0.000 C 
ATOM     18  N   UNL     1       5.991   3.848  13.679  0.00  0.00    +0.000 N 
ATOM     19  C   UNL     1       4.997   3.862  14.609  0.00  0.00    +0.000 A 
ATOM     20  C   UNL     1       5.552   4.296  15.796  0.00  0.00    +0.000 A 
ATOM     21  C   UNL     1       6.904   4.549  15.444  0.00  0.00    +0.000 A 
ATOM     22  N   UNL     1       7.171   4.271  14.163  0.00  0.00    +0.000 NA
ENDBRANCH   1  20
TORSDOF 2
ENDMDL
MODEL 6
REMARK VINA RESULT:      -6.3      4.022      5.170
REMARK  Name = 
REMARK  3 active torsions:
REMARK  status: ('A' for Active; 'I' for Inactive)
REMARK    1  A    between atoms: C_1  and  N_2
REMARK    2  A    between atoms: C_4  and  C_5
REMARK    3  A    between atoms: C_12  and  C_14
REMARK                            x       y       z     vdW  Elec       q    Type
REMARK                         _______ _______ _______ _____ _____    ______ ____
ROOT
ATOM      1  C   UNL     1       3.309   6.099  19.477  0.00  0.00    +0.000 C 
ATOM      2  C   UNL     1       3.143   4.784  20.237  0.00  0.00    +0.000 C 
ATOM      3  S   UNL     1       1.757   3.731  19.738  0.00  0.00    +0.000 S 
ATOM      4  O   UNL     1       0.468   4.122  20.538  0.00  0.00    +0.000 OA
ATOM      5  C   UNL     1       1.530   4.120  17.989  0.00  0.00    +0.000 C 
ATOM      6  C   UNL     1       2.077   5.436  17.460  0.00  0.00    +0.000 C 
ATOM      7  N   UNL     1       3.363   5.825  18.034  0.00  0.00    +0.000 N 
ATOM      8  C   UNL     1       4.508   5.292  17.412  0.00  0.00    +0.000 C 
ATOM      9  O   UNL     1       4.398   4.539  16.443  0.00  0.00    +0.000 OA
ENDROOT
BRANCH   8  10
ATOM     10  C   UNL     1       5.831   5.565  17.943  0.00  0.00    +0.000 A 
ATOM     11  C   UNL     1       6.624   4.939  18.893  0.00  0.00    +0.000 A 
ATOM     12  C   UNL     1       7.831   5.657  18.980  0.00  0.00    +0.000 A 
ATOM     13  F   UNL     1       8.844   5.357  19.739  0.00  0.00    +0.000 F 
ATOM     14  C   UNL     1       7.765   6.743  18.154  0.00  0.00    +0.000 A 
ATOM     15  N   UNL     1       6.521   6.710  17.567  0.00  0.00    +0.000 N 
ATOM     16  H   UNL     1       6.143   7.410  16.937  0.00  0.00    +0.000 HD
ENDBRANCH   8  10
BRANCH   1  20
ATOM     17  C   UNL     1       0.342  10.172  19.362  0.00  0.00    +0.000 C 
ATOM     18  N   UNL     1       0.999   8.953  19.765  0.00  0.00    +0.000 N 
ATOM     19  C   UNL     1       1.949   8.281  19.058  0.00  0.00    +0.000 A 
ATOM     20  C   UNL     1       2.305   7.173  19.801  0.00  0.00    +0.000 A 
ATOM     21  C   UNL     1       1.464   7.268  20.941  0.00  0.00    +0.000 A 
ATOM     22  N   UNL     1       0.678   8.349  20.921  0.00  0.00    +0.000 NA
ENDBRANCH   1  20
TORSDOF 2
ENDMDL
MODEL 7
REMARK VINA RESULT:      -6.3      7.688      9.475
REMARK  Name = 
REMARK  3 active torsions:
REMARK  status: ('A' for Active; 'I' for Inactive)
REMARK    1  A    between atoms: C_1  and  N_2
REMARK    2  A    between atoms: C_4  and  C_5
REMARK    3  A    between atoms: C_12  and  C_14
REMARK                            x       y       z     vdW  Elec       q    Type
REMARK                         _______ _______ _______ _____ _____    ______ ____
ROOT
ATOM      1  C   UNL     1      -0.068  10.025  19.073  0.00  0.00    +0.000 C 
ATOM      2  C   UNL     1      -0.586  10.061  20.510  0.00  0.00    +0.000 C 
ATOM      3  S   UNL     1       0.456  10.907  21.724  0.00  0.00    +0.000 S 
ATOM      4  O   UNL     1       1.492   9.905  22.337  0.00  0.00    +0.000 OA
ATOM      5  C   UNL     1       1.322  12.158  20.750  0.00  0.00    +0.000 C 
ATOM      6  C   UNL     1       1.430  11.962  19.246  0.00  0.00    +0.000 C 
ATOM      7  N   UNL     1       0.234  11.393  18.628  0.00  0.00    +0.000 N 
ATOM      8  C   UNL     1      -0.775  12.306  18.269  0.00  0.00    +0.000 C 
ATOM      9  O   UNL     1      -0.630  13.511  18.480  0.00  0.00    +0.000 OA
ENDROOT
BRANCH   8  10
ATOM     10  C   UNL     1      -2.029  11.838  17.707  0.00  0.00    +0.000 A 
ATOM     11  C   UNL     1      -3.271  11.555  18.254  0.00  0.00    +0.000 A 
ATOM     12  C   UNL     1      -4.115  11.146  17.205  0.00  0.00    +0.000 A 
ATOM     13  F   UNL     1      -5.372  10.830  17.316  0.00  0.00    +0.000 F 
ATOM     14  C   UNL     1      -3.398  11.111  16.043  0.00  0.00    +0.000 A 
ATOM     15  N   UNL     1      -2.113  11.480  16.368  0.00  0.00    +0.000 N 
ATOM     16  H   UNL     1      -1.323  11.504  15.731  0.00  0.00    +0.000 HD
ENDBRANCH   8  10
BRANCH   1  20
ATOM     17  C   UNL     1       3.332   6.314  19.342  0.00  0.00    +0.000 C 
ATOM     18  N   UNL     1       2.580   7.470  18.920  0.00  0.00    +0.000 N 
ATOM     19  C   UNL     1       1.496   7.998  19.552  0.00  0.00    +0.000 A 
ATOM     20  C   UNL     1       1.084   9.090  18.816  0.00  0.00    +0.000 A 
ATOM     21  C   UNL     1       1.993   9.103  17.725  0.00  0.00    +0.000 A 
ATOM     22  N   UNL     1       2.902   8.125  17.792  0.00  0.00    +0.000 NA
ENDBRANCH   1  20
TORSDOF 2
ENDMDL
MODEL 8
REMARK VINA RESULT:      -6.2      0.568      1.005
REMARK  Name = 
REMARK  3 active torsions:
REMARK  status: ('A' for Active; 'I' for Inactive)
REMARK    1  A    between atoms: C_1  and  N_2
REMARK    2  A    between atoms: C_4  and  C_5
REMARK    3  A    between atoms: C_12  and  C_14
REMARK                            x       y       z     vdW  Elec       q    Type
REMARK                         _______ _______ _______ _____ _____    ______ ____
ROOT
ATOM      1  C   UNL     1       4.300   4.724  16.748  0.00  0.00    +0.000 C 
ATOM      2  C   UNL     1       4.237   6.245  16.868  0.00  0.00    +0.000 C 
ATOM      3  S   UNL     1       4.526   6.939  18.516  0.00  0.00    +0.000 S 
ATOM      4  O   UNL     1       3.178   7.022  19.309  0.00  0.00    +0.000 OA
ATOM      5  C   UNL     1       5.622   5.737  19.301  0.00  0.00    +0.000 C 
ATOM      6  C   UNL     1       5.664   4.321  18.748  0.00  0.00    +0.000 C 
ATOM      7  N   UNL     1       5.578   4.244  17.292  0.00  0.00    +0.000 N 
ATOM      8  C   UNL     1       6.791   4.375  16.590  0.00  0.00    +0.000 C 
ATOM      9  O   UNL     1       7.848   4.549  17.198  0.00  0.00    +0.000 OA
ENDROOT
BRANCH   8  10
ATOM     10  C   UNL     1       6.807   4.375  15.138  0.00  0.00    +0.000 A 
ATOM     11  C   UNL     1       6.171   3.603  14.178  0.00  0.00    +0.000 A 
ATOM     12  C   UNL     1       6.566   4.084  12.916  0.00  0.00    +0.000 A 
ATOM     13  F   UNL     1       6.153   3.637  11.766  0.00  0.00    +0.000 F 
ATOM     14  C   UNL     1       7.477   5.087  13.085  0.00  0.00    +0.000 A 
ATOM     15  N   UNL     1       7.660   5.221  14.442  0.00  0.00    +0.000 N 
ATOM     16  H   UNL     1       8.316   5.851  14.893  0.00  0.00    +0.000 HD
ENDBRANCH   8  10
BRANCH   1  20
ATOM     17  C   UNL     1       1.326   1.255  18.873  0.00  0.00    +0.000 C 
ATOM     18  N   UNL     1       1.816   2.463  18.259  0.00  0.00    +0.000 N 
ATOM     19  C   UNL     1       3.096   2.699  17.860  0.00  0.00    +0.000 A 
ATOM     20  C   UNL     1       3.132   3.973  17.328  0.00  0.00    +0.000 A 
ATOM     21  C   UNL     1       1.796   4.425  17.493  0.00  0.00    +0.000 A 
ATOM     22  N   UNL     1       0.998   3.509  18.051  0.00  0.00    +0.000 NA
ENDBRANCH   1  20
TORSDOF 2
ENDMDL
MODEL 9
REMARK VINA RESULT:      -6.2      2.757      5.869
REMARK  Name = 
REMARK  3 active torsions:
REMARK  status: ('A' for Active; 'I' for Inactive)
REMARK    1  A    between atoms: C_1  and  N_2
REMARK    2  A    between atoms: C_4  and  C_5
REMARK    3  A    between atoms: C_12  and  C_14
REMARK                            x       y       z     vdW  Elec       q    Type
REMARK                         _______ _______ _______ _____ _____    ______ ____
ROOT
ATOM      1  C   UNL     1       4.951   4.484  17.160  0.00  0.00    +0.000 C 
ATOM      2  C   UNL     1       5.958   4.656  18.295  0.00  0.00    +0.000 C 
ATOM      3  S   UNL     1       6.851   6.230  18.353  0.00  0.00    +0.000 S 
ATOM      4  O   UNL     1       8.152   6.143  17.484  0.00  0.00    +0.000 OA
ATOM      5  C   UNL     1       5.699   7.405  17.610  0.00  0.00    +0.000 C 
ATOM      6  C   UNL     1       4.593   6.871  16.713  0.00  0.00    +0.000 C 
ATOM      7  N   UNL     1       4.008   5.611  17.168  0.00  0.00    +0.000 N 
ATOM      8  C   UNL     1       2.967   5.713  18.109  0.00  0.00    +0.000 C 
ATOM      9  O   UNL     1       2.595   6.817  18.511  0.00  0.00    +0.000 OA
ENDROOT
BRANCH   8  10
ATOM     10  C   UNL     1       2.362   4.520  18.672  0.00  0.00    +0.000 A 
ATOM     11  C   UNL     1       2.419   3.922  19.922  0.00  0.00    +0.000 A 
ATOM     12  C   UNL     1       1.602   2.777  19.884  0.00  0.00    +0.000 A 
ATOM     13  F   UNL     1       1.372   1.971  20.878  0.00  0.00    +0.000 F 
ATOM     14  C   UNL     1       1.101   2.629  18.623  0.00  0.00    +0.000 A 
ATOM     15  N   UNL     1       1.613   3.665  17.876  0.00  0.00    +0.000 N 
ATOM     16  H   UNL     1       1.469   3.808  16.881  0.00  0.00    +0.000 HD
ENDBRANCH   8  10
BRANCH   1  20
ATOM     17  C   UNL     1       5.642   3.436  12.278  0.00  0.00    +0.000 C 
ATOM     18  N   UNL     1       5.858   3.807  13.654  0.00  0.00    +0.000 N 
ATOM     19  C   UNL     1       4.910   3.863  14.630  0.00  0.00    +0.000 A 
ATOM     20  C   UNL     1       5.540   4.262  15.792  0.00  0.00    +0.000 A 
ATOM     21  C   UNL     1       6.884   4.453  15.377  0.00  0.00    +0.000 A 
ATOM     22  N   UNL     1       7.078   4.171  14.084  0.00  0.00    +0.000 NA
ENDBRANCH   1  20
TORSDOF 2
ENDMDL
