MODEL 1
REMARK VINA RESULT:      -6.6      0.000      0.000
REMARK  Name = 
REMARK  9 active torsions:
REMARK  status: ('A' for Active; 'I' for Inactive)
REMARK    1  A    between atoms: C_1  and  C_2
REMARK    2  A    between atoms: C_2  and  C_3
REMARK    3  A    between atoms: N_5  and  C_6
REMARK    4  A    between atoms: C_6  and  C_7
REMARK    5  A    between atoms: C_7  and  N_8
REMARK    6  A    between atoms: N_8  and  C_9
REMARK    7  A    between atoms: C_9  and  C_10
REMARK    8  A    between atoms: C_10  and  O_11
REMARK    9  A    between atoms: C_10  and  C_12
REMARK                            x       y       z     vdW  Elec       q    Type
REMARK                         _______ _______ _______ _____ _____    ______ ____
ROOT
ATOM      1  N   UNL     1       5.553   3.277  16.075  0.00  0.00    +0.000 NA
ATOM      2  H   UNL     1       6.378   3.133  16.659  0.00  0.00    +0.000 HD
ENDROOT
BRANCH   1   3
ATOM      3  C   UNL     1       5.843   4.217  14.983  0.00  0.00    +0.000 C 
BRANCH   3   4
ATOM      4  C   UNL     1       7.220   4.888  15.110  0.00  0.00    +0.000 C 
BRANCH   4   7
ATOM      5  C   UNL     1       7.658   5.569  17.411  0.00  0.00    +0.000 C 
ATOM      6  O   UNL     1       7.950   4.420  17.745  0.00  0.00    +0.000 OA
ATOM      7  N   UNL     1       7.273   5.902  16.133  0.00  0.00    +0.000 N 
ATOM      8  H   UNL     1       7.109   6.870  15.881  0.00  0.00    +0.000 HD
BRANCH   5  10
ATOM      9  C   UNL     1       7.800   8.054  17.613  0.00  0.00    +0.000 C 
ATOM     10  C   UNL     1       7.684   6.743  18.364  0.00  0.00    +0.000 C 
ENDBRANCH   5  10
ENDBRANCH   4   7
ENDBRANCH   3   4
ENDBRANCH   1   3
BRANCH   1  11
ATOM     11  C   UNL     1       4.443   3.756  16.917  0.00  0.00    +0.000 C 
BRANCH  11  12
ATOM     12  C   UNL     1       4.411   3.073  18.305  0.00  0.00    +0.000 C 
BRANCH  12  13
ATOM     13  C   UNL     1       3.093   3.383  18.991  0.00  0.00    +0.000 A 
ATOM     14  C   UNL     1       3.077   4.309  20.046  0.00  0.00    +0.000 A 
ATOM     15  C   UNL     1       1.912   4.538  20.778  0.00  0.00    +0.000 A 
ATOM     16  C   UNL     1       0.743   3.849  20.462  0.00  0.00    +0.000 A 
ATOM     17  C   UNL     1       0.736   2.942  19.406  0.00  0.00    +0.000 A 
ATOM     18  C   UNL     1       1.902   2.709  18.675  0.00  0.00    +0.000 A 
ENDBRANCH  12  13
BRANCH  12  19
ATOM     19  O   UNL     1       5.522   3.517  19.094  0.00  0.00    +0.000 OA
ATOM     20  H   UNL     1       6.328   3.338  18.586  0.00  0.00    +0.000 HD
ENDBRANCH  12  19
ENDBRANCH  11  12
ENDBRANCH   1  11
TORSDOF 8
ENDMDL
MODEL 2
REMARK VINA RESULT:      -6.3      1.637      2.835
REMARK  Name = 
REMARK  9 active torsions:
REMARK  status: ('A' for Active; 'I' for Inactive)
REMARK    1  A    between atoms: C_1  and  C_2
REMARK    2  A    between atoms: C_2  and  C_3
REMARK    3  A    between atoms: N_5  and  C_6
REMARK    4  A    between atoms: C_6  and  C_7
REMARK    5  A    between atoms: C_7  and  N_8
REMARK    6  A    between atoms: N_8  and  C_9
REMARK    7  A    between atoms: C_9  and  C_10
REMARK    8  A    between atoms: C_10  and  O_11
REMARK    9  A    between atoms: C_10  and  C_12
REMARK                            x       y       z     vdW  Elec       q    Type
REMARK                         _______ _______ _______ _____ _____    ______ ____
ROOT
ATOM      1  N   UNL     1       6.392   4.748  19.213  0.00  0.00    +0.000 NA
ATOM      2  H   UNL     1       6.474   4.402  20.171  0.00  0.00    +0.000 HD
ENDROOT
BRANCH   1   3
ATOM      3  C   UNL     1       7.433   5.745  18.925  0.00  0.00    +0.000 C 
BRANCH   3   4
ATOM      4  C   UNL     1       7.352   6.310  17.498  0.00  0.00    +0.000 C 
BRANCH   4   7
ATOM      5  C   UNL     1       6.543   5.348  15.407  0.00  0.00    +0.000 C 
ATOM      6  O   UNL     1       5.686   6.222  15.281  0.00  0.00    +0.000 OA
ATOM      7  N   UNL     1       7.410   5.297  16.475  0.00  0.00    +0.000 N 
ATOM      8  H   UNL     1       8.147   4.602  16.505  0.00  0.00    +0.000 HD
BRANCH   5  10
ATOM      9  C   UNL     1       5.479   3.979  13.609  0.00  0.00    +0.000 C 
ATOM     10  C   UNL     1       6.741   4.229  14.409  0.00  0.00    +0.000 C 
ENDBRANCH   5  10
ENDBRANCH   4   7
ENDBRANCH   3   4
ENDBRANCH   1   3
BRANCH   1  11
ATOM     11  C   UNL     1       5.043   5.306  19.017  0.00  0.00    +0.000 C 
BRANCH  11  12
ATOM     12  C   UNL     1       4.188   4.467  18.037  0.00  0.00    +0.000 C 
BRANCH  12  13
ATOM     13  C   UNL     1       2.914   4.021  18.732  0.00  0.00    +0.000 A 
ATOM     14  C   UNL     1       2.666   4.459  20.043  0.00  0.00    +0.000 A 
ATOM     15  C   UNL     1       1.567   3.983  20.759  0.00  0.00    +0.000 A 
ATOM     16  C   UNL     1       0.698   3.067  20.174  0.00  0.00    +0.000 A 
ATOM     17  C   UNL     1       0.917   2.637  18.868  0.00  0.00    +0.000 A 
ATOM     18  C   UNL     1       2.018   3.109  18.151  0.00  0.00    +0.000 A 
ENDBRANCH  12  13
BRANCH  12  19
ATOM     19  O   UNL     1       4.943   3.342  17.569  0.00  0.00    +0.000 OA
ATOM     20  H   UNL     1       5.728   3.265  18.134  0.00  0.00    +0.000 HD
ENDBRANCH  12  19
ENDBRANCH  11  12
ENDBRANCH   1  11
TORSDOF 8
ENDMDL
MODEL 3
REMARK VINA RESULT:      -6.2      1.887      3.063
REMARK  Name = 
REMARK  9 active torsions:
REMARK  status: ('A' for Active; 'I' for Inactive)
REMARK    1  A    between atoms: C_1  and  C_2
REMARK    2  A    between atoms: C_2  and  C_3
REMARK    3  A    between atoms: N_5  and  C_6
REMARK    4  A    between atoms: C_6  and  C_7
REMARK    5  A    between atoms: C_7  and  N_8
REMARK    6  A    between atoms: N_8  and  C_9
REMARK    7  A    between atoms: C_9  and  C_10
REMARK    8  A    between atoms: C_10  and  O_11
REMARK    9  A    between atoms: C_10  and  C_12
REMARK                            x       y       z     vdW  Elec       q    Type
REMARK                         _______ _______ _______ _____ _____    ______ ____
ROOT
ATOM      1  N   UNL     1       6.351   4.072  18.488  0.00  0.00    +0.000 NA
ATOM      2  H   UNL     1       6.598   3.507  19.303  0.00  0.00    +0.000 HD
ENDROOT
BRANCH   1   3
ATOM      3  C   UNL     1       7.526   4.788  17.971  0.00  0.00    +0.000 C 
BRANCH   3   4
ATOM      4  C   UNL     1       7.269   5.482  16.624  0.00  0.00    +0.000 C 
BRANCH   4   7
ATOM      5  C   UNL     1       6.970   4.740  14.319  0.00  0.00    +0.000 C 
ATOM      6  O   UNL     1       7.787   5.560  13.899  0.00  0.00    +0.000 OA
ATOM      7  N   UNL     1       6.636   4.628  15.650  0.00  0.00    +0.000 N 
ATOM      8  H   UNL     1       6.013   3.893  15.963  0.00  0.00    +0.000 HD
BRANCH   5  10
ATOM      9  C   UNL     1       6.788   3.795  12.014  0.00  0.00    +0.000 C 
ATOM     10  C   UNL     1       6.239   3.763  13.425  0.00  0.00    +0.000 C 
ENDBRANCH   5  10
ENDBRANCH   4   7
ENDBRANCH   3   4
ENDBRANCH   1   3
BRANCH   1  11
ATOM     11  C   UNL     1       5.272   5.004  18.856  0.00  0.00    +0.000 C 
BRANCH  11  12
ATOM     12  C   UNL     1       3.981   4.776  18.033  0.00  0.00    +0.000 C 
BRANCH  12  13
ATOM     13  C   UNL     1       2.909   4.182  18.928  0.00  0.00    +0.000 A 
ATOM     14  C   UNL     1       2.045   5.045  19.619  0.00  0.00    +0.000 A 
ATOM     15  C   UNL     1       1.121   4.547  20.538  0.00  0.00    +0.000 A 
ATOM     16  C   UNL     1       1.045   3.177  20.777  0.00  0.00    +0.000 A 
ATOM     17  C   UNL     1       1.881   2.304  20.086  0.00  0.00    +0.000 A 
ATOM     18  C   UNL     1       2.808   2.801  19.168  0.00  0.00    +0.000 A 
ENDBRANCH  12  13
BRANCH  12  19
ATOM     19  O   UNL     1       4.258   3.920  16.917  0.00  0.00    +0.000 OA
ATOM     20  H   UNL     1       5.128   4.170  16.569  0.00  0.00    +0.000 HD
ENDBRANCH  12  19
ENDBRANCH  11  12
ENDBRANCH   1  11
TORSDOF 8
ENDMDL
MODEL 4
REMARK VINA RESULT:      -6.2      1.972      3.230
REMARK  Name = 
REMARK  9 active torsions:
REMARK  status: ('A' for Active; 'I' for Inactive)
REMARK    1  A    between atoms: C_1  and  C_2
REMARK    2  A    between atoms: C_2  and  C_3
REMARK    3  A    between atoms: N_5  and  C_6
REMARK    4  A    between atoms: C_6  and  C_7
REMARK    5  A    between atoms: C_7  and  N_8
REMARK    6  A    between atoms: N_8  and  C_9
REMARK    7  A    between atoms: C_9  and  C_10
REMARK    8  A    between atoms: C_10  and  O_11
REMARK    9  A    between atoms: C_10  and  C_12
REMARK                            x       y       z     vdW  Elec       q    Type
REMARK                         _______ _______ _______ _____ _____    ______ ____
ROOT
ATOM      1  N   UNL     1       5.526   5.716  18.071  0.00  0.00    +0.000 NA
ATOM      2  H   UNL     1       5.161   5.056  17.381  0.00  0.00    +0.000 HD
ENDROOT
BRANCH   1   3
ATOM      3  C   UNL     1       6.974   5.542  18.248  0.00  0.00    +0.000 C 
BRANCH   3   4
ATOM      4  C   UNL     1       7.586   4.526  17.269  0.00  0.00    +0.000 C 
BRANCH   4   7
ATOM      5  C   UNL     1       6.793   4.587  14.963  0.00  0.00    +0.000 C 
ATOM      6  O   UNL     1       7.650   5.410  14.641  0.00  0.00    +0.000 OA
ATOM      7  N   UNL     1       6.672   4.094  16.243  0.00  0.00    +0.000 N 
ATOM      8  H   UNL     1       5.999   3.365  16.451  0.00  0.00    +0.000 HD
BRANCH   5  10
ATOM      9  C   UNL     1       6.424   3.637  12.683  0.00  0.00    +0.000 C 
ATOM     10  C   UNL     1       5.775   4.024  13.996  0.00  0.00    +0.000 C 
ENDBRANCH   5  10
ENDBRANCH   4   7
ENDBRANCH   3   4
ENDBRANCH   1   3
BRANCH   1  11
ATOM     11  C   UNL     1       4.802   5.535  19.341  0.00  0.00    +0.000 C 
BRANCH  11  12
ATOM     12  C   UNL     1       3.358   6.089  19.289  0.00  0.00    +0.000 C 
BRANCH  12  13
ATOM     13  C   UNL     1       2.372   4.937  19.349  0.00  0.00    +0.000 A 
ATOM     14  C   UNL     1       1.898   4.512  20.600  0.00  0.00    +0.000 A 
ATOM     15  C   UNL     1       1.082   3.386  20.710  0.00  0.00    +0.000 A 
ATOM     16  C   UNL     1       0.722   2.671  19.571  0.00  0.00    +0.000 A 
ATOM     17  C   UNL     1       1.167   3.090  18.319  0.00  0.00    +0.000 A 
ATOM     18  C   UNL     1       1.987   4.214  18.208  0.00  0.00    +0.000 A 
ENDBRANCH  12  13
BRANCH  12  19
ATOM     19  O   UNL     1       3.175   6.865  18.098  0.00  0.00    +0.000 OA
ATOM     20  H   UNL     1       3.126   6.246  17.353  0.00  0.00    +0.000 HD
ENDBRANCH  12  19
ENDBRANCH  11  12
ENDBRANCH   1  11
TORSDOF 8
ENDMDL
MODEL 5
REMARK VINA RESULT:      -6.1      2.291      3.682
REMARK  Name = 
REMARK  9 active torsions:
REMARK  status: ('A' for Active; 'I' for Inactive)
REMARK    1  A    between atoms: C_1  and  C_2
REMARK    2  A    between atoms: C_2  and  C_3
REMARK    3  A    between atoms: N_5  and  C_6
REMARK    4  A    between atoms: C_6  and  C_7
REMARK    5  A    between atoms: C_7  and  N_8
REMARK    6  A    between atoms: N_8  and  C_9
REMARK    7  A    between atoms: C_9  and  C_10
REMARK    8  A    between atoms: C_10  and  O_11
REMARK    9  A    between atoms: C_10  and  C_12
REMARK                            x       y       z     vdW  Elec       q    Type
REMARK                         _______ _______ _______ _____ _____    ______ ____
ROOT
ATOM      1  N   UNL     1       5.798   3.730  16.494  0.00  0.00    +0.000 NA
ATOM      2  H   UNL     1       6.268   3.184  17.219  0.00  0.00    +0.000 HD
ENDROOT
BRANCH   1   3
ATOM      3  C   UNL     1       6.665   4.815  16.012  0.00  0.00    +0.000 C 
BRANCH   3   4
ATOM      4  C   UNL     1       7.096   4.640  14.546  0.00  0.00    +0.000 C 
BRANCH   4   7
ATOM      5  C   UNL     1       6.422   3.593  12.449  0.00  0.00    +0.000 C 
ATOM      6  O   UNL     1       7.232   4.257  11.802  0.00  0.00    +0.000 OA
ATOM      7  N   UNL     1       6.270   3.716  13.811  0.00  0.00    +0.000 N 
ATOM      8  H   UNL     1       5.642   3.101  14.316  0.00  0.00    +0.000 HD
BRANCH   5  10
ATOM      9  C   UNL     1       4.202   3.208  11.371  0.00  0.00    +0.000 C 
ATOM     10  C   UNL     1       5.499   2.570  11.825  0.00  0.00    +0.000 C 
ENDBRANCH   5  10
ENDBRANCH   4   7
ENDBRANCH   3   4
ENDBRANCH   1   3
BRANCH   1  11
ATOM     11  C   UNL     1       4.530   4.253  17.030  0.00  0.00    +0.000 C 
BRANCH  11  12
ATOM     12  C   UNL     1       4.474   4.213  18.576  0.00  0.00    +0.000 C 
BRANCH  12  13
ATOM     13  C   UNL     1       3.080   3.810  19.021  0.00  0.00    +0.000 A 
ATOM     14  C   UNL     1       2.707   4.018  20.359  0.00  0.00    +0.000 A 
ATOM     15  C   UNL     1       1.480   3.558  20.838  0.00  0.00    +0.000 A 
ATOM     16  C   UNL     1       0.605   2.889  19.986  0.00  0.00    +0.000 A 
ATOM     17  C   UNL     1       0.950   2.691  18.652  0.00  0.00    +0.000 A 
ATOM     18  C   UNL     1       2.179   3.147  18.172  0.00  0.00    +0.000 A 
ENDBRANCH  12  13
BRANCH  12  19
ATOM     19  O   UNL     1       4.838   5.492  19.112  0.00  0.00    +0.000 OA
ATOM     20  H   UNL     1       4.216   6.144  18.752  0.00  0.00    +0.000 HD
ENDBRANCH  12  19
ENDBRANCH  11  12
ENDBRANCH   1  11
TORSDOF 8
ENDMDL
MODEL 6
REMARK VINA RESULT:      -6.1      1.893      3.021
REMARK  Name = 
REMARK  9 active torsions:
REMARK  status: ('A' for Active; 'I' for Inactive)
REMARK    1  A    between atoms: C_1  and  C_2
REMARK    2  A    between atoms: C_2  and  C_3
REMARK    3  A    between atoms: N_5  and  C_6
REMARK    4  A    between atoms: C_6  and  C_7
REMARK    5  A    between atoms: C_7  and  N_8
REMARK    6  A    between atoms: N_8  and  C_9
REMARK    7  A    between atoms: C_9  and  C_10
REMARK    8  A    between atoms: C_10  and  O_11
REMARK    9  A    between atoms: C_10  and  C_12
REMARK                            x       y       z     vdW  Elec       q    Type
REMARK                         _______ _______ _______ _____ _____    ______ ____
ROOT
ATOM      1  N   UNL     1       6.520   5.339  19.644  0.00  0.00    +0.000 NA
ATOM      2  H   UNL     1       6.268   6.255  20.019  0.00  0.00    +0.000 HD
ENDROOT
BRANCH   1   3
ATOM      3  C   UNL     1       7.668   5.444  18.732  0.00  0.00    +0.000 C 
BRANCH   3   4
ATOM      4  C   UNL     1       7.327   6.143  17.406  0.00  0.00    +0.000 C 
BRANCH   4   7
ATOM      5  C   UNL     1       6.348   5.366  15.311  0.00  0.00    +0.000 C 
ATOM      6  O   UNL     1       5.436   6.190  15.377  0.00  0.00    +0.000 OA
ATOM      7  N   UNL     1       7.328   5.255  16.271  0.00  0.00    +0.000 N 
ATOM      8  H   UNL     1       8.101   4.612  16.145  0.00  0.00    +0.000 HD
BRANCH   5  10
ATOM      9  C   UNL     1       7.437   4.908  13.111  0.00  0.00    +0.000 C 
ATOM     10  C   UNL     1       6.497   4.379  14.174  0.00  0.00    +0.000 C 
ENDBRANCH   5  10
ENDBRANCH   4   7
ENDBRANCH   3   4
ENDBRANCH   1   3
BRANCH   1  11
ATOM     11  C   UNL     1       5.348   4.755  18.969  0.00  0.00    +0.000 C 
BRANCH  11  12
ATOM     12  C   UNL     1       4.080   5.631  19.112  0.00  0.00    +0.000 C 
BRANCH  12  13
ATOM     13  C   UNL     1       2.862   4.738  19.255  0.00  0.00    +0.000 A 
ATOM     14  C   UNL     1       2.260   4.607  20.517  0.00  0.00    +0.000 A 
ATOM     15  C   UNL     1       1.211   3.709  20.718  0.00  0.00    +0.000 A 
ATOM     16  C   UNL     1       0.744   2.933  19.661  0.00  0.00    +0.000 A 
ATOM     17  C   UNL     1       1.316   3.064  18.398  0.00  0.00    +0.000 A 
ATOM     18  C   UNL     1       2.369   3.959  18.195  0.00  0.00    +0.000 A 
ENDBRANCH  12  13
BRANCH  12  19
ATOM     19  O   UNL     1       3.955   6.499  17.977  0.00  0.00    +0.000 OA
ATOM     20  H   UNL     1       4.753   7.049  17.944  0.00  0.00    +0.000 HD
ENDBRANCH  12  19
ENDBRANCH  11  12
ENDBRANCH   1  11
TORSDOF 8
ENDMDL
MODEL 7
REMARK VINA RESULT:      -6.1      1.586      1.692
REMARK  Name = 
REMARK  9 active torsions:
REMARK  status: ('A' for Active; 'I' for Inactive)
REMARK    1  A    between atoms: C_1  and  C_2
REMARK    2  A    between atoms: C_2  and  C_3
REMARK    3  A    between atoms: N_5  and  C_6
REMARK    4  A    between atoms: C_6  and  C_7
REMARK    5  A    between atoms: C_7  and  N_8
REMARK    6  A    between atoms: N_8  and  C_9
REMARK    7  A    between atoms: C_9  and  C_10
REMARK    8  A    between atoms: C_10  and  O_11
REMARK    9  A    between atoms: C_10  and  C_12
REMARK                            x       y       z     vdW  Elec       q    Type
REMARK                         _______ _______ _______ _____ _____    ______ ____
ROOT
ATOM      1  N   UNL     1       5.584   3.599  16.873  0.00  0.00    +0.000 NA
ATOM      2  H   UNL     1       6.190   4.233  17.397  0.00  0.00    +0.000 HD
ENDROOT
BRANCH   1   3
ATOM      3  C   UNL     1       5.877   3.666  15.434  0.00  0.00    +0.000 C 
BRANCH   3   4
ATOM      4  C   UNL     1       6.865   4.786  15.068  0.00  0.00    +0.000 C 
BRANCH   4   7
ATOM      5  C   UNL     1       6.982   6.530  16.769  0.00  0.00    +0.000 C 
ATOM      6  O   UNL     1       5.984   7.097  16.323  0.00  0.00    +0.000 OA
ATOM      7  N   UNL     1       7.504   5.385  16.213  0.00  0.00    +0.000 N 
ATOM      8  H   UNL     1       8.284   4.910  16.652  0.00  0.00    +0.000 HD
BRANCH   5  10
ATOM      9  C   UNL     1       8.027   8.510  17.876  0.00  0.00    +0.000 C 
ATOM     10  C   UNL     1       7.750   7.024  17.975  0.00  0.00    +0.000 C 
ENDBRANCH   5  10
ENDBRANCH   4   7
ENDBRANCH   3   4
ENDBRANCH   1   3
BRANCH   1  11
ATOM     11  C   UNL     1       4.178   3.935  17.152  0.00  0.00    +0.000 C 
BRANCH  11  12
ATOM     12  C   UNL     1       4.023   4.906  18.347  0.00  0.00    +0.000 C 
BRANCH  12  13
ATOM     13  C   UNL     1       3.098   4.292  19.382  0.00  0.00    +0.000 A 
ATOM     14  C   UNL     1       3.575   3.239  20.180  0.00  0.00    +0.000 A 
ATOM     15  C   UNL     1       2.726   2.570  21.062  0.00  0.00    +0.000 A 
ATOM     16  C   UNL     1       1.389   2.946  21.164  0.00  0.00    +0.000 A 
ATOM     17  C   UNL     1       0.904   4.001  20.395  0.00  0.00    +0.000 A 
ATOM     18  C   UNL     1       1.751   4.669  19.509  0.00  0.00    +0.000 A 
ENDBRANCH  12  13
BRANCH  12  19
ATOM     19  O   UNL     1       3.521   6.169  17.890  0.00  0.00    +0.000 OA
ATOM     20  H   UNL     1       3.123   6.615  18.654  0.00  0.00    +0.000 HD
ENDBRANCH  12  19
ENDBRANCH  11  12
ENDBRANCH   1  11
TORSDOF 8
ENDMDL
MODEL 8
REMARK VINA RESULT:      -6.1      1.429      1.948
REMARK  Name = 
REMARK  9 active torsions:
REMARK  status: ('A' for Active; 'I' for Inactive)
REMARK    1  A    between atoms: C_1  and  C_2
REMARK    2  A    between atoms: C_2  and  C_3
REMARK    3  A    between atoms: N_5  and  C_6
REMARK    4  A    between atoms: C_6  and  C_7
REMARK    5  A    between atoms: C_7  and  N_8
REMARK    6  A    between atoms: N_8  and  C_9
REMARK    7  A    between atoms: C_9  and  C_10
REMARK    8  A    between atoms: C_10  and  O_11
REMARK    9  A    between atoms: C_10  and  C_12
REMARK                            x       y       z     vdW  Elec       q    Type
REMARK                         _______ _______ _______ _____ _____    ______ ____
ROOT
ATOM      1  N   UNL     1       5.776   3.296  16.389  0.00  0.00    +0.000 NA
ATOM      2  H   UNL     1       6.412   3.670  17.096  0.00  0.00    +0.000 HD
ENDROOT
BRANCH   1   3
ATOM      3  C   UNL     1       6.047   3.893  15.074  0.00  0.00    +0.000 C 
BRANCH   3   4
ATOM      4  C   UNL     1       6.979   5.114  15.143  0.00  0.00    +0.000 C 
BRANCH   4   7
ATOM      5  C   UNL     1       7.274   6.553  17.090  0.00  0.00    +0.000 C 
ATOM      6  O   UNL     1       6.625   7.464  16.574  0.00  0.00    +0.000 OA
ATOM      7  N   UNL     1       7.514   5.354  16.459  0.00  0.00    +0.000 N 
ATOM      8  H   UNL     1       7.992   4.605  16.945  0.00  0.00    +0.000 HD
BRANCH   5  10
ATOM      9  C   UNL     1       7.444   5.487  19.342  0.00  0.00    +0.000 C 
ATOM     10  C   UNL     1       7.883   6.646  18.471  0.00  0.00    +0.000 C 
ENDBRANCH   5  10
ENDBRANCH   4   7
ENDBRANCH   3   4
ENDBRANCH   1   3
BRANCH   1  11
ATOM     11  C   UNL     1       4.387   3.536  16.814  0.00  0.00    +0.000 C 
BRANCH  11  12
ATOM     12  C   UNL     1       4.265   4.704  17.822  0.00  0.00    +0.000 C 
BRANCH  12  13
ATOM     13  C   UNL     1       3.124   4.426  18.783  0.00  0.00    +0.000 A 
ATOM     14  C   UNL     1       2.305   3.307  18.560  0.00  0.00    +0.000 A 
ATOM     15  C   UNL     1       1.178   3.078  19.350  0.00  0.00    +0.000 A 
ATOM     16  C   UNL     1       0.856   3.961  20.378  0.00  0.00    +0.000 A 
ATOM     17  C   UNL     1       1.668   5.064  20.627  0.00  0.00    +0.000 A 
ATOM     18  C   UNL     1       2.794   5.297  19.835  0.00  0.00    +0.000 A 
ENDBRANCH  12  13
BRANCH  12  19
ATOM     19  O   UNL     1       4.060   5.937  17.119  0.00  0.00    +0.000 OA
ATOM     20  H   UNL     1       4.342   5.797  16.201  0.00  0.00    +0.000 HD
ENDBRANCH  12  19
ENDBRANCH  11  12
ENDBRANCH   1  11
TORSDOF 8
ENDMDL
MODEL 9
REMARK VINA RESULT:      -6.0      1.615      1.796
REMARK  Name = 
REMARK  9 active torsions:
REMARK  status: ('A' for Active; 'I' for Inactive)
REMARK    1  A    between atoms: C_1  and  C_2
REMARK    2  A    between atoms: C_2  and  C_3
REMARK    3  A    between atoms: N_5  and  C_6
REMARK    4  A    between atoms: C_6  and  C_7
REMARK    5  A    between atoms: C_7  and  N_8
REMARK    6  A    between atoms: N_8  and  C_9
REMARK    7  A    between atoms: C_9  and  C_10
REMARK    8  A    between atoms: C_10  and  O_11
REMARK    9  A    between atoms: C_10  and  C_12
REMARK                            x       y       z     vdW  Elec       q    Type
REMARK                         _______ _______ _______ _____ _____    ______ ____
ROOT
ATOM      1  N   UNL     1       4.761   4.135  16.484  0.00  0.00    +0.000 NA
ATOM      2  H   UNL     1       3.949   3.597  16.173  0.00  0.00    +0.000 HD
ENDROOT
BRANCH   1   3
ATOM      3  C   UNL     1       5.955   3.779  15.704  0.00  0.00    +0.000 C 
BRANCH   3   4
ATOM      4  C   UNL     1       6.736   5.003  15.199  0.00  0.00    +0.000 C 
BRANCH   4   7
ATOM      5  C   UNL     1       6.950   6.738  16.900  0.00  0.00    +0.000 C 
ATOM      6  O   UNL     1       5.830   7.186  16.651  0.00  0.00    +0.000 OA
ATOM      7  N   UNL     1       7.494   5.666  16.229  0.00  0.00    +0.000 N 
ATOM      8  H   UNL     1       8.388   5.284  16.512  0.00  0.00    +0.000 HD
BRANCH   5  10
ATOM      9  C   UNL     1       8.011   8.811  17.803  0.00  0.00    +0.000 C 
ATOM     10  C   UNL     1       7.857   7.313  17.965  0.00  0.00    +0.000 C 
ENDBRANCH   5  10
ENDBRANCH   4   7
ENDBRANCH   3   4
ENDBRANCH   1   3
BRANCH   1  11
ATOM     11  C   UNL     1       4.969   3.904  17.923  0.00  0.00    +0.000 C 
BRANCH  11  12
ATOM     12  C   UNL     1       4.167   4.889  18.807  0.00  0.00    +0.000 C 
BRANCH  12  13
ATOM     13  C   UNL     1       3.134   4.121  19.611  0.00  0.00    +0.000 A 
ATOM     14  C   UNL     1       1.779   4.466  19.482  0.00  0.00    +0.000 A 
ATOM     15  C   UNL     1       0.810   3.865  20.286  0.00  0.00    +0.000 A 
ATOM     16  C   UNL     1       1.179   2.907  21.226  0.00  0.00    +0.000 A 
ATOM     17  C   UNL     1       2.516   2.538  21.354  0.00  0.00    +0.000 A 
ATOM     18  C   UNL     1       3.488   3.141  20.553  0.00  0.00    +0.000 A 
ENDBRANCH  12  13
BRANCH  12  19
ATOM     19  O   UNL     1       3.546   5.888  17.987  0.00  0.00    +0.000 OA
ATOM     20  H   UNL     1       4.016   6.723  18.142  0.00  0.00    +0.000 HD
ENDBRANCH  12  19
ENDBRANCH  11  12
ENDBRANCH   1  11
TORSDOF 8
ENDMDL
