MODEL 1
REMARK VINA RESULT:      -8.5      0.000      0.000
REMARK  Name = 
REMARK  6 active torsions:
REMARK  status: ('A' for Active; 'I' for Inactive)
REMARK    1  A    between atoms: C_1  and  C_2
REMARK    2  A    between atoms: C_2  and  N_3
REMARK    3  A    between atoms: C_12  and  C_13
REMARK    4  A    between atoms: C_13  and  N_14
REMARK    5  A    between atoms: N_17  and  C_18
REMARK    6  A    between atoms: C_18  and  C_19
REMARK                            x       y       z     vdW  Elec       q    Type
REMARK                         _______ _______ _______ _____ _____    ______ ____
ROOT
ATOM      1  N   UNL     1       4.028   3.789  18.523  0.00  0.00    +0.000 N 
ATOM      2  C   UNL     1       4.597   4.326  17.391  0.00  0.00    +0.000 A 
ATOM      3  C   UNL     1       5.305   3.717  16.343  0.00  0.00    +0.000 A 
ATOM      4  C   UNL     1       5.660   4.519  15.256  0.00  0.00    +0.000 A 
ATOM      5  C   UNL     1       5.389   5.884  15.247  0.00  0.00    +0.000 A 
ATOM      6  C   UNL     1       4.764   6.495  16.342  0.00  0.00    +0.000 A 
ATOM      7  C   UNL     1       4.332   5.700  17.426  0.00  0.00    +0.000 A 
ATOM      8  C   UNL     1       3.561   5.961  18.608  0.00  0.00    +0.000 A 
ATOM      9  C   UNL     1       3.054   7.117  19.251  0.00  0.00    +0.000 A 
ATOM     10  C   UNL     1       2.080   6.959  20.247  0.00  0.00    +0.000 A 
ATOM     11  C   UNL     1       1.517   5.689  20.457  0.00  0.00    +0.000 A 
ATOM     12  C   UNL     1       2.079   4.538  19.930  0.00  0.00    +0.000 A 
ATOM     13  C   UNL     1       3.162   4.707  19.073  0.00  0.00    +0.000 A 
ENDROOT
BRANCH   1  15
ATOM     14  C   UNL     1       3.345   1.417  18.396  0.00  0.00    +0.000 C 
ATOM     15  C   UNL     1       4.251   2.453  19.046  0.00  0.00    +0.000 C 
ENDBRANCH   1  15
BRANCH  10  16
ATOM     16  C   UNL     1       1.441   8.085  21.012  0.00  0.00    +0.000 C 
BRANCH  16  17
ATOM     17  N   UNL     1       0.405   8.935  20.419  0.00  0.00    +0.000 NA
ATOM     18  C   UNL     1      -0.582   9.187  21.491  0.00  0.00    +0.000 C 
ATOM     19  C   UNL     1      -0.072  10.213  22.548  0.00  0.00    +0.000 C 
ATOM     20  N   UNL     1       0.059  11.579  22.006  0.00  0.00    +0.000 NA
ATOM     21  C   UNL     1       0.890  11.509  20.787  0.00  0.00    +0.000 C 
ATOM     22  C   UNL     1       0.806  10.251  19.857  0.00  0.00    +0.000 C 
BRANCH  20  23
ATOM     23  C   UNL     1      -1.306  12.101  21.835  0.00  0.00    +0.000 C 
BRANCH  23  24
ATOM     24  C   UNL     1      -1.978  12.785  22.994  0.00  0.00    +0.000 A 
ATOM     25  C   UNL     1      -3.162  12.240  23.525  0.00  0.00    +0.000 A 
ATOM     26  C   UNL     1      -3.942  12.972  24.421  0.00  0.00    +0.000 A 
ATOM     27  C   UNL     1      -3.548  14.252  24.806  0.00  0.00    +0.000 A 
ATOM     28  C   UNL     1      -2.361  14.791  24.316  0.00  0.00    +0.000 A 
ATOM     29  C   UNL     1      -1.578  14.065  23.419  0.00  0.00    +0.000 A 
ATOM     30 CL   UNL     1      -0.145  14.838  22.831  0.00  0.00    +0.000 Cl
ENDBRANCH  23  24
ENDBRANCH  20  23
ENDBRANCH  16  17
ENDBRANCH  10  16
TORSDOF 5
ENDMDL
MODEL 2
REMARK VINA RESULT:      -8.4      1.122      1.492
REMARK  Name = 
REMARK  6 active torsions:
REMARK  status: ('A' for Active; 'I' for Inactive)
REMARK    1  A    between atoms: C_1  and  C_2
REMARK    2  A    between atoms: C_2  and  N_3
REMARK    3  A    between atoms: C_12  and  C_13
REMARK    4  A    between atoms: C_13  and  N_14
REMARK    5  A    between atoms: N_17  and  C_18
REMARK    6  A    between atoms: C_18  and  C_19
REMARK                            x       y       z     vdW  Elec       q    Type
REMARK                         _______ _______ _______ _____ _____    ______ ____
ROOT
ATOM      1  N   UNL     1       3.632   3.629  18.393  0.00  0.00    +0.000 N 
ATOM      2  C   UNL     1       4.287   4.240  17.348  0.00  0.00    +0.000 A 
ATOM      3  C   UNL     1       4.976   3.695  16.253  0.00  0.00    +0.000 A 
ATOM      4  C   UNL     1       5.439   4.583  15.279  0.00  0.00    +0.000 A 
ATOM      5  C   UNL     1       5.291   5.958  15.427  0.00  0.00    +0.000 A 
ATOM      6  C   UNL     1       4.683   6.492  16.571  0.00  0.00    +0.000 A 
ATOM      7  C   UNL     1       4.144   5.619  17.540  0.00  0.00    +0.000 A 
ATOM      8  C   UNL     1       3.357   5.810  18.725  0.00  0.00    +0.000 A 
ATOM      9  C   UNL     1       2.931   6.924  19.490  0.00  0.00    +0.000 A 
ATOM     10  C   UNL     1       1.911   6.741  20.435  0.00  0.00    +0.000 A 
ATOM     11  C   UNL     1       1.232   5.513  20.477  0.00  0.00    +0.000 A 
ATOM     12  C   UNL     1       1.708   4.384  19.830  0.00  0.00    +0.000 A 
ATOM     13  C   UNL     1       2.832   4.552  19.027  0.00  0.00    +0.000 A 
ENDROOT
BRANCH   1  15
ATOM     14  C   UNL     1       4.492   2.010  20.052  0.00  0.00    +0.000 C 
ATOM     15  C   UNL     1       3.718   2.226  18.758  0.00  0.00    +0.000 C 
ENDBRANCH   1  15
BRANCH  10  16
ATOM     16  C   UNL     1       1.348   7.824  21.312  0.00  0.00    +0.000 C 
BRANCH  16  17
ATOM     17  N   UNL     1       0.194   8.630  20.904  0.00  0.00    +0.000 NA
ATOM     18  C   UNL     1      -0.652   8.775  22.109  0.00  0.00    +0.000 C 
ATOM     19  C   UNL     1      -0.063   9.787  23.139  0.00  0.00    +0.000 C 
ATOM     20  N   UNL     1      -0.085  11.180  22.652  0.00  0.00    +0.000 NA
ATOM     21  C   UNL     1       0.575  11.213  21.332  0.00  0.00    +0.000 C 
ATOM     22  C   UNL     1       0.439   9.991  20.359  0.00  0.00    +0.000 C 
BRANCH  20  23
ATOM     23  C   UNL     1      -1.489  11.620  22.689  0.00  0.00    +0.000 C 
BRANCH  23  24
ATOM     24  C   UNL     1      -1.804  13.021  23.140  0.00  0.00    +0.000 A 
ATOM     25  C   UNL     1      -0.864  14.044  22.918  0.00  0.00    +0.000 A 
ATOM     26  C   UNL     1      -1.006  15.286  23.538  0.00  0.00    +0.000 A 
ATOM     27  C   UNL     1      -2.091  15.527  24.378  0.00  0.00    +0.000 A 
ATOM     28  C   UNL     1      -3.049  14.536  24.579  0.00  0.00    +0.000 A 
ATOM     29  C   UNL     1      -2.911  13.292  23.963  0.00  0.00    +0.000 A 
ATOM     30 CL   UNL     1      -4.128  12.110  24.311  0.00  0.00    +0.000 Cl
ENDBRANCH  23  24
ENDBRANCH  20  23
ENDBRANCH  16  17
ENDBRANCH  10  16
TORSDOF 5
ENDMDL
MODEL 3
REMARK VINA RESULT:      -8.2      1.233      1.466
REMARK  Name = 
REMARK  6 active torsions:
REMARK  status: ('A' for Active; 'I' for Inactive)
REMARK    1  A    between atoms: C_1  and  C_2
REMARK    2  A    between atoms: C_2  and  N_3
REMARK    3  A    between atoms: C_12  and  C_13
REMARK    4  A    between atoms: C_13  and  N_14
REMARK    5  A    between atoms: N_17  and  C_18
REMARK    6  A    between atoms: C_18  and  C_19
REMARK                            x       y       z     vdW  Elec       q    Type
REMARK                         _______ _______ _______ _____ _____    ______ ____
ROOT
ATOM      1  N   UNL     1       3.639   3.728  18.418  0.00  0.00    +0.000 N 
ATOM      2  C   UNL     1       4.306   4.297  17.357  0.00  0.00    +0.000 A 
ATOM      3  C   UNL     1       4.984   3.709  16.277  0.00  0.00    +0.000 A 
ATOM      4  C   UNL     1       5.466   4.561  15.280  0.00  0.00    +0.000 A 
ATOM      5  C   UNL     1       5.344   5.943  15.391  0.00  0.00    +0.000 A 
ATOM      6  C   UNL     1       4.747   6.519  16.519  0.00  0.00    +0.000 A 
ATOM      7  C   UNL     1       4.190   5.683  17.512  0.00  0.00    +0.000 A 
ATOM      8  C   UNL     1       3.407   5.921  18.690  0.00  0.00    +0.000 A 
ATOM      9  C   UNL     1       3.003   7.064  19.424  0.00  0.00    +0.000 A 
ATOM     10  C   UNL     1       1.980   6.927  20.373  0.00  0.00    +0.000 A 
ATOM     11  C   UNL     1       1.276   5.714  20.447  0.00  0.00    +0.000 A 
ATOM     12  C   UNL     1       1.730   4.559  19.832  0.00  0.00    +0.000 A 
ATOM     13  C   UNL     1       2.857   4.683  19.025  0.00  0.00    +0.000 A 
ENDROOT
BRANCH   1  15
ATOM     14  C   UNL     1       4.499   2.133  20.099  0.00  0.00    +0.000 C 
ATOM     15  C   UNL     1       3.697   2.334  18.820  0.00  0.00    +0.000 C 
ENDBRANCH   1  15
BRANCH  10  16
ATOM     16  C   UNL     1       1.438   8.044  21.220  0.00  0.00    +0.000 C 
BRANCH  16  17
ATOM     17  N   UNL     1       0.210   8.762  20.865  0.00  0.00    +0.000 NA
ATOM     18  C   UNL     1      -0.619   8.789  22.089  0.00  0.00    +0.000 C 
ATOM     19  C   UNL     1      -0.097   9.811  23.146  0.00  0.00    +0.000 C 
ATOM     20  N   UNL     1      -0.249  11.213  22.713  0.00  0.00    +0.000 NA
ATOM     21  C   UNL     1       0.378  11.350  21.382  0.00  0.00    +0.000 C 
ATOM     22  C   UNL     1       0.326  10.157  20.367  0.00  0.00    +0.000 C 
BRANCH  20  23
ATOM     23  C   UNL     1      -1.684  11.528  22.792  0.00  0.00    +0.000 C 
BRANCH  23  24
ATOM     24  C   UNL     1      -2.129  12.955  22.619  0.00  0.00    +0.000 A 
ATOM     25  C   UNL     1      -2.095  13.826  23.724  0.00  0.00    +0.000 A 
ATOM     26  C   UNL     1      -2.728  15.068  23.670  0.00  0.00    +0.000 A 
ATOM     27  C   UNL     1      -3.394  15.462  22.511  0.00  0.00    +0.000 A 
ATOM     28  C   UNL     1      -3.408  14.626  21.398  0.00  0.00    +0.000 A 
ATOM     29  C   UNL     1      -2.778  13.382  21.447  0.00  0.00    +0.000 A 
ATOM     30 CL   UNL     1      -2.888  12.395  20.029  0.00  0.00    +0.000 Cl
ENDBRANCH  23  24
ENDBRANCH  20  23
ENDBRANCH  16  17
ENDBRANCH  10  16
TORSDOF 5
ENDMDL
MODEL 4
REMARK VINA RESULT:      -8.0      1.200      1.329
REMARK  Name = 
REMARK  6 active torsions:
REMARK  status: ('A' for Active; 'I' for Inactive)
REMARK    1  A    between atoms: C_1  and  C_2
REMARK    2  A    between atoms: C_2  and  N_3
REMARK    3  A    between atoms: C_12  and  C_13
REMARK    4  A    between atoms: C_13  and  N_14
REMARK    5  A    between atoms: N_17  and  C_18
REMARK    6  A    between atoms: C_18  and  C_19
REMARK                            x       y       z     vdW  Elec       q    Type
REMARK                         _______ _______ _______ _____ _____    ______ ____
ROOT
ATOM      1  N   UNL     1       3.732   3.984  18.529  0.00  0.00    +0.000 N 
ATOM      2  C   UNL     1       4.353   4.538  17.433  0.00  0.00    +0.000 A 
ATOM      3  C   UNL     1       5.030   3.936  16.360  0.00  0.00    +0.000 A 
ATOM      4  C   UNL     1       5.457   4.767  15.322  0.00  0.00    +0.000 A 
ATOM      5  C   UNL     1       5.285   6.147  15.384  0.00  0.00    +0.000 A 
ATOM      6  C   UNL     1       4.690   6.742  16.504  0.00  0.00    +0.000 A 
ATOM      7  C   UNL     1       4.188   5.924  17.540  0.00  0.00    +0.000 A 
ATOM      8  C   UNL     1       3.422   6.176  18.726  0.00  0.00    +0.000 A 
ATOM      9  C   UNL     1       2.990   7.330  19.427  0.00  0.00    +0.000 A 
ATOM     10  C   UNL     1       1.994   7.190  20.403  0.00  0.00    +0.000 A 
ATOM     11  C   UNL     1       1.339   5.955  20.538  0.00  0.00    +0.000 A 
ATOM     12  C   UNL     1       1.823   4.796  19.955  0.00  0.00    +0.000 A 
ATOM     13  C   UNL     1       2.927   4.932  19.119  0.00  0.00    +0.000 A 
ENDROOT
BRANCH   1  15
ATOM     14  C   UNL     1       2.850   1.686  18.301  0.00  0.00    +0.000 C 
ATOM     15  C   UNL     1       3.852   2.610  18.981  0.00  0.00    +0.000 C 
ENDBRANCH   1  15
BRANCH  10  16
ATOM     16  C   UNL     1       1.428   8.318  21.221  0.00  0.00    +0.000 C 
BRANCH  16  17
ATOM     17  N   UNL     1       0.087   8.857  20.975  0.00  0.00    +0.000 NA
ATOM     18  C   UNL     1      -0.602   8.857  22.284  0.00  0.00    +0.000 C 
ATOM     19  C   UNL     1      -0.104   9.997  23.225  0.00  0.00    +0.000 C 
ATOM     20  N   UNL     1      -0.480  11.341  22.747  0.00  0.00    +0.000 NA
ATOM     21  C   UNL     1      -0.024  11.473  21.349  0.00  0.00    +0.000 C 
ATOM     22  C   UNL     1      -0.031  10.223  20.403  0.00  0.00    +0.000 C 
BRANCH  20  23
ATOM     23  C   UNL     1      -1.927  11.483  22.975  0.00  0.00    +0.000 C 
BRANCH  23  24
ATOM     24  C   UNL     1      -2.639  12.689  22.424  0.00  0.00    +0.000 A 
ATOM     25  C   UNL     1      -3.516  12.534  21.335  0.00  0.00    +0.000 A 
ATOM     26  C   UNL     1      -3.994  13.647  20.643  0.00  0.00    +0.000 A 
ATOM     27  C   UNL     1      -3.610  14.929  21.032  0.00  0.00    +0.000 A 
ATOM     28  C   UNL     1      -2.770  15.101  22.130  0.00  0.00    +0.000 A 
ATOM     29  C   UNL     1      -2.288  13.991  22.825  0.00  0.00    +0.000 A 
ATOM     30 CL   UNL     1      -1.213  14.304  24.146  0.00  0.00    +0.000 Cl
ENDBRANCH  23  24
ENDBRANCH  20  23
ENDBRANCH  16  17
ENDBRANCH  10  16
TORSDOF 5
ENDMDL
MODEL 5
REMARK VINA RESULT:      -7.9      1.792      3.386
REMARK  Name = 
REMARK  6 active torsions:
REMARK  status: ('A' for Active; 'I' for Inactive)
REMARK    1  A    between atoms: C_1  and  C_2
REMARK    2  A    between atoms: C_2  and  N_3
REMARK    3  A    between atoms: C_12  and  C_13
REMARK    4  A    between atoms: C_13  and  N_14
REMARK    5  A    between atoms: N_17  and  C_18
REMARK    6  A    between atoms: C_18  and  C_19
REMARK                            x       y       z     vdW  Elec       q    Type
REMARK                         _______ _______ _______ _____ _____    ______ ____
ROOT
ATOM      1  N   UNL     1       4.040   4.637  17.678  0.00  0.00    +0.000 N 
ATOM      2  C   UNL     1       3.672   3.908  18.786  0.00  0.00    +0.000 A 
ATOM      3  C   UNL     1       4.070   2.634  19.220  0.00  0.00    +0.000 A 
ATOM      4  C   UNL     1       3.607   2.206  20.466  0.00  0.00    +0.000 A 
ATOM      5  C   UNL     1       2.723   2.980  21.212  0.00  0.00    +0.000 A 
ATOM      6  C   UNL     1       2.261   4.208  20.723  0.00  0.00    +0.000 A 
ATOM      7  C   UNL     1       2.764   4.700  19.499  0.00  0.00    +0.000 A 
ATOM      8  C   UNL     1       2.623   5.940  18.790  0.00  0.00    +0.000 A 
ATOM      9  C   UNL     1       1.823   7.101  18.930  0.00  0.00    +0.000 A 
ATOM     10  C   UNL     1       2.175   8.251  18.208  0.00  0.00    +0.000 A 
ATOM     11  C   UNL     1       3.392   8.271  17.507  0.00  0.00    +0.000 A 
ATOM     12  C   UNL     1       4.121   7.119  17.260  0.00  0.00    +0.000 A 
ATOM     13  C   UNL     1       3.654   5.947  17.849  0.00  0.00    +0.000 A 
ENDROOT
BRANCH   1  15
ATOM     14  C   UNL     1       6.264   4.371  16.633  0.00  0.00    +0.000 C 
ATOM     15  C   UNL     1       4.763   4.138  16.522  0.00  0.00    +0.000 C 
ENDBRANCH   1  15
BRANCH  10  16
ATOM     16  C   UNL     1       1.434   9.558  18.258  0.00  0.00    +0.000 C 
BRANCH  16  17
ATOM     17  N   UNL     1       0.737  10.008  19.466  0.00  0.00    +0.000 NA
ATOM     18  C   UNL     1       1.140  11.415  19.673  0.00  0.00    +0.000 C 
ATOM     19  C   UNL     1       0.447  12.392  18.674  0.00  0.00    +0.000 C 
ATOM     20  N   UNL     1      -1.005  12.515  18.905  0.00  0.00    +0.000 NA
ATOM     21  C   UNL     1      -1.582  11.156  18.914  0.00  0.00    +0.000 C 
ATOM     22  C   UNL     1      -0.748   9.957  19.485  0.00  0.00    +0.000 C 
BRANCH  20  23
ATOM     23  C   UNL     1      -1.174  13.303  20.136  0.00  0.00    +0.000 C 
BRANCH  23  24
ATOM     24  C   UNL     1      -2.357  13.026  21.023  0.00  0.00    +0.000 A 
ATOM     25  C   UNL     1      -3.595  13.626  20.727  0.00  0.00    +0.000 A 
ATOM     26  C   UNL     1      -4.638  13.599  21.655  0.00  0.00    +0.000 A 
ATOM     27  C   UNL     1      -4.463  12.966  22.883  0.00  0.00    +0.000 A 
ATOM     28  C   UNL     1      -3.255  12.338  23.177  0.00  0.00    +0.000 A 
ATOM     29  C   UNL     1      -2.209  12.363  22.255  0.00  0.00    +0.000 A 
ATOM     30 CL   UNL     1      -0.731  11.595  22.729  0.00  0.00    +0.000 Cl
ENDBRANCH  23  24
ENDBRANCH  20  23
ENDBRANCH  16  17
ENDBRANCH  10  16
TORSDOF 5
ENDMDL
MODEL 6
REMARK VINA RESULT:      -7.9      2.838      3.462
REMARK  Name = 
REMARK  6 active torsions:
REMARK  status: ('A' for Active; 'I' for Inactive)
REMARK    1  A    between atoms: C_1  and  C_2
REMARK    2  A    between atoms: C_2  and  N_3
REMARK    3  A    between atoms: C_12  and  C_13
REMARK    4  A    between atoms: C_13  and  N_14
REMARK    5  A    between atoms: N_17  and  C_18
REMARK    6  A    between atoms: C_18  and  C_19
REMARK                            x       y       z     vdW  Elec       q    Type
REMARK                         _______ _______ _______ _____ _____    ______ ____
ROOT
ATOM      1  N   UNL     1       4.177   3.857  17.714  0.00  0.00    +0.000 N 
ATOM      2  C   UNL     1       4.946   4.134  16.607  0.00  0.00    +0.000 A 
ATOM      3  C   UNL     1       5.692   3.288  15.771  0.00  0.00    +0.000 A 
ATOM      4  C   UNL     1       6.280   3.856  14.639  0.00  0.00    +0.000 A 
ATOM      5  C   UNL     1       6.194   5.223  14.391  0.00  0.00    +0.000 A 
ATOM      6  C   UNL     1       5.525   6.070  15.283  0.00  0.00    +0.000 A 
ATOM      7  C   UNL     1       4.863   5.516  16.400  0.00  0.00    +0.000 A 
ATOM      8  C   UNL     1       3.994   6.051  17.409  0.00  0.00    +0.000 A 
ATOM      9  C   UNL     1       3.568   7.346  17.796  0.00  0.00    +0.000 A 
ATOM     10  C   UNL     1       2.466   7.463  18.657  0.00  0.00    +0.000 A 
ATOM     11  C   UNL     1       1.720   6.315  18.970  0.00  0.00    +0.000 A 
ATOM     12  C   UNL     1       2.186   5.037  18.704  0.00  0.00    +0.000 A 
ATOM     13  C   UNL     1       3.379   4.943  17.993  0.00  0.00    +0.000 A 
ENDROOT
BRANCH   1  15
ATOM     14  C   UNL     1       2.934   1.762  18.132  0.00  0.00    +0.000 C 
ATOM     15  C   UNL     1       4.158   2.609  18.455  0.00  0.00    +0.000 C 
ENDBRANCH   1  15
BRANCH  10  16
ATOM     16  C   UNL     1       1.893   8.763  19.148  0.00  0.00    +0.000 C 
BRANCH  16  17
ATOM     17  N   UNL     1       1.496   9.832  18.227  0.00  0.00    +0.000 NA
ATOM     18  C   UNL     1       0.027   9.729  18.087  0.00  0.00    +0.000 C 
ATOM     19  C   UNL     1      -0.735  10.259  19.340  0.00  0.00    +0.000 C 
ATOM     20  N   UNL     1      -0.605  11.718  19.516  0.00  0.00    +0.000 NA
ATOM     21  C   UNL     1       0.833  12.054  19.500  0.00  0.00    +0.000 C 
ATOM     22  C   UNL     1       1.816  11.235  18.594  0.00  0.00    +0.000 C 
BRANCH  20  23
ATOM     23  C   UNL     1      -1.431  12.347  18.473  0.00  0.00    +0.000 C 
BRANCH  23  24
ATOM     24  C   UNL     1      -2.853  11.889  18.293  0.00  0.00    +0.000 A 
ATOM     25  C   UNL     1      -3.258  11.370  17.049  0.00  0.00    +0.000 A 
ATOM     26  C   UNL     1      -4.611  11.174  16.768  0.00  0.00    +0.000 A 
ATOM     27  C   UNL     1      -5.575  11.482  17.725  0.00  0.00    +0.000 A 
ATOM     28  C   UNL     1      -5.188  11.963  18.973  0.00  0.00    +0.000 A 
ATOM     29  C   UNL     1      -3.838  12.163  19.260  0.00  0.00    +0.000 A 
ATOM     30 CL   UNL     1      -3.458  12.808  20.821  0.00  0.00    +0.000 Cl
ENDBRANCH  23  24
ENDBRANCH  20  23
ENDBRANCH  16  17
ENDBRANCH  10  16
TORSDOF 5
ENDMDL
MODEL 7
REMARK VINA RESULT:      -7.9      1.600      2.052
REMARK  Name = 
REMARK  6 active torsions:
REMARK  status: ('A' for Active; 'I' for Inactive)
REMARK    1  A    between atoms: C_1  and  C_2
REMARK    2  A    between atoms: C_2  and  N_3
REMARK    3  A    between atoms: C_12  and  C_13
REMARK    4  A    between atoms: C_13  and  N_14
REMARK    5  A    between atoms: N_17  and  C_18
REMARK    6  A    between atoms: C_18  and  C_19
REMARK                            x       y       z     vdW  Elec       q    Type
REMARK                         _______ _______ _______ _____ _____    ______ ____
ROOT
ATOM      1  N   UNL     1       4.606   4.792  18.473  0.00  0.00    +0.000 N 
ATOM      2  C   UNL     1       5.199   4.795  17.231  0.00  0.00    +0.000 A 
ATOM      3  C   UNL     1       6.028   3.849  16.607  0.00  0.00    +0.000 A 
ATOM      4  C   UNL     1       6.381   4.082  15.276  0.00  0.00    +0.000 A 
ATOM      5  C   UNL     1       5.989   5.244  14.618  0.00  0.00    +0.000 A 
ATOM      6  C   UNL     1       5.239   6.222  15.283  0.00  0.00    +0.000 A 
ATOM      7  C   UNL     1       4.809   5.986  16.607  0.00  0.00    +0.000 A 
ATOM      8  C   UNL     1       3.940   6.682  17.512  0.00  0.00    +0.000 A 
ATOM      9  C   UNL     1       3.288   7.940  17.523  0.00  0.00    +0.000 A 
ATOM     10  C   UNL     1       2.267   8.160  18.459  0.00  0.00    +0.000 A 
ATOM     11  C   UNL     1       1.809   7.083  19.236  0.00  0.00    +0.000 A 
ATOM     12  C   UNL     1       2.507   5.889  19.326  0.00  0.00    +0.000 A 
ATOM     13  C   UNL     1       3.626   5.757  18.508  0.00  0.00    +0.000 A 
ENDROOT
BRANCH   1  15
ATOM     14  C   UNL     1       4.132   2.588  19.486  0.00  0.00    +0.000 C 
ATOM     15  C   UNL     1       4.914   3.892  19.569  0.00  0.00    +0.000 C 
ENDBRANCH   1  15
BRANCH  10  16
ATOM     16  C   UNL     1       1.479   9.434  18.589  0.00  0.00    +0.000 C 
BRANCH  16  17
ATOM     17  N   UNL     1       0.695   9.741  19.788  0.00  0.00    +0.000 NA
ATOM     18  C   UNL     1       1.384  10.869  20.452  0.00  0.00    +0.000 C 
ATOM     19  C   UNL     1       1.157  12.227  19.719  0.00  0.00    +0.000 C 
ATOM     20  N   UNL     1      -0.237  12.702  19.808  0.00  0.00    +0.000 NA
ATOM     21  C   UNL     1      -1.120  11.614  19.344  0.00  0.00    +0.000 C 
ATOM     22  C   UNL     1      -0.732  10.120  19.621  0.00  0.00    +0.000 C 
BRANCH  20  23
ATOM     23  C   UNL     1      -0.441  13.161  21.191  0.00  0.00    +0.000 C 
BRANCH  23  24
ATOM     24  C   UNL     1      -1.806  13.029  21.811  0.00  0.00    +0.000 A 
ATOM     25  C   UNL     1      -2.773  14.021  21.566  0.00  0.00    +0.000 A 
ATOM     26  C   UNL     1      -3.950  14.067  22.314  0.00  0.00    +0.000 A 
ATOM     27  C   UNL     1      -4.182  13.119  23.309  0.00  0.00    +0.000 A 
ATOM     28  C   UNL     1      -3.250  12.110  23.539  0.00  0.00    +0.000 A 
ATOM     29  C   UNL     1      -2.070  12.060  22.796  0.00  0.00    +0.000 A 
ATOM     30 CL   UNL     1      -0.953  10.797  23.186  0.00  0.00    +0.000 Cl
ENDBRANCH  23  24
ENDBRANCH  20  23
ENDBRANCH  16  17
ENDBRANCH  10  16
TORSDOF 5
ENDMDL
MODEL 8
REMARK VINA RESULT:      -7.8      1.806      3.288
REMARK  Name = 
REMARK  6 active torsions:
REMARK  status: ('A' for Active; 'I' for Inactive)
REMARK    1  A    between atoms: C_1  and  C_2
REMARK    2  A    between atoms: C_2  and  N_3
REMARK    3  A    between atoms: C_12  and  C_13
REMARK    4  A    between atoms: C_13  and  N_14
REMARK    5  A    between atoms: N_17  and  C_18
REMARK    6  A    between atoms: C_18  and  C_19
REMARK                            x       y       z     vdW  Elec       q    Type
REMARK                         _______ _______ _______ _____ _____    ______ ____
ROOT
ATOM      1  N   UNL     1       4.198   4.546  17.036  0.00  0.00    +0.000 N 
ATOM      2  C   UNL     1       3.434   3.634  17.728  0.00  0.00    +0.000 A 
ATOM      3  C   UNL     1       3.609   2.256  17.931  0.00  0.00    +0.000 A 
ATOM      4  C   UNL     1       2.716   1.615  18.792  0.00  0.00    +0.000 A 
ATOM      5  C   UNL     1       1.649   2.300  19.367  0.00  0.00    +0.000 A 
ATOM      6  C   UNL     1       1.433   3.654  19.081  0.00  0.00    +0.000 A 
ATOM      7  C   UNL     1       2.357   4.346  18.268  0.00  0.00    +0.000 A 
ATOM      8  C   UNL     1       2.519   5.723  17.895  0.00  0.00    +0.000 A 
ATOM      9  C   UNL     1       1.761   6.910  18.048  0.00  0.00    +0.000 A 
ATOM     10  C   UNL     1       2.385   8.142  17.807  0.00  0.00    +0.000 A 
ATOM     11  C   UNL     1       3.772   8.174  17.591  0.00  0.00    +0.000 A 
ATOM     12  C   UNL     1       4.503   7.029  17.319  0.00  0.00    +0.000 A 
ATOM     13  C   UNL     1       3.818   5.819  17.395  0.00  0.00    +0.000 A 
ENDROOT
BRANCH   1  15
ATOM     14  C   UNL     1       6.642   4.296  16.766  0.00  0.00    +0.000 C 
ATOM     15  C   UNL     1       5.270   4.238  16.107  0.00  0.00    +0.000 C 
ENDBRANCH   1  15
BRANCH  10  16
ATOM     16  C   UNL     1       1.718   9.483  17.935  0.00  0.00    +0.000 C 
BRANCH  16  17
ATOM     17  N   UNL     1       1.499  10.119  19.238  0.00  0.00    +0.000 NA
ATOM     18  C   UNL     1       1.105  11.516  18.952  0.00  0.00    +0.000 C 
ATOM     19  C   UNL     1      -0.360  11.632  18.431  0.00  0.00    +0.000 C 
ATOM     20  N   UNL     1      -1.364  11.297  19.459  0.00  0.00    +0.000 NA
ATOM     21  C   UNL     1      -1.026   9.971  20.012  0.00  0.00    +0.000 C 
ATOM     22  C   UNL     1       0.475   9.538  20.144  0.00  0.00    +0.000 C 
BRANCH  20  23
ATOM     23  C   UNL     1      -1.381  12.416  20.416  0.00  0.00    +0.000 C 
BRANCH  23  24
ATOM     24  C   UNL     1      -2.518  12.523  21.395  0.00  0.00    +0.000 A 
ATOM     25  C   UNL     1      -3.647  13.293  21.059  0.00  0.00    +0.000 A 
ATOM     26  C   UNL     1      -4.598  13.620  22.026  0.00  0.00    +0.000 A 
ATOM     27  C   UNL     1      -4.441  13.176  23.337  0.00  0.00    +0.000 A 
ATOM     28  C   UNL     1      -3.348  12.384  23.678  0.00  0.00    +0.000 A 
ATOM     29  C   UNL     1      -2.393  12.055  22.715  0.00  0.00    +0.000 A 
ATOM     30 CL   UNL     1      -1.046  11.104  23.244  0.00  0.00    +0.000 Cl
ENDBRANCH  23  24
ENDBRANCH  20  23
ENDBRANCH  16  17
ENDBRANCH  10  16
TORSDOF 5
ENDMDL
MODEL 9
REMARK VINA RESULT:      -7.7      0.932      1.372
REMARK  Name = 
REMARK  6 active torsions:
REMARK  status: ('A' for Active; 'I' for Inactive)
REMARK    1  A    between atoms: C_1  and  C_2
REMARK    2  A    between atoms: C_2  and  N_3
REMARK    3  A    between atoms: C_12  and  C_13
REMARK    4  A    between atoms: C_13  and  N_14
REMARK    5  A    between atoms: N_17  and  C_18
REMARK    6  A    between atoms: C_18  and  C_19
REMARK                            x       y       z     vdW  Elec       q    Type
REMARK                         _______ _______ _______ _____ _____    ______ ____
ROOT
ATOM      1  N   UNL     1       4.059   3.807  18.692  0.00  0.00    +0.000 N 
ATOM      2  C   UNL     1       4.622   4.475  17.629  0.00  0.00    +0.000 A 
ATOM      3  C   UNL     1       5.475   4.025  16.609  0.00  0.00    +0.000 A 
ATOM      4  C   UNL     1       5.787   4.925  15.588  0.00  0.00    +0.000 A 
ATOM      5  C   UNL     1       5.332   6.239  15.620  0.00  0.00    +0.000 A 
ATOM      6  C   UNL     1       4.558   6.700  16.693  0.00  0.00    +0.000 A 
ATOM      7  C   UNL     1       4.169   5.797  17.706  0.00  0.00    +0.000 A 
ATOM      8  C   UNL     1       3.293   5.888  18.839  0.00  0.00    +0.000 A 
ATOM      9  C   UNL     1       2.590   6.929  19.494  0.00  0.00    +0.000 A 
ATOM     10  C   UNL     1       1.583   6.587  20.409  0.00  0.00    +0.000 A 
ATOM     11  C   UNL     1       1.188   5.244  20.520  0.00  0.00    +0.000 A 
ATOM     12  C   UNL     1       1.937   4.209  19.985  0.00  0.00    +0.000 A 
ATOM     13  C   UNL     1       3.041   4.569  19.217  0.00  0.00    +0.000 A 
ENDROOT
BRANCH   1  15
ATOM     14  C   UNL     1       3.663   1.377  18.462  0.00  0.00    +0.000 C 
ATOM     15  C   UNL     1       4.430   2.487  19.170  0.00  0.00    +0.000 C 
ENDBRANCH   1  15
BRANCH  10  16
ATOM     16  C   UNL     1       0.746   7.575  21.174  0.00  0.00    +0.000 C 
BRANCH  16  17
ATOM     17  N   UNL     1       1.302   8.832  21.683  0.00  0.00    +0.000 NA
ATOM     18  C   UNL     1       0.944   9.870  20.692  0.00  0.00    +0.000 C 
ATOM     19  C   UNL     1      -0.559  10.278  20.767  0.00  0.00    +0.000 C 
ATOM     20  N   UNL     1      -0.898  10.996  22.011  0.00  0.00    +0.000 NA
ATOM     21  C   UNL     1      -0.441  10.176  23.150  0.00  0.00    +0.000 C 
ATOM     22  C   UNL     1       0.860   9.311  23.018  0.00  0.00    +0.000 C 
BRANCH  20  23
ATOM     23  C   UNL     1      -0.310  12.340  21.899  0.00  0.00    +0.000 C 
BRANCH  23  24
ATOM     24  C   UNL     1      -0.916  13.471  22.685  0.00  0.00    +0.000 A 
ATOM     25  C   UNL     1      -2.201  13.315  23.238  0.00  0.00    +0.000 A 
ATOM     26  C   UNL     1      -2.892  14.414  23.750  0.00  0.00    +0.000 A 
ATOM     27  C   UNL     1      -2.308  15.678  23.727  0.00  0.00    +0.000 A 
ATOM     28  C   UNL     1      -1.024  15.843  23.215  0.00  0.00    +0.000 A 
ATOM     29  C   UNL     1      -0.328  14.749  22.700  0.00  0.00    +0.000 A 
ATOM     30 CL   UNL     1       1.243  15.061  22.044  0.00  0.00    +0.000 Cl
ENDBRANCH  23  24
ENDBRANCH  20  23
ENDBRANCH  16  17
ENDBRANCH  10  16
TORSDOF 5
ENDMDL
