MODEL 1
REMARK VINA RESULT:      -7.8      0.000      0.000
REMARK  Name = 
REMARK  7 active torsions:
REMARK  status: ('A' for Active; 'I' for Inactive)
REMARK    1  A    between atoms: C_1  and  C_2
REMARK    2  A    between atoms: C_2  and  C_3
REMARK    3  A    between atoms: C_3  and  C_4
REMARK    4  A    between atoms: C_4  and  C_5
REMARK    5  A    between atoms: N_16  and  S_17
REMARK    6  A    between atoms: S_17  and  C_20
REMARK    7  A    between atoms: C_23  and  C_24
REMARK                            x       y       z     vdW  Elec       q    Type
REMARK                         _______ _______ _______ _____ _____    ______ ____
ROOT
ATOM      1  C   UNL     1       4.107   6.067  18.153  0.00  0.00    +0.000 C 
ATOM      2  C   UNL     1       3.317   4.879  17.501  0.00  0.00    +0.000 C 
ATOM      3  C   UNL     1       4.243   3.826  16.809  0.00  0.00    +0.000 C 
ATOM      4  C   UNL     1       4.331   2.439  17.450  0.00  0.00    +0.000 C 
ATOM      5  C   UNL     1       2.971   1.955  17.895  0.00  0.00    +0.000 C 
ATOM      6  N   UNL     1       2.415   2.848  18.893  0.00  0.00    +0.000 NA
ATOM      7  C   UNL     1       3.060   2.778  20.196  0.00  0.00    +0.000 C 
ATOM      8  C   UNL     1       2.119   3.328  21.271  0.00  0.00    +0.000 C 
ATOM      9  C   UNL     1       1.065   4.272  20.695  0.00  0.00    +0.000 C 
ATOM     10  C   UNL     1       1.631   5.113  19.542  0.00  0.00    +0.000 C 
ATOM     11  C   UNL     1       2.643   6.113  20.080  0.00  0.00    +0.000 C 
ATOM     12  N   UNL     1       3.203   6.942  18.993  0.00  0.00    +0.000 NA
ATOM     13  C   UNL     1       2.194   4.223  18.398  0.00  0.00    +0.000 C 
ENDROOT
BRANCH  12  14
ATOM     14  S   UNL     1       2.122   8.069  18.254  0.00  0.00    +0.000 S 
ATOM     15  O   UNL     1       2.860   9.144  17.629  0.00  0.00    +0.000 OA
ATOM     16  O   UNL     1       1.144   7.331  17.476  0.00  0.00    +0.000 OA
BRANCH  14  17
ATOM     17  C   UNL     1       1.261   8.814  19.646  0.00  0.00    +0.000 A 
ATOM     18  C   UNL     1       0.330   9.833  19.417  0.00  0.00    +0.000 A 
ATOM     19  C   UNL     1      -0.342  10.423  20.498  0.00  0.00    +0.000 A 
ATOM     20  C   UNL     1      -0.088   9.999  21.812  0.00  0.00    +0.000 A 
ATOM     21  C   UNL     1      -0.823  10.613  22.971  0.00  0.00    +0.000 C 
ATOM     22  C   UNL     1       0.825   8.957  22.024  0.00  0.00    +0.000 A 
ATOM     23  C   UNL     1       1.504   8.367  20.949  0.00  0.00    +0.000 A 
ENDBRANCH  14  17
ENDBRANCH  12  14
BRANCH   1  24
ATOM     24  C   UNL     1       4.962   6.909  17.174  0.00  0.00    +0.000 C 
BRANCH  24  25
ATOM     25  C   UNL     1       6.490   6.840  17.388  0.00  0.00    +0.000 C 
BRANCH  25  27
ATOM     26  C   UNL     1       7.648   4.647  17.792  0.00  0.00    +0.000 C 
ATOM     27  C   UNL     1       6.951   5.835  18.442  0.00  0.00    +0.000 C 
ENDBRANCH  25  27
ENDBRANCH  24  25
ENDBRANCH   1  24
TORSDOF 5
ENDMDL
MODEL 2
REMARK VINA RESULT:      -7.8      2.897      6.908
REMARK  Name = 
REMARK  7 active torsions:
REMARK  status: ('A' for Active; 'I' for Inactive)
REMARK    1  A    between atoms: C_1  and  C_2
REMARK    2  A    between atoms: C_2  and  C_3
REMARK    3  A    between atoms: C_3  and  C_4
REMARK    4  A    between atoms: C_4  and  C_5
REMARK    5  A    between atoms: N_16  and  S_17
REMARK    6  A    between atoms: S_17  and  C_20
REMARK    7  A    between atoms: C_23  and  C_24
REMARK                            x       y       z     vdW  Elec       q    Type
REMARK                         _______ _______ _______ _____ _____    ______ ____
ROOT
ATOM      1  C   UNL     1       3.243   6.109  17.916  0.00  0.00    +0.000 C 
ATOM      2  C   UNL     1       3.464   5.574  19.373  0.00  0.00    +0.000 C 
ATOM      3  C   UNL     1       2.457   6.171  20.411  0.00  0.00    +0.000 C 
ATOM      4  C   UNL     1       1.422   5.218  21.013  0.00  0.00    +0.000 C 
ATOM      5  C   UNL     1       2.042   3.886  21.363  0.00  0.00    +0.000 C 
ATOM      6  N   UNL     1       2.569   3.243  20.174  0.00  0.00    +0.000 NA
ATOM      7  C   UNL     1       1.556   2.730  19.263  0.00  0.00    +0.000 C 
ATOM      8  C   UNL     1       2.168   1.657  18.358  0.00  0.00    +0.000 C 
ATOM      9  C   UNL     1       3.684   1.792  18.238  0.00  0.00    +0.000 C 
ATOM     10  C   UNL     1       4.121   3.264  18.236  0.00  0.00    +0.000 C 
ATOM     11  C   UNL     1       3.675   3.934  16.945  0.00  0.00    +0.000 C 
ATOM     12  N   UNL     1       4.085   5.353  16.912  0.00  0.00    +0.000 NA
ATOM     13  C   UNL     1       3.646   4.011  19.514  0.00  0.00    +0.000 C 
ENDROOT
BRANCH  12  14
ATOM     14  S   UNL     1       5.778   5.657  16.765  0.00  0.00    +0.000 S 
ATOM     15  O   UNL     1       6.034   7.078  16.688  0.00  0.00    +0.000 OA
ATOM     16  O   UNL     1       6.480   4.861  17.756  0.00  0.00    +0.000 OA
BRANCH  14  17
ATOM     17  C   UNL     1       6.194   4.999  15.144  0.00  0.00    +0.000 A 
ATOM     18  C   UNL     1       5.315   4.112  14.512  0.00  0.00    +0.000 A 
ATOM     19  C   UNL     1       5.635   3.590  13.250  0.00  0.00    +0.000 A 
ATOM     20  C   UNL     1       6.832   3.951  12.612  0.00  0.00    +0.000 A 
ATOM     21  C   UNL     1       7.168   3.412  11.249  0.00  0.00    +0.000 C 
ATOM     22  C   UNL     1       7.689   4.864  13.243  0.00  0.00    +0.000 A 
ATOM     23  C   UNL     1       7.378   5.384  14.507  0.00  0.00    +0.000 A 
ENDBRANCH  14  17
ENDBRANCH  12  14
BRANCH   1  24
ATOM     24  C   UNL     1       3.395   7.642  17.744  0.00  0.00    +0.000 C 
BRANCH  24  25
ATOM     25  C   UNL     1       2.083   8.423  17.511  0.00  0.00    +0.000 C 
BRANCH  25  27
ATOM     26  C   UNL     1       0.320   9.973  18.407  0.00  0.00    +0.000 C 
ATOM     27  C   UNL     1       1.733   9.439  18.597  0.00  0.00    +0.000 C 
ENDBRANCH  25  27
ENDBRANCH  24  25
ENDBRANCH   1  24
TORSDOF 5
ENDMDL
MODEL 3
REMARK VINA RESULT:      -7.6      0.504      1.196
REMARK  Name = 
REMARK  7 active torsions:
REMARK  status: ('A' for Active; 'I' for Inactive)
REMARK    1  A    between atoms: C_1  and  C_2
REMARK    2  A    between atoms: C_2  and  C_3
REMARK    3  A    between atoms: C_3  and  C_4
REMARK    4  A    between atoms: C_4  and  C_5
REMARK    5  A    between atoms: N_16  and  S_17
REMARK    6  A    between atoms: S_17  and  C_20
REMARK    7  A    between atoms: C_23  and  C_24
REMARK                            x       y       z     vdW  Elec       q    Type
REMARK                         _______ _______ _______ _____ _____    ______ ____
ROOT
ATOM      1  C   UNL     1       4.104   6.015  18.173  0.00  0.00    +0.000 C 
ATOM      2  C   UNL     1       3.305   4.842  17.505  0.00  0.00    +0.000 C 
ATOM      3  C   UNL     1       4.224   3.780  16.817  0.00  0.00    +0.000 C 
ATOM      4  C   UNL     1       4.286   2.389  17.450  0.00  0.00    +0.000 C 
ATOM      5  C   UNL     1       2.916   1.920  17.878  0.00  0.00    +0.000 C 
ATOM      6  N   UNL     1       2.361   2.815  18.875  0.00  0.00    +0.000 NA
ATOM      7  C   UNL     1       2.990   2.730  20.185  0.00  0.00    +0.000 C 
ATOM      8  C   UNL     1       2.044   3.286  21.252  0.00  0.00    +0.000 C 
ATOM      9  C   UNL     1       1.010   4.248  20.670  0.00  0.00    +0.000 C 
ATOM     10  C   UNL     1       1.600   5.088  19.528  0.00  0.00    +0.000 C 
ATOM     11  C   UNL     1       2.619   6.071  20.084  0.00  0.00    +0.000 C 
ATOM     12  N   UNL     1       3.203   6.898  19.007  0.00  0.00    +0.000 NA
ATOM     13  C   UNL     1       2.163   4.196  18.386  0.00  0.00    +0.000 C 
ENDROOT
BRANCH  12  14
ATOM     14  S   UNL     1       2.146   8.043  18.264  0.00  0.00    +0.000 S 
ATOM     15  O   UNL     1       2.904   9.114  17.655  0.00  0.00    +0.000 OA
ATOM     16  O   UNL     1       1.168   7.324  17.468  0.00  0.00    +0.000 OA
BRANCH  14  17
ATOM     17  C   UNL     1       1.277   8.790  19.650  0.00  0.00    +0.000 A 
ATOM     18  C   UNL     1       1.548   8.353  20.952  0.00  0.00    +0.000 A 
ATOM     19  C   UNL     1       0.870   8.926  22.038  0.00  0.00    +0.000 A 
ATOM     20  C   UNL     1      -0.080   9.938  21.831  0.00  0.00    +0.000 A 
ATOM     21  C   UNL     1      -0.791  10.572  22.994  0.00  0.00    +0.000 C 
ATOM     22  C   UNL     1      -0.319  10.388  20.524  0.00  0.00    +0.000 A 
ATOM     23  C   UNL     1       0.350   9.815  19.435  0.00  0.00    +0.000 A 
ENDBRANCH  14  17
ENDBRANCH  12  14
BRANCH   1  24
ATOM     24  C   UNL     1       4.982   6.851  17.207  0.00  0.00    +0.000 C 
BRANCH  24  25
ATOM     25  C   UNL     1       6.421   6.334  16.992  0.00  0.00    +0.000 C 
BRANCH  25  27
ATOM     26  C   UNL     1       7.863   8.275  17.676  0.00  0.00    +0.000 C 
ATOM     27  C   UNL     1       7.449   6.845  18.000  0.00  0.00    +0.000 C 
ENDBRANCH  25  27
ENDBRANCH  24  25
ENDBRANCH   1  24
TORSDOF 5
ENDMDL
MODEL 4
REMARK VINA RESULT:      -6.9      3.955      8.860
REMARK  Name = 
REMARK  7 active torsions:
REMARK  status: ('A' for Active; 'I' for Inactive)
REMARK    1  A    between atoms: C_1  and  C_2
REMARK    2  A    between atoms: C_2  and  C_3
REMARK    3  A    between atoms: C_3  and  C_4
REMARK    4  A    between atoms: C_4  and  C_5
REMARK    5  A    between atoms: N_16  and  S_17
REMARK    6  A    between atoms: S_17  and  C_20
REMARK    7  A    between atoms: C_23  and  C_24
REMARK                            x       y       z     vdW  Elec       q    Type
REMARK                         _______ _______ _______ _____ _____    ______ ____
ROOT
ATOM      1  C   UNL     1      -2.046  10.700  19.679  0.00  0.00    +0.000 C 
ATOM      2  C   UNL     1      -2.617  12.137  19.416  0.00  0.00    +0.000 C 
ATOM      3  C   UNL     1      -4.014  12.129  18.713  0.00  0.00    +0.000 C 
ATOM      4  C   UNL     1      -5.215  12.608  19.532  0.00  0.00    +0.000 C 
ATOM      5  C   UNL     1      -4.872  13.838  20.338  0.00  0.00    +0.000 C 
ATOM      6  N   UNL     1      -3.807  13.548  21.279  0.00  0.00    +0.000 NA
ATOM      7  C   UNL     1      -4.201  12.708  22.401  0.00  0.00    +0.000 C 
ATOM      8  C   UNL     1      -3.212  12.887  23.556  0.00  0.00    +0.000 C 
ATOM      9  C   UNL     1      -1.853  13.402  23.085  0.00  0.00    +0.000 C 
ATOM     10  C   UNL     1      -1.473  12.819  21.716  0.00  0.00    +0.000 C 
ATOM     11  C   UNL     1      -1.181  11.333  21.850  0.00  0.00    +0.000 C 
ATOM     12  N   UNL     1      -0.808  10.744  20.547  0.00  0.00    +0.000 NA
ATOM     13  C   UNL     1      -2.541  13.143  20.633  0.00  0.00    +0.000 C 
ENDROOT
BRANCH  12  14
ATOM     14  S   UNL     1       0.716  11.229  19.897  0.00  0.00    +0.000 S 
ATOM     15  O   UNL     1       0.529  12.039  18.714  0.00  0.00    +0.000 OA
ATOM     16  O   UNL     1       1.543  11.731  20.979  0.00  0.00    +0.000 OA
BRANCH  14  17
ATOM     17  C   UNL     1       1.448   9.689  19.322  0.00  0.00    +0.000 A 
ATOM     18  C   UNL     1       1.550   8.603  20.198  0.00  0.00    +0.000 A 
ATOM     19  C   UNL     1       2.124   7.401  19.759  0.00  0.00    +0.000 A 
ATOM     20  C   UNL     1       2.598   7.277  18.444  0.00  0.00    +0.000 A 
ATOM     21  C   UNL     1       3.193   5.983  17.962  0.00  0.00    +0.000 C 
ATOM     22  C   UNL     1       2.462   8.363  17.567  0.00  0.00    +0.000 A 
ATOM     23  C   UNL     1       1.895   9.569  18.002  0.00  0.00    +0.000 A 
ENDBRANCH  14  17
ENDBRANCH  12  14
BRANCH   1  24
ATOM     24  C   UNL     1      -1.821   9.836  18.413  0.00  0.00    +0.000 C 
BRANCH  24  25
ATOM     25  C   UNL     1      -2.127  10.528  17.066  0.00  0.00    +0.000 C 
BRANCH  25  27
ATOM     26  C   UNL     1      -2.948  10.280  14.704  0.00  0.00    +0.000 C 
ATOM     27  C   UNL     1      -3.036   9.739  16.125  0.00  0.00    +0.000 C 
ENDBRANCH  25  27
ENDBRANCH  24  25
ENDBRANCH   1  24
TORSDOF 5
ENDMDL
MODEL 5
REMARK VINA RESULT:      -6.8      5.259     10.100
REMARK  Name = 
REMARK  7 active torsions:
REMARK  status: ('A' for Active; 'I' for Inactive)
REMARK    1  A    between atoms: C_1  and  C_2
REMARK    2  A    between atoms: C_2  and  C_3
REMARK    3  A    between atoms: C_3  and  C_4
REMARK    4  A    between atoms: C_4  and  C_5
REMARK    5  A    between atoms: N_16  and  S_17
REMARK    6  A    between atoms: S_17  and  C_20
REMARK    7  A    between atoms: C_23  and  C_24
REMARK                            x       y       z     vdW  Elec       q    Type
REMARK                         _______ _______ _______ _____ _____    ______ ____
ROOT
ATOM      1  C   UNL     1      -3.432  12.401  20.361  0.00  0.00    +0.000 C 
ATOM      2  C   UNL     1      -4.067  13.798  20.681  0.00  0.00    +0.000 C 
ATOM      3  C   UNL     1      -5.419  14.049  19.935  0.00  0.00    +0.000 C 
ATOM      4  C   UNL     1      -6.689  14.106  20.785  0.00  0.00    +0.000 C 
ATOM      5  C   UNL     1      -6.464  14.891  22.056  0.00  0.00    +0.000 C 
ATOM      6  N   UNL     1      -5.440  14.261  22.867  0.00  0.00    +0.000 NA
ATOM      7  C   UNL     1      -5.849  13.016  23.501  0.00  0.00    +0.000 C 
ATOM      8  C   UNL     1      -4.940  12.719  24.697  0.00  0.00    +0.000 C 
ATOM      9  C   UNL     1      -3.588  13.420  24.588  0.00  0.00    +0.000 C 
ATOM     10  C   UNL     1      -3.097  13.479  23.134  0.00  0.00    +0.000 C 
ATOM     11  C   UNL     1      -2.730  12.083  22.656  0.00  0.00    +0.000 C 
ATOM     12  N   UNL     1      -2.250  12.108  21.259  0.00  0.00    +0.000 NA
ATOM     13  C   UNL     1      -4.118  14.200  22.208  0.00  0.00    +0.000 C 
ENDROOT
BRANCH  12  14
ATOM     14  S   UNL     1      -0.721  12.863  20.988  0.00  0.00    +0.000 S 
ATOM     15  O   UNL     1      -0.870  14.020  20.134  0.00  0.00    +0.000 OA
ATOM     16  O   UNL     1      -0.041  13.002  22.263  0.00  0.00    +0.000 OA
BRANCH  14  17
ATOM     17  C   UNL     1       0.189  11.654  20.015  0.00  0.00    +0.000 A 
ATOM     18  C   UNL     1       1.076  12.091  19.024  0.00  0.00    +0.000 A 
ATOM     19  C   UNL     1       1.784  11.155  18.257  0.00  0.00    +0.000 A 
ATOM     20  C   UNL     1       1.613   9.779  18.475  0.00  0.00    +0.000 A 
ATOM     21  C   UNL     1       2.388   8.772  17.671  0.00  0.00    +0.000 C 
ATOM     22  C   UNL     1       0.744   9.356  19.491  0.00  0.00    +0.000 A 
ATOM     23  C   UNL     1       0.028  10.286  20.257  0.00  0.00    +0.000 A 
ENDBRANCH  14  17
ENDBRANCH  12  14
BRANCH   1  24
ATOM     24  C   UNL     1      -3.086  12.157  18.870  0.00  0.00    +0.000 C 
BRANCH  24  25
ATOM     25  C   UNL     1      -3.891  11.041  18.169  0.00  0.00    +0.000 C 
BRANCH  25  27
ATOM     26  C   UNL     1      -1.959  10.037  16.916  0.00  0.00    +0.000 C 
ATOM     27  C   UNL     1      -3.108   9.763  17.877  0.00  0.00    +0.000 C 
ENDBRANCH  25  27
ENDBRANCH  24  25
ENDBRANCH   1  24
TORSDOF 5
ENDMDL
MODEL 6
REMARK VINA RESULT:      -6.7      5.686      9.266
REMARK  Name = 
REMARK  7 active torsions:
REMARK  status: ('A' for Active; 'I' for Inactive)
REMARK    1  A    between atoms: C_1  and  C_2
REMARK    2  A    between atoms: C_2  and  C_3
REMARK    3  A    between atoms: C_3  and  C_4
REMARK    4  A    between atoms: C_4  and  C_5
REMARK    5  A    between atoms: N_16  and  S_17
REMARK    6  A    between atoms: S_17  and  C_20
REMARK    7  A    between atoms: C_23  and  C_24
REMARK                            x       y       z     vdW  Elec       q    Type
REMARK                         _______ _______ _______ _____ _____    ______ ____
ROOT
ATOM      1  C   UNL     1      -1.525  12.171  21.849  0.00  0.00    +0.000 C 
ATOM      2  C   UNL     1      -0.290  11.304  22.276  0.00  0.00    +0.000 C 
ATOM      3  C   UNL     1      -0.688   9.963  22.977  0.00  0.00    +0.000 C 
ATOM      4  C   UNL     1      -0.400   8.664  22.221  0.00  0.00    +0.000 C 
ATOM      5  C   UNL     1       0.957   8.704  21.560  0.00  0.00    +0.000 C 
ATOM      6  N   UNL     1       1.018   9.780  20.590  0.00  0.00    +0.000 NA
ATOM      7  C   UNL     1       0.242   9.551  19.380  0.00  0.00    +0.000 C 
ATOM      8  C   UNL     1       0.765  10.443  18.251  0.00  0.00    +0.000 C 
ATOM      9  C   UNL     1       1.513  11.667  18.775  0.00  0.00    +0.000 C 
ATOM     10  C   UNL     1       0.881  12.205  20.067  0.00  0.00    +0.000 C 
ATOM     11  C   UNL     1      -0.479  12.814  19.763  0.00  0.00    +0.000 C 
ATOM     12  N   UNL     1      -1.111  13.344  20.989  0.00  0.00    +0.000 NA
ATOM     13  C   UNL     1       0.836  11.122  21.183  0.00  0.00    +0.000 C 
ENDROOT
BRANCH  12  14
ATOM     14  S   UNL     1      -0.374  14.741  21.687  0.00  0.00    +0.000 S 
ATOM     15  O   UNL     1      -1.342  15.496  22.452  0.00  0.00    +0.000 OA
ATOM     16  O   UNL     1       0.873  14.343  22.314  0.00  0.00    +0.000 OA
BRANCH  14  17
ATOM     17  C   UNL     1       0.032  15.768  20.268  0.00  0.00    +0.000 A 
ATOM     18  C   UNL     1       1.370  15.920  19.885  0.00  0.00    +0.000 A 
ATOM     19  C   UNL     1       1.695  16.724  18.783  0.00  0.00    +0.000 A 
ATOM     20  C   UNL     1       0.688  17.379  18.056  0.00  0.00    +0.000 A 
ATOM     21  C   UNL     1       1.030  18.222  16.860  0.00  0.00    +0.000 C 
ATOM     22  C   UNL     1      -0.650  17.193  18.432  0.00  0.00    +0.000 A 
ATOM     23  C   UNL     1      -0.981  16.396  19.536  0.00  0.00    +0.000 A 
ENDBRANCH  14  17
ENDBRANCH  12  14
BRANCH   1  24
ATOM     24  C   UNL     1      -2.453  12.617  23.007  0.00  0.00    +0.000 C 
BRANCH  24  25
ATOM     25  C   UNL     1      -3.939  12.817  22.637  0.00  0.00    +0.000 C 
BRANCH  25  27
ATOM     26  C   UNL     1      -4.813  12.326  24.941  0.00  0.00    +0.000 C 
ATOM     27  C   UNL     1      -4.830  13.308  23.777  0.00  0.00    +0.000 C 
ENDBRANCH  25  27
ENDBRANCH  24  25
ENDBRANCH   1  24
TORSDOF 5
ENDMDL
MODEL 7
REMARK VINA RESULT:      -6.7      6.096      9.339
REMARK  Name = 
REMARK  7 active torsions:
REMARK  status: ('A' for Active; 'I' for Inactive)
REMARK    1  A    between atoms: C_1  and  C_2
REMARK    2  A    between atoms: C_2  and  C_3
REMARK    3  A    between atoms: C_3  and  C_4
REMARK    4  A    between atoms: C_4  and  C_5
REMARK    5  A    between atoms: N_16  and  S_17
REMARK    6  A    between atoms: S_17  and  C_20
REMARK    7  A    between atoms: C_23  and  C_24
REMARK                            x       y       z     vdW  Elec       q    Type
REMARK                         _______ _______ _______ _____ _____    ______ ____
ROOT
ATOM      1  C   UNL     1      -1.747  12.510  20.380  0.00  0.00    +0.000 C 
ATOM      2  C   UNL     1      -0.747  11.303  20.324  0.00  0.00    +0.000 C 
ATOM      3  C   UNL     1      -1.072  10.283  19.184  0.00  0.00    +0.000 C 
ATOM      4  C   UNL     1      -0.084  10.195  18.019  0.00  0.00    +0.000 C 
ATOM      5  C   UNL     1       1.345  10.230  18.508  0.00  0.00    +0.000 C 
ATOM      6  N   UNL     1       1.615  11.476  19.199  0.00  0.00    +0.000 NA
ATOM      7  C   UNL     1       1.699  12.643  18.334  0.00  0.00    +0.000 C 
ATOM      8  C   UNL     1       2.474  13.759  19.040  0.00  0.00    +0.000 C 
ATOM      9  C   UNL     1       2.460  13.605  20.560  0.00  0.00    +0.000 C 
ATOM     10  C   UNL     1       1.120  13.046  21.058  0.00  0.00    +0.000 C 
ATOM     11  C   UNL     1       0.025  14.085  20.869  0.00  0.00    +0.000 C 
ATOM     12  N   UNL     1      -1.279  13.577  21.344  0.00  0.00    +0.000 NA
ATOM     13  C   UNL     1       0.786  11.674  20.407  0.00  0.00    +0.000 C 
ENDROOT
BRANCH  12  14
ATOM     14  S   UNL     1      -1.443  13.365  23.050  0.00  0.00    +0.000 S 
ATOM     15  O   UNL     1      -1.178  11.992  23.419  0.00  0.00    +0.000 OA
ATOM     16  O   UNL     1      -0.723  14.433  23.721  0.00  0.00    +0.000 OA
BRANCH  14  17
ATOM     17  C   UNL     1      -3.198  13.620  23.348  0.00  0.00    +0.000 A 
ATOM     18  C   UNL     1      -3.806  14.808  22.926  0.00  0.00    +0.000 A 
ATOM     19  C   UNL     1      -5.172  15.017  23.161  0.00  0.00    +0.000 A 
ATOM     20  C   UNL     1      -5.940  14.041  23.815  0.00  0.00    +0.000 A 
ATOM     21  C   UNL     1      -7.411  14.250  24.047  0.00  0.00    +0.000 C 
ATOM     22  C   UNL     1      -5.326  12.842  24.205  0.00  0.00    +0.000 A 
ATOM     23  C   UNL     1      -3.959  12.631  23.980  0.00  0.00    +0.000 A 
ENDBRANCH  14  17
ENDBRANCH  12  14
BRANCH   1  24
ATOM     24  C   UNL     1      -3.229  12.131  20.629  0.00  0.00    +0.000 C 
BRANCH  24  25
ATOM     25  C   UNL     1      -4.226  12.563  19.531  0.00  0.00    +0.000 C 
BRANCH  25  27
ATOM     26  C   UNL     1      -6.345  11.971  20.744  0.00  0.00    +0.000 C 
ATOM     27  C   UNL     1      -5.569  13.079  20.044  0.00  0.00    +0.000 C 
ENDBRANCH  25  27
ENDBRANCH  24  25
ENDBRANCH   1  24
TORSDOF 5
ENDMDL
MODEL 8
REMARK VINA RESULT:      -6.6      5.210     10.343
REMARK  Name = 
REMARK  7 active torsions:
REMARK  status: ('A' for Active; 'I' for Inactive)
REMARK    1  A    between atoms: C_1  and  C_2
REMARK    2  A    between atoms: C_2  and  C_3
REMARK    3  A    between atoms: C_3  and  C_4
REMARK    4  A    between atoms: C_4  and  C_5
REMARK    5  A    between atoms: N_16  and  S_17
REMARK    6  A    between atoms: S_17  and  C_20
REMARK    7  A    between atoms: C_23  and  C_24
REMARK                            x       y       z     vdW  Elec       q    Type
REMARK                         _______ _______ _______ _____ _____    ______ ____
ROOT
ATOM      1  C   UNL     1      -1.239  13.046  22.566  0.00  0.00    +0.000 C 
ATOM      2  C   UNL     1      -2.423  14.020  22.894  0.00  0.00    +0.000 C 
ATOM      3  C   UNL     1      -3.184  13.650  24.210  0.00  0.00    +0.000 C 
ATOM      4  C   UNL     1      -3.045  14.608  25.394  0.00  0.00    +0.000 C 
ATOM      5  C   UNL     1      -3.132  16.048  24.947  0.00  0.00    +0.000 C 
ATOM      6  N   UNL     1      -2.057  16.358  24.024  0.00  0.00    +0.000 NA
ATOM      7  C   UNL     1      -0.739  16.445  24.634  0.00  0.00    +0.000 C 
ATOM      8  C   UNL     1       0.197  17.258  23.736  0.00  0.00    +0.000 C 
ATOM      9  C   UNL     1      -0.264  17.277  22.280  0.00  0.00    +0.000 C 
ATOM     10  C   UNL     1      -0.894  15.938  21.870  0.00  0.00    +0.000 C 
ATOM     11  C   UNL     1       0.177  14.859  21.813  0.00  0.00    +0.000 C 
ATOM     12  N   UNL     1      -0.399  13.557  21.417  0.00  0.00    +0.000 NA
ATOM     13  C   UNL     1      -2.099  15.563  22.779  0.00  0.00    +0.000 C 
ENDROOT
BRANCH  12  14
ATOM     14  S   UNL     1      -0.953  13.430  19.786  0.00  0.00    +0.000 S 
ATOM     15  O   UNL     1      -2.364  13.112  19.752  0.00  0.00    +0.000 OA
ATOM     16  O   UNL     1      -0.464  14.575  19.040  0.00  0.00    +0.000 OA
BRANCH  14  17
ATOM     17  C   UNL     1      -0.111  11.970  19.159  0.00  0.00    +0.000 A 
ATOM     18  C   UNL     1       1.288  11.916  19.180  0.00  0.00    +0.000 A 
ATOM     19  C   UNL     1       1.952  10.784  18.688  0.00  0.00    +0.000 A 
ATOM     20  C   UNL     1       1.225   9.699  18.172  0.00  0.00    +0.000 A 
ATOM     21  C   UNL     1       1.932   8.473  17.665  0.00  0.00    +0.000 C 
ATOM     22  C   UNL     1      -0.176   9.753  18.185  0.00  0.00    +0.000 A 
ATOM     23  C   UNL     1      -0.846  10.885  18.670  0.00  0.00    +0.000 A 
ENDBRANCH  14  17
ENDBRANCH  12  14
BRANCH   1  24
ATOM     24  C   UNL     1      -1.641  11.563  22.360  0.00  0.00    +0.000 C 
BRANCH  24  25
ATOM     25  C   UNL     1      -0.765  10.523  23.092  0.00  0.00    +0.000 C 
BRANCH  25  27
ATOM     26  C   UNL     1      -0.234   8.545  21.637  0.00  0.00    +0.000 C 
ATOM     27  C   UNL     1       0.296   9.845  22.226  0.00  0.00    +0.000 C 
ENDBRANCH  25  27
ENDBRANCH  24  25
ENDBRANCH   1  24
TORSDOF 5
ENDMDL
MODEL 9
REMARK VINA RESULT:      -6.6      6.154      9.479
REMARK  Name = 
REMARK  7 active torsions:
REMARK  status: ('A' for Active; 'I' for Inactive)
REMARK    1  A    between atoms: C_1  and  C_2
REMARK    2  A    between atoms: C_2  and  C_3
REMARK    3  A    between atoms: C_3  and  C_4
REMARK    4  A    between atoms: C_4  and  C_5
REMARK    5  A    between atoms: N_16  and  S_17
REMARK    6  A    between atoms: S_17  and  C_20
REMARK    7  A    between atoms: C_23  and  C_24
REMARK                            x       y       z     vdW  Elec       q    Type
REMARK                         _______ _______ _______ _____ _____    ______ ____
ROOT
ATOM      1  C   UNL     1      -1.766  12.486  20.414  0.00  0.00    +0.000 C 
ATOM      2  C   UNL     1      -0.711  11.328  20.356  0.00  0.00    +0.000 C 
ATOM      3  C   UNL     1      -1.001  10.281  19.231  0.00  0.00    +0.000 C 
ATOM      4  C   UNL     1      -0.026  10.228  18.053  0.00  0.00    +0.000 C 
ATOM      5  C   UNL     1       1.406  10.337  18.522  0.00  0.00    +0.000 C 
ATOM      6  N   UNL     1       1.625  11.601  19.197  0.00  0.00    +0.000 NA
ATOM      7  C   UNL     1       1.642  12.762  18.319  0.00  0.00    +0.000 C 
ATOM      8  C   UNL     1       2.372  13.921  19.004  0.00  0.00    +0.000 C 
ATOM      9  C   UNL     1       2.386  13.782  20.525  0.00  0.00    +0.000 C 
ATOM     10  C   UNL     1       1.081  13.165  21.047  0.00  0.00    +0.000 C 
ATOM     11  C   UNL     1      -0.065  14.148  20.864  0.00  0.00    +0.000 C 
ATOM     12  N   UNL     1      -1.337  13.584  21.362  0.00  0.00    +0.000 NA
ATOM     13  C   UNL     1       0.805  11.772  20.414  0.00  0.00    +0.000 C 
ENDROOT
BRANCH  12  14
ATOM     14  S   UNL     1      -1.467  13.382  23.072  0.00  0.00    +0.000 S 
ATOM     15  O   UNL     1      -1.152  12.022  23.448  0.00  0.00    +0.000 OA
ATOM     16  O   UNL     1      -0.772  14.479  23.722  0.00  0.00    +0.000 OA
BRANCH  14  17
ATOM     17  C   UNL     1      -3.224  13.583  23.396  0.00  0.00    +0.000 A 
ATOM     18  C   UNL     1      -3.934  12.551  24.022  0.00  0.00    +0.000 A 
ATOM     19  C   UNL     1      -5.306  12.697  24.273  0.00  0.00    +0.000 A 
ATOM     20  C   UNL     1      -5.977  13.874  23.902  0.00  0.00    +0.000 A 
ATOM     21  C   UNL     1      -7.442  14.044  24.190  0.00  0.00    +0.000 C 
ATOM     22  C   UNL     1      -5.247  14.911  23.304  0.00  0.00    +0.000 A 
ATOM     23  C   UNL     1      -3.877  14.768  23.044  0.00  0.00    +0.000 A 
ENDBRANCH  14  17
ENDBRANCH  12  14
BRANCH   1  24
ATOM     24  C   UNL     1      -3.225  12.039  20.688  0.00  0.00    +0.000 C 
BRANCH  24  25
ATOM     25  C   UNL     1      -4.301  12.666  19.776  0.00  0.00    +0.000 C 
BRANCH  25  27
ATOM     26  C   UNL     1      -6.480  13.894  20.014  0.00  0.00    +0.000 C 
ATOM     27  C   UNL     1      -5.727  12.607  20.321  0.00  0.00    +0.000 C 
ENDBRANCH  25  27
ENDBRANCH  24  25
ENDBRANCH   1  24
TORSDOF 5
ENDMDL
