MODEL 1
REMARK VINA RESULT:      -7.0      0.000      0.000
REMARK  Name = 
REMARK  8 active torsions:
REMARK  status: ('A' for Active; 'I' for Inactive)
REMARK    1  A    between atoms: C_1  and  C_2
REMARK    2  A    between atoms: C_2  and  O_3
REMARK    3  A    between atoms: C_2  and  C_4
REMARK    4  A    between atoms: C_8  and  C_9
REMARK    5  A    between atoms: C_9  and  O_11
REMARK    6  A    between atoms: C_12  and  C_13
REMARK    7  A    between atoms: C_17  and  C_19
REMARK    8  A    between atoms: C_19  and  C_20
REMARK                            x       y       z     vdW  Elec       q    Type
REMARK                         _______ _______ _______ _____ _____    ______ ____
ROOT
ATOM      1  C   UNL     1       2.683   6.663  19.854  0.00  0.00    +0.000 C 
ATOM      2  C   UNL     1       2.473   5.157  20.073  0.00  0.00    +0.000 C 
ATOM      3  O   UNL     1       2.440   4.380  20.997  0.00  0.00    +0.000 OA
ATOM      4  N   UNL     1       2.628   4.874  18.743  0.00  0.00    +0.000 N 
ATOM      5  C   UNL     1       3.754   4.185  18.316  0.00  0.00    +0.000 C 
ATOM      6  C   UNL     1       4.626   4.981  17.659  0.00  0.00    +0.000 C 
ATOM      7  C   UNL     1       4.097   6.389  17.603  0.00  0.00    +0.000 C 
ATOM      8  C   UNL     1       2.772   6.298  18.343  0.00  0.00    +0.000 C 
ENDROOT
BRANCH   6   9
ATOM      9  C   UNL     1       5.987   4.645  17.070  0.00  0.00    +0.000 C 
ATOM     10  C   UNL     1       6.696   5.824  16.383  0.00  0.00    +0.000 C 
ATOM     11  C   UNL     1       6.188   5.806  14.939  0.00  0.00    +0.000 C 
ATOM     12  N   UNL     1       5.795   4.418  14.696  0.00  0.00    +0.000 N 
ATOM     13  C   UNL     1       5.898   3.876  13.435  0.00  0.00    +0.000 C 
ATOM     14  N   UNL     1       6.919   3.171  13.063  0.00  0.00    +0.000 NA
ATOM     15  C   UNL     1       5.946   3.618  15.921  0.00  0.00    +0.000 C 
ATOM     16  H   UNL     1       7.591   3.148  13.837  0.00  0.00    +0.000 HD
BRANCH  13  17
ATOM     17  C   UNL     1       4.726   4.070  12.489  0.00  0.00    +0.000 C 
BRANCH  17  18
ATOM     18  C   UNL     1       4.436   3.033  11.430  0.00  0.00    +0.000 C 
ATOM     19  N   UNL     1       3.454   3.293  10.528  0.00  0.00    +0.000 N 
ATOM     20  O   UNL     1       5.046   1.965  11.386  0.00  0.00    +0.000 OA
ATOM     21  H   UNL     1       3.215   4.274  10.376  0.00  0.00    +0.000 HD
ATOM     22  H   UNL     1       3.376   2.661   9.743  0.00  0.00    +0.000 HD
ENDBRANCH  17  18
ENDBRANCH  13  17
ENDBRANCH   6   9
BRANCH   1  24
ATOM     23  C   UNL     1       1.459   8.748  19.273  0.00  0.00    +0.000 C 
ATOM     24  C   UNL     1       1.545   7.581  20.249  0.00  0.00    +0.000 C 
BRANCH  24  25
ATOM     25  O   UNL     1       1.769   8.094  21.557  0.00  0.00    +0.000 OA
ATOM     26  H   UNL     1       0.974   8.562  21.866  0.00  0.00    +0.000 HD
ENDBRANCH  24  25
ENDBRANCH   1  24
BRANCH   5  27
ATOM     27  C   UNL     1       3.913   2.722  18.583  0.00  0.00    +0.000 C 
ATOM     28  O   UNL     1       3.327   1.864  17.939  0.00  0.00    +0.000 OA
BRANCH  27  29
ATOM     29  O   UNL     1       4.730   2.416  19.614  0.00  0.00    +0.000 OA
ATOM     30  H   UNL     1       4.287   2.069  20.422  0.00  0.00    +0.000 HD
ENDBRANCH  27  29
ENDBRANCH   5  27
TORSDOF 7
ENDMDL
MODEL 2
REMARK VINA RESULT:      -6.8      4.196      5.759
REMARK  Name = 
REMARK  8 active torsions:
REMARK  status: ('A' for Active; 'I' for Inactive)
REMARK    1  A    between atoms: C_1  and  C_2
REMARK    2  A    between atoms: C_2  and  O_3
REMARK    3  A    between atoms: C_2  and  C_4
REMARK    4  A    between atoms: C_8  and  C_9
REMARK    5  A    between atoms: C_9  and  O_11
REMARK    6  A    between atoms: C_12  and  C_13
REMARK    7  A    between atoms: C_17  and  C_19
REMARK    8  A    between atoms: C_19  and  C_20
REMARK                            x       y       z     vdW  Elec       q    Type
REMARK                         _______ _______ _______ _____ _____    ______ ____
ROOT
ATOM      1  C   UNL     1      -0.070   8.744  21.714  0.00  0.00    +0.000 C 
ATOM      2  C   UNL     1       0.153   9.630  20.479  0.00  0.00    +0.000 C 
ATOM      3  O   UNL     1      -0.503  10.326  19.742  0.00  0.00    +0.000 OA
ATOM      4  N   UNL     1       1.408   9.127  20.262  0.00  0.00    +0.000 N 
ATOM      5  C   UNL     1       1.642   8.324  19.155  0.00  0.00    +0.000 C 
ATOM      6  C   UNL     1       1.803   7.024  19.487  0.00  0.00    +0.000 C 
ATOM      7  C   UNL     1       1.667   6.852  20.976  0.00  0.00    +0.000 C 
ATOM      8  C   UNL     1       1.391   8.263  21.471  0.00  0.00    +0.000 C 
ENDROOT
BRANCH   6   9
ATOM      9  C   UNL     1       2.033   5.818  18.588  0.00  0.00    +0.000 C 
ATOM     10  C   UNL     1       2.242   4.493  19.339  0.00  0.00    +0.000 C 
ATOM     11  C   UNL     1       3.745   4.431  19.623  0.00  0.00    +0.000 C 
ATOM     12  N   UNL     1       4.358   5.258  18.585  0.00  0.00    +0.000 N 
ATOM     13  C   UNL     1       5.619   4.965  18.115  0.00  0.00    +0.000 C 
ATOM     14  N   UNL     1       5.815   4.274  17.036  0.00  0.00    +0.000 NA
ATOM     15  C   UNL     1       3.324   5.888  17.750  0.00  0.00    +0.000 C 
ATOM     16  H   UNL     1       4.901   3.986  16.671  0.00  0.00    +0.000 HD
BRANCH  13  17
ATOM     17  C   UNL     1       6.802   5.543  18.870  0.00  0.00    +0.000 C 
BRANCH  17  18
ATOM     18  C   UNL     1       7.600   6.673  18.264  0.00  0.00    +0.000 C 
ATOM     19  N   UNL     1       7.336   7.032  16.981  0.00  0.00    +0.000 N 
ATOM     20  O   UNL     1       8.488   7.248  18.893  0.00  0.00    +0.000 OA
ATOM     21  H   UNL     1       6.412   6.792  16.616  0.00  0.00    +0.000 HD
ATOM     22  H   UNL     1       7.770   7.880  16.644  0.00  0.00    +0.000 HD
ENDBRANCH  17  18
ENDBRANCH  13  17
ENDBRANCH   6   9
BRANCH   1  24
ATOM     23  C   UNL     1      -0.971  10.804  22.774  0.00  0.00    +0.000 C 
ATOM     24  C   UNL     1      -0.326   9.448  23.030  0.00  0.00    +0.000 C 
BRANCH  24  25
ATOM     25  O   UNL     1       0.902   9.648  23.719  0.00  0.00    +0.000 OA
ATOM     26  H   UNL     1       1.474  10.243  23.204  0.00  0.00    +0.000 HD
ENDBRANCH  24  25
ENDBRANCH   1  24
BRANCH   5  27
ATOM     27  C   UNL     1       1.703   8.904  17.778  0.00  0.00    +0.000 C 
ATOM     28  O   UNL     1       2.749   9.026  17.157  0.00  0.00    +0.000 OA
BRANCH  27  29
ATOM     29  O   UNL     1       0.518   9.317  17.279  0.00  0.00    +0.000 OA
ATOM     30  H   UNL     1       0.531  10.179  16.804  0.00  0.00    +0.000 HD
ENDBRANCH  27  29
ENDBRANCH   5  27
TORSDOF 7
ENDMDL
MODEL 3
REMARK VINA RESULT:      -6.8      2.828      7.043
REMARK  Name = 
REMARK  8 active torsions:
REMARK  status: ('A' for Active; 'I' for Inactive)
REMARK    1  A    between atoms: C_1  and  C_2
REMARK    2  A    between atoms: C_2  and  O_3
REMARK    3  A    between atoms: C_2  and  C_4
REMARK    4  A    between atoms: C_8  and  C_9
REMARK    5  A    between atoms: C_9  and  O_11
REMARK    6  A    between atoms: C_12  and  C_13
REMARK    7  A    between atoms: C_17  and  C_19
REMARK    8  A    between atoms: C_19  and  C_20
REMARK                            x       y       z     vdW  Elec       q    Type
REMARK                         _______ _______ _______ _____ _____    ______ ____
ROOT
ATOM      1  C   UNL     1       6.797   4.552  15.004  0.00  0.00    +0.000 C 
ATOM      2  C   UNL     1       6.984   5.500  16.198  0.00  0.00    +0.000 C 
ATOM      3  O   UNL     1       7.894   6.012  16.805  0.00  0.00    +0.000 OA
ATOM      4  N   UNL     1       5.682   5.362  16.597  0.00  0.00    +0.000 N 
ATOM      5  C   UNL     1       5.393   4.685  17.773  0.00  0.00    +0.000 C 
ATOM      6  C   UNL     1       4.850   3.468  17.545  0.00  0.00    +0.000 C 
ATOM      7  C   UNL     1       4.735   3.224  16.064  0.00  0.00    +0.000 C 
ATOM      8  C   UNL     1       5.307   4.492  15.452  0.00  0.00    +0.000 C 
ENDROOT
BRANCH   6   9
ATOM      9  C   UNL     1       4.431   2.396  18.539  0.00  0.00    +0.000 C 
ATOM     10  C   UNL     1       3.166   1.616  18.143  0.00  0.00    +0.000 C 
ATOM     11  C   UNL     1       2.003   2.437  18.705  0.00  0.00    +0.000 C 
ATOM     12  N   UNL     1       2.575   3.183  19.826  0.00  0.00    +0.000 N 
ATOM     13  C   UNL     1       1.799   3.503  20.917  0.00  0.00    +0.000 C 
ATOM     14  N   UNL     1       1.787   2.786  21.996  0.00  0.00    +0.000 NA
ATOM     15  C   UNL     1       4.021   2.937  19.923  0.00  0.00    +0.000 C 
ATOM     16  H   UNL     1       2.397   1.976  21.848  0.00  0.00    +0.000 HD
BRANCH  13  17
ATOM     17  C   UNL     1       0.991   4.787  20.852  0.00  0.00    +0.000 C 
BRANCH  17  18
ATOM     18  C   UNL     1       1.619   6.042  20.295  0.00  0.00    +0.000 C 
ATOM     19  N   UNL     1       1.842   7.080  21.143  0.00  0.00    +0.000 N 
ATOM     20  O   UNL     1       1.905   6.149  19.103  0.00  0.00    +0.000 OA
ATOM     21  H   UNL     1       1.918   6.856  22.137  0.00  0.00    +0.000 HD
ATOM     22  H   UNL     1       2.396   7.849  20.789  0.00  0.00    +0.000 HD
ENDBRANCH  17  18
ENDBRANCH  13  17
ENDBRANCH   6   9
BRANCH   1  24
ATOM     23  C   UNL     1       6.950   4.020  12.580  0.00  0.00    +0.000 C 
ATOM     24  C   UNL     1       7.052   5.123  13.624  0.00  0.00    +0.000 C 
BRANCH  24  25
ATOM     25  O   UNL     1       8.357   5.687  13.569  0.00  0.00    +0.000 OA
ATOM     26  H   UNL     1       8.653   5.739  12.643  0.00  0.00    +0.000 HD
ENDBRANCH  24  25
ENDBRANCH   1  24
BRANCH   5  27
ATOM     27  C   UNL     1       5.674   5.298  19.108  0.00  0.00    +0.000 C 
ATOM     28  O   UNL     1       6.723   5.121  19.709  0.00  0.00    +0.000 OA
BRANCH  27  29
ATOM     29  O   UNL     1       4.667   6.037  19.619  0.00  0.00    +0.000 OA
ATOM     30  H   UNL     1       4.197   5.645  20.391  0.00  0.00    +0.000 HD
ENDBRANCH  27  29
ENDBRANCH   5  27
TORSDOF 7
ENDMDL
MODEL 4
REMARK VINA RESULT:      -6.7      2.717      7.596
REMARK  Name = 
REMARK  8 active torsions:
REMARK  status: ('A' for Active; 'I' for Inactive)
REMARK    1  A    between atoms: C_1  and  C_2
REMARK    2  A    between atoms: C_2  and  O_3
REMARK    3  A    between atoms: C_2  and  C_4
REMARK    4  A    between atoms: C_8  and  C_9
REMARK    5  A    between atoms: C_9  and  O_11
REMARK    6  A    between atoms: C_12  and  C_13
REMARK    7  A    between atoms: C_17  and  C_19
REMARK    8  A    between atoms: C_19  and  C_20
REMARK                            x       y       z     vdW  Elec       q    Type
REMARK                         _______ _______ _______ _____ _____    ______ ____
ROOT
ATOM      1  C   UNL     1       6.080   3.666  13.748  0.00  0.00    +0.000 C 
ATOM      2  C   UNL     1       7.024   4.764  14.260  0.00  0.00    +0.000 C 
ATOM      3  O   UNL     1       8.211   4.928  14.417  0.00  0.00    +0.000 OA
ATOM      4  N   UNL     1       5.998   5.484  14.809  0.00  0.00    +0.000 N 
ATOM      5  C   UNL     1       5.889   5.579  16.189  0.00  0.00    +0.000 C 
ATOM      6  C   UNL     1       4.869   4.840  16.677  0.00  0.00    +0.000 C 
ATOM      7  C   UNL     1       4.164   4.128  15.553  0.00  0.00    +0.000 C 
ATOM      8  C   UNL     1       4.942   4.561  14.320  0.00  0.00    +0.000 C 
ENDROOT
BRANCH   6   9
ATOM      9  C   UNL     1       4.430   4.629  18.118  0.00  0.00    +0.000 C 
ATOM     10  C   UNL     1       3.050   3.970  18.277  0.00  0.00    +0.000 C 
ATOM     11  C   UNL     1       2.053   5.131  18.258  0.00  0.00    +0.000 C 
ATOM     12  N   UNL     1       2.818   6.292  18.713  0.00  0.00    +0.000 N 
ATOM     13  C   UNL     1       2.199   7.304  19.412  0.00  0.00    +0.000 C 
ATOM     14  N   UNL     1       2.213   7.363  20.707  0.00  0.00    +0.000 NA
ATOM     15  C   UNL     1       4.228   5.931  18.918  0.00  0.00    +0.000 C 
ATOM     16  H   UNL     1       2.707   6.537  21.059  0.00  0.00    +0.000 HD
BRANCH  13  17
ATOM     17  C   UNL     1       1.543   8.413  18.610  0.00  0.00    +0.000 C 
BRANCH  17  18
ATOM     18  C   UNL     1       1.065   9.664  19.309  0.00  0.00    +0.000 C 
ATOM     19  N   UNL     1       0.226   9.528  20.369  0.00  0.00    +0.000 N 
ATOM     20  O   UNL     1       1.396  10.786  18.926  0.00  0.00    +0.000 OA
ATOM     21  H   UNL     1       0.243   8.631  20.858  0.00  0.00    +0.000 HD
ATOM     22  H   UNL     1       0.038  10.359  20.913  0.00  0.00    +0.000 HD
ENDBRANCH  17  18
ENDBRANCH  13  17
ENDBRANCH   6   9
BRANCH   1  24
ATOM     23  C   UNL     1       4.610   3.243  11.788  0.00  0.00    +0.000 C 
ATOM     24  C   UNL     1       6.049   3.426  12.252  0.00  0.00    +0.000 C 
BRANCH  24  25
ATOM     25  O   UNL     1       6.785   2.251  11.936  0.00  0.00    +0.000 OA
ATOM     26  H   UNL     1       6.248   1.465  12.133  0.00  0.00    +0.000 HD
ENDBRANCH  24  25
ENDBRANCH   1  24
BRANCH   5  27
ATOM     27  C   UNL     1       6.829   6.430  16.982  0.00  0.00    +0.000 C 
ATOM     28  O   UNL     1       6.726   7.647  17.046  0.00  0.00    +0.000 OA
BRANCH  27  29
ATOM     29  O   UNL     1       7.824   5.759  17.599  0.00  0.00    +0.000 OA
ATOM     30  H   UNL     1       7.964   5.979  18.549  0.00  0.00    +0.000 HD
ENDBRANCH  27  29
ENDBRANCH   5  27
TORSDOF 7
ENDMDL
MODEL 5
REMARK VINA RESULT:      -6.6      2.526      7.234
REMARK  Name = 
REMARK  8 active torsions:
REMARK  status: ('A' for Active; 'I' for Inactive)
REMARK    1  A    between atoms: C_1  and  C_2
REMARK    2  A    between atoms: C_2  and  O_3
REMARK    3  A    between atoms: C_2  and  C_4
REMARK    4  A    between atoms: C_8  and  C_9
REMARK    5  A    between atoms: C_9  and  O_11
REMARK    6  A    between atoms: C_12  and  C_13
REMARK    7  A    between atoms: C_17  and  C_19
REMARK    8  A    between atoms: C_19  and  C_20
REMARK                            x       y       z     vdW  Elec       q    Type
REMARK                         _______ _______ _______ _____ _____    ______ ____
ROOT
ATOM      1  C   UNL     1       5.968   3.807  14.136  0.00  0.00    +0.000 C 
ATOM      2  C   UNL     1       6.884   4.641  15.044  0.00  0.00    +0.000 C 
ATOM      3  O   UNL     1       8.068   4.817  15.208  0.00  0.00    +0.000 OA
ATOM      4  N   UNL     1       5.863   4.957  15.898  0.00  0.00    +0.000 N 
ATOM      5  C   UNL     1       5.851   4.425  17.179  0.00  0.00    +0.000 C 
ATOM      6  C   UNL     1       4.912   3.464  17.329  0.00  0.00    +0.000 C 
ATOM      7  C   UNL     1       4.168   3.265  16.035  0.00  0.00    +0.000 C 
ATOM      8  C   UNL     1       4.826   4.260  15.093  0.00  0.00    +0.000 C 
ENDROOT
BRANCH   6   9
ATOM      9  C   UNL     1       4.595   2.603  18.542  0.00  0.00    +0.000 C 
ATOM     10  C   UNL     1       3.330   1.741  18.401  0.00  0.00    +0.000 C 
ATOM     11  C   UNL     1       2.183   2.638  18.873  0.00  0.00    +0.000 C 
ATOM     12  N   UNL     1       2.808   3.600  19.780  0.00  0.00    +0.000 N 
ATOM     13  C   UNL     1       2.099   4.119  20.841  0.00  0.00    +0.000 C 
ATOM     14  N   UNL     1       2.182   3.630  22.038  0.00  0.00    +0.000 NA
ATOM     15  C   UNL     1       4.264   3.402  19.818  0.00  0.00    +0.000 C 
ATOM     16  H   UNL     1       2.805   2.816  22.008  0.00  0.00    +0.000 HD
BRANCH  13  17
ATOM     17  C   UNL     1       1.250   5.351  20.583  0.00  0.00    +0.000 C 
BRANCH  17  18
ATOM     18  C   UNL     1       1.916   6.682  20.330  0.00  0.00    +0.000 C 
ATOM     19  N   UNL     1       1.715   7.683  21.225  0.00  0.00    +0.000 N 
ATOM     20  O   UNL     1       2.606   6.881  19.330  0.00  0.00    +0.000 OA
ATOM     21  H   UNL     1       1.443   7.408  22.171  0.00  0.00    +0.000 HD
ATOM     22  H   UNL     1       2.283   8.512  21.120  0.00  0.00    +0.000 HD
ENDBRANCH  17  18
ENDBRANCH  13  17
ENDBRANCH   6   9
BRANCH   1  24
ATOM     23  C   UNL     1       4.969   3.264  11.925  0.00  0.00    +0.000 C 
ATOM     24  C   UNL     1       5.839   4.250  12.693  0.00  0.00    +0.000 C 
BRANCH  24  25
ATOM     25  O   UNL     1       7.124   4.298  12.086  0.00  0.00    +0.000 OA
ATOM     26  H   UNL     1       7.788   4.568  12.743  0.00  0.00    +0.000 HD
ENDBRANCH  24  25
ENDBRANCH   1  24
BRANCH   5  27
ATOM     27  C   UNL     1       6.798   4.913  18.228  0.00  0.00    +0.000 C 
ATOM     28  O   UNL     1       6.545   5.859  18.960  0.00  0.00    +0.000 OA
BRANCH  27  29
ATOM     29  O   UNL     1       7.974   4.252  18.288  0.00  0.00    +0.000 OA
ATOM     30  H   UNL     1       7.980   3.439  18.844  0.00  0.00    +0.000 HD
ENDBRANCH  27  29
ENDBRANCH   5  27
TORSDOF 7
ENDMDL
MODEL 6
REMARK VINA RESULT:      -6.5      2.830      6.910
REMARK  Name = 
REMARK  8 active torsions:
REMARK  status: ('A' for Active; 'I' for Inactive)
REMARK    1  A    between atoms: C_1  and  C_2
REMARK    2  A    between atoms: C_2  and  O_3
REMARK    3  A    between atoms: C_2  and  C_4
REMARK    4  A    between atoms: C_8  and  C_9
REMARK    5  A    between atoms: C_9  and  O_11
REMARK    6  A    between atoms: C_12  and  C_13
REMARK    7  A    between atoms: C_17  and  C_19
REMARK    8  A    between atoms: C_19  and  C_20
REMARK                            x       y       z     vdW  Elec       q    Type
REMARK                         _______ _______ _______ _____ _____    ______ ____
ROOT
ATOM      1  C   UNL     1       6.306   3.735  14.296  0.00  0.00    +0.000 C 
ATOM      2  C   UNL     1       7.003   5.092  14.477  0.00  0.00    +0.000 C 
ATOM      3  O   UNL     1       8.094   5.575  14.286  0.00  0.00    +0.000 OA
ATOM      4  N   UNL     1       5.996   5.579  15.266  0.00  0.00    +0.000 N 
ATOM      5  C   UNL     1       6.229   5.801  16.615  0.00  0.00    +0.000 C 
ATOM      6  C   UNL     1       5.622   4.884  17.400  0.00  0.00    +0.000 C 
ATOM      7  C   UNL     1       4.878   3.889  16.549  0.00  0.00    +0.000 C 
ATOM      8  C   UNL     1       5.153   4.363  15.131  0.00  0.00    +0.000 C 
ENDROOT
BRANCH   6   9
ATOM      9  C   UNL     1       5.653   4.734  18.913  0.00  0.00    +0.000 C 
ATOM     10  C   UNL     1       5.631   3.279  19.412  0.00  0.00    +0.000 C 
ATOM     11  C   UNL     1       4.147   2.918  19.516  0.00  0.00    +0.000 C 
ATOM     12  N   UNL     1       3.461   4.195  19.706  0.00  0.00    +0.000 N 
ATOM     13  C   UNL     1       2.298   4.259  20.440  0.00  0.00    +0.000 C 
ATOM     14  N   UNL     1       2.284   4.587  21.693  0.00  0.00    +0.000 NA
ATOM     15  C   UNL     1       4.418   5.310  19.634  0.00  0.00    +0.000 C 
ATOM     16  H   UNL     1       3.253   4.734  21.996  0.00  0.00    +0.000 HD
BRANCH  13  17
ATOM     17  C   UNL     1       0.992   3.995  19.712  0.00  0.00    +0.000 C 
BRANCH  17  18
ATOM     18  C   UNL     1       0.996   3.206  18.424  0.00  0.00    +0.000 C 
ATOM     19  N   UNL     1       0.885   1.854  18.497  0.00  0.00    +0.000 N 
ATOM     20  O   UNL     1       1.122   3.755  17.329  0.00  0.00    +0.000 OA
ATOM     21  H   UNL     1       0.454   1.472  19.342  0.00  0.00    +0.000 HD
ATOM     22  H   UNL     1       0.739   1.359  17.628  0.00  0.00    +0.000 HD
ENDBRANCH  17  18
ENDBRANCH  13  17
ENDBRANCH   6   9
BRANCH   1  24
ATOM     23  C   UNL     1       6.974   3.900  11.906  0.00  0.00    +0.000 C 
ATOM     24  C   UNL     1       5.955   3.325  12.881  0.00  0.00    +0.000 C 
BRANCH  24  25
ATOM     25  O   UNL     1       4.665   3.821  12.540  0.00  0.00    +0.000 OA
ATOM     26  H   UNL     1       4.408   3.489  11.663  0.00  0.00    +0.000 HD
ENDBRANCH  24  25
ENDBRANCH   1  24
BRANCH   5  27
ATOM     27  C   UNL     1       7.065   6.952  17.077  0.00  0.00    +0.000 C 
ATOM     28  O   UNL     1       8.076   6.808  17.748  0.00  0.00    +0.000 OA
BRANCH  27  29
ATOM     29  O   UNL     1       6.602   8.171  16.726  0.00  0.00    +0.000 OA
ATOM     30  H   UNL     1       7.185   8.931  16.952  0.00  0.00    +0.000 HD
ENDBRANCH  27  29
ENDBRANCH   5  27
TORSDOF 7
ENDMDL
MODEL 7
REMARK VINA RESULT:      -6.5      3.820      5.978
REMARK  Name = 
REMARK  8 active torsions:
REMARK  status: ('A' for Active; 'I' for Inactive)
REMARK    1  A    between atoms: C_1  and  C_2
REMARK    2  A    between atoms: C_2  and  O_3
REMARK    3  A    between atoms: C_2  and  C_4
REMARK    4  A    between atoms: C_8  and  C_9
REMARK    5  A    between atoms: C_9  and  O_11
REMARK    6  A    between atoms: C_12  and  C_13
REMARK    7  A    between atoms: C_17  and  C_19
REMARK    8  A    between atoms: C_19  and  C_20
REMARK                            x       y       z     vdW  Elec       q    Type
REMARK                         _______ _______ _______ _____ _____    ______ ____
ROOT
ATOM      1  C   UNL     1      -0.082   8.816  21.900  0.00  0.00    +0.000 C 
ATOM      2  C   UNL     1      -0.082   9.825  20.742  0.00  0.00    +0.000 C 
ATOM      3  O   UNL     1      -0.881  10.506  20.144  0.00  0.00    +0.000 OA
ATOM      4  N   UNL     1       1.186   9.484  20.355  0.00  0.00    +0.000 N 
ATOM      5  C   UNL     1       1.379   8.811  19.158  0.00  0.00    +0.000 C 
ATOM      6  C   UNL     1       1.704   7.513  19.344  0.00  0.00    +0.000 C 
ATOM      7  C   UNL     1       1.747   7.197  20.815  0.00  0.00    +0.000 C 
ATOM      8  C   UNL     1       1.385   8.521  21.470  0.00  0.00    +0.000 C 
ENDROOT
BRANCH   6   9
ATOM      9  C   UNL     1       1.956   6.422  18.313  0.00  0.00    +0.000 C 
ATOM     10  C   UNL     1       2.214   5.028  18.908  0.00  0.00    +0.000 C 
ATOM     11  C   UNL     1       3.722   4.980  19.167  0.00  0.00    +0.000 C 
ATOM     12  N   UNL     1       4.296   5.937  18.221  0.00  0.00    +0.000 N 
ATOM     13  C   UNL     1       5.558   5.737  17.707  0.00  0.00    +0.000 C 
ATOM     14  N   UNL     1       5.758   5.177  16.556  0.00  0.00    +0.000 NA
ATOM     15  C   UNL     1       3.232   6.624  17.474  0.00  0.00    +0.000 C 
ATOM     16  H   UNL     1       4.848   4.903  16.171  0.00  0.00    +0.000 HD
BRANCH  13  17
ATOM     17  C   UNL     1       6.735   6.263  18.508  0.00  0.00    +0.000 C 
BRANCH  17  18
ATOM     18  C   UNL     1       7.824   5.316  18.953  0.00  0.00    +0.000 C 
ATOM     19  N   UNL     1       8.355   5.483  20.193  0.00  0.00    +0.000 N 
ATOM     20  O   UNL     1       8.249   4.427  18.216  0.00  0.00    +0.000 OA
ATOM     21  H   UNL     1       7.778   5.974  20.879  0.00  0.00    +0.000 HD
ATOM     22  H   UNL     1       8.970   4.755  20.529  0.00  0.00    +0.000 HD
ENDBRANCH  17  18
ENDBRANCH  13  17
ENDBRANCH   6   9
BRANCH   1  24
ATOM     23  C   UNL     1      -1.086  10.652  23.242  0.00  0.00    +0.000 C 
ATOM     24  C   UNL     1      -0.264   9.371  23.298  0.00  0.00    +0.000 C 
BRANCH  24  25
ATOM     25  O   UNL     1       1.004   9.665  23.871  0.00  0.00    +0.000 OA
ATOM     26  H   UNL     1       1.138  10.628  23.895  0.00  0.00    +0.000 HD
ENDBRANCH  24  25
ENDBRANCH   1  24
BRANCH   5  27
ATOM     27  C   UNL     1       1.233   9.512  17.845  0.00  0.00    +0.000 C 
ATOM     28  O   UNL     1       0.246   9.385  17.133  0.00  0.00    +0.000 OA
BRANCH  27  29
ATOM     29  O   UNL     1       2.288  10.272  17.483  0.00  0.00    +0.000 OA
ATOM     30  H   UNL     1       2.458  10.334  16.515  0.00  0.00    +0.000 HD
ENDBRANCH  27  29
ENDBRANCH   5  27
TORSDOF 7
ENDMDL
MODEL 8
REMARK VINA RESULT:      -6.4      2.555      7.287
REMARK  Name = 
REMARK  8 active torsions:
REMARK  status: ('A' for Active; 'I' for Inactive)
REMARK    1  A    between atoms: C_1  and  C_2
REMARK    2  A    between atoms: C_2  and  O_3
REMARK    3  A    between atoms: C_2  and  C_4
REMARK    4  A    between atoms: C_8  and  C_9
REMARK    5  A    between atoms: C_9  and  O_11
REMARK    6  A    between atoms: C_12  and  C_13
REMARK    7  A    between atoms: C_17  and  C_19
REMARK    8  A    between atoms: C_19  and  C_20
REMARK                            x       y       z     vdW  Elec       q    Type
REMARK                         _______ _______ _______ _____ _____    ______ ____
ROOT
ATOM      1  C   UNL     1       6.350   3.693  13.688  0.00  0.00    +0.000 C 
ATOM      2  C   UNL     1       7.085   4.951  14.175  0.00  0.00    +0.000 C 
ATOM      3  O   UNL     1       8.218   5.366  14.226  0.00  0.00    +0.000 OA
ATOM      4  N   UNL     1       5.993   5.403  14.867  0.00  0.00    +0.000 N 
ATOM      5  C   UNL     1       6.018   5.414  16.254  0.00  0.00    +0.000 C 
ATOM      6  C   UNL     1       5.240   4.448  16.790  0.00  0.00    +0.000 C 
ATOM      7  C   UNL     1       4.588   3.645  15.697  0.00  0.00    +0.000 C 
ATOM      8  C   UNL     1       5.114   4.290  14.424  0.00  0.00    +0.000 C 
ENDROOT
BRANCH   6   9
ATOM      9  C   UNL     1       5.017   4.087  18.251  0.00  0.00    +0.000 C 
ATOM     10  C   UNL     1       3.857   3.108  18.497  0.00  0.00    +0.000 C 
ATOM     11  C   UNL     1       2.616   3.993  18.640  0.00  0.00    +0.000 C 
ATOM     12  N   UNL     1       3.127   5.288  19.090  0.00  0.00    +0.000 N 
ATOM     13  C   UNL     1       2.362   6.094  19.903  0.00  0.00    +0.000 C 
ATOM     14  N   UNL     1       2.496   6.109  21.192  0.00  0.00    +0.000 NA
ATOM     15  C   UNL     1       4.596   5.272  19.142  0.00  0.00    +0.000 C 
ATOM     16  H   UNL     1       3.207   5.415  21.447  0.00  0.00    +0.000 HD
BRANCH  13  17
ATOM     17  C   UNL     1       1.382   7.039  19.233  0.00  0.00    +0.000 C 
BRANCH  17  18
ATOM     18  C   UNL     1       1.865   8.364  18.693  0.00  0.00    +0.000 C 
ATOM     19  N   UNL     1       2.829   8.355  17.735  0.00  0.00    +0.000 N 
ATOM     20  O   UNL     1       1.428   9.434  19.116  0.00  0.00    +0.000 OA
ATOM     21  H   UNL     1       2.921   7.502  17.181  0.00  0.00    +0.000 HD
ATOM     22  H   UNL     1       3.031   9.236  17.282  0.00  0.00    +0.000 HD
ENDBRANCH  17  18
ENDBRANCH  13  17
ENDBRANCH   6   9
BRANCH   1  24
ATOM     23  C   UNL     1       4.734   3.424  11.817  0.00  0.00    +0.000 C 
ATOM     24  C   UNL     1       6.208   3.514  12.191  0.00  0.00    +0.000 C 
BRANCH  24  25
ATOM     25  O   UNL     1       6.857   2.316  11.783  0.00  0.00    +0.000 OA
ATOM     26  H   UNL     1       6.286   1.826  11.167  0.00  0.00    +0.000 HD
ENDBRANCH  24  25
ENDBRANCH   1  24
BRANCH   5  27
ATOM     27  C   UNL     1       6.833   6.419  17.004  0.00  0.00    +0.000 C 
ATOM     28  O   UNL     1       6.628   7.622  16.935  0.00  0.00    +0.000 OA
BRANCH  27  29
ATOM     29  O   UNL     1       7.838   5.902  17.742  0.00  0.00    +0.000 OA
ATOM     30  H   UNL     1       8.492   6.551  18.088  0.00  0.00    +0.000 HD
ENDBRANCH  27  29
ENDBRANCH   5  27
TORSDOF 7
ENDMDL
MODEL 9
REMARK VINA RESULT:      -6.3      2.782      7.156
REMARK  Name = 
REMARK  8 active torsions:
REMARK  status: ('A' for Active; 'I' for Inactive)
REMARK    1  A    between atoms: C_1  and  C_2
REMARK    2  A    between atoms: C_2  and  O_3
REMARK    3  A    between atoms: C_2  and  C_4
REMARK    4  A    between atoms: C_8  and  C_9
REMARK    5  A    between atoms: C_9  and  O_11
REMARK    6  A    between atoms: C_12  and  C_13
REMARK    7  A    between atoms: C_17  and  C_19
REMARK    8  A    between atoms: C_19  and  C_20
REMARK                            x       y       z     vdW  Elec       q    Type
REMARK                         _______ _______ _______ _____ _____    ______ ____
ROOT
ATOM      1  C   UNL     1       6.182   3.711  14.119  0.00  0.00    +0.000 C 
ATOM      2  C   UNL     1       6.983   4.950  14.548  0.00  0.00    +0.000 C 
ATOM      3  O   UNL     1       8.141   5.274  14.664  0.00  0.00    +0.000 OA
ATOM      4  N   UNL     1       5.882   5.558  15.087  0.00  0.00    +0.000 N 
ATOM      5  C   UNL     1       5.789   5.714  16.462  0.00  0.00    +0.000 C 
ATOM      6  C   UNL     1       4.884   4.876  17.014  0.00  0.00    +0.000 C 
ATOM      7  C   UNL     1       4.258   4.018  15.947  0.00  0.00    +0.000 C 
ATOM      8  C   UNL     1       4.947   4.480  14.673  0.00  0.00    +0.000 C 
ENDROOT
BRANCH   6   9
ATOM      9  C   UNL     1       4.506   4.689  18.476  0.00  0.00    +0.000 C 
ATOM     10  C   UNL     1       3.187   3.931  18.703  0.00  0.00    +0.000 C 
ATOM     11  C   UNL     1       2.101   5.009  18.672  0.00  0.00    +0.000 C 
ATOM     12  N   UNL     1       2.784   6.243  19.059  0.00  0.00    +0.000 N 
ATOM     13  C   UNL     1       2.107   7.230  19.740  0.00  0.00    +0.000 C 
ATOM     14  N   UNL     1       2.153   7.342  21.029  0.00  0.00    +0.000 NA
ATOM     15  C   UNL     1       4.224   6.002  19.232  0.00  0.00    +0.000 C 
ATOM     16  H   UNL     1       2.722   6.571  21.397  0.00  0.00    +0.000 HD
BRANCH  13  17
ATOM     17  C   UNL     1       1.342   8.252  18.918  0.00  0.00    +0.000 C 
BRANCH  17  18
ATOM     18  C   UNL     1       2.068   9.077  17.881  0.00  0.00    +0.000 C 
ATOM     19  N   UNL     1       1.816  10.411  17.830  0.00  0.00    +0.000 N 
ATOM     20  O   UNL     1       2.850   8.567  17.080  0.00  0.00    +0.000 OA
ATOM     21  H   UNL     1       1.452  10.845  18.681  0.00  0.00    +0.000 HD
ATOM     22  H   UNL     1       2.416  10.967  17.236  0.00  0.00    +0.000 HD
ENDBRANCH  17  18
ENDBRANCH  13  17
ENDBRANCH   6   9
BRANCH   1  24
ATOM     23  C   UNL     1       7.074   4.337  11.884  0.00  0.00    +0.000 C 
ATOM     24  C   UNL     1       6.152   3.388  12.639  0.00  0.00    +0.000 C 
BRANCH  24  25
ATOM     25  O   UNL     1       4.830   3.538  12.137  0.00  0.00    +0.000 OA
ATOM     26  H   UNL     1       4.303   2.751  12.361  0.00  0.00    +0.000 HD
ENDBRANCH  24  25
ENDBRANCH   1  24
BRANCH   5  27
ATOM     27  C   UNL     1       6.624   6.722  17.185  0.00  0.00    +0.000 C 
ATOM     28  O   UNL     1       6.480   7.927  17.040  0.00  0.00    +0.000 OA
BRANCH  27  29
ATOM     29  O   UNL     1       7.577   6.203  17.988  0.00  0.00    +0.000 OA
ATOM     30  H   UNL     1       7.888   5.298  17.754  0.00  0.00    +0.000 HD
ENDBRANCH  27  29
ENDBRANCH   5  27
TORSDOF 7
ENDMDL
