MODEL 1
REMARK VINA RESULT:      -7.9      0.000      0.000
REMARK  Name = 
REMARK  10 active torsions:
REMARK  status: ('A' for Active; 'I' for Inactive)
REMARK    1  A    between atoms: C_1  and  C_2
REMARK    2  A    between atoms: C_3  and  C_4
REMARK    3  A    between atoms: C_4  and  C_5
REMARK    4  A    between atoms: C_4  and  C_12
REMARK    5  A    between atoms: C_9  and  O_10
REMARK    6  A    between atoms: C_13  and  C_14
REMARK    7  A    between atoms: N_15  and  C_16
REMARK    8  A    between atoms: N_17  and  C_18
REMARK    9  A    between atoms: N_28  and  C_29
REMARK   10  A    between atoms: N_35  and  C_36
REMARK                            x       y       z     vdW  Elec       q    Type
REMARK                         _______ _______ _______ _____ _____    ______ ____
ROOT
ATOM      1  C   UNL     1       0.287  11.135  18.492  0.00  0.00    +0.000 C 
ENDROOT
BRANCH   1   4
ATOM      2  C   UNL     1      -0.127   9.474  21.326  0.00  0.00    +0.000 C 
ATOM      3  C   UNL     1       0.696   9.114  20.130  0.00  0.00    +0.000 A 
ATOM      4  C   UNL     1       0.895   9.840  19.007  0.00  0.00    +0.000 A 
ATOM      5  C   UNL     1       1.880   9.033  18.214  0.00  0.00    +0.000 A 
ATOM      6  O   UNL     1       2.260   9.309  17.086  0.00  0.00    +0.000 OA
ATOM      7  N   UNL     1       2.214   7.916  18.990  0.00  0.00    +0.000 N 
ATOM      8  N   UNL     1       1.351   7.879  20.093  0.00  0.00    +0.000 N 
ATOM      9  C   UNL     1       1.749   7.131  21.280  0.00  0.00    +0.000 C 
BRANCH   7  10
ATOM     10  C   UNL     1       2.823   6.764  18.456  0.00  0.00    +0.000 A 
ATOM     11  C   UNL     1       2.054   5.604  18.302  0.00  0.00    +0.000 A 
ATOM     12  C   UNL     1       2.578   4.494  17.637  0.00  0.00    +0.000 A 
ATOM     13  C   UNL     1       3.887   4.520  17.160  0.00  0.00    +0.000 A 
ATOM     14  C   UNL     1       4.679   5.650  17.358  0.00  0.00    +0.000 A 
ATOM     15  C   UNL     1       4.147   6.770  17.998  0.00  0.00    +0.000 A 
ENDBRANCH   7  10
ENDBRANCH   1   4
BRANCH   1  16
ATOM     16  C   UNL     1       0.639  12.342  19.354  0.00  0.00    +0.000 A 
ATOM     17  C   UNL     1       0.201  12.854  20.532  0.00  0.00    +0.000 A 
ATOM     18  C   UNL     1      -1.062  12.533  21.271  0.00  0.00    +0.000 C 
ATOM     19  N   UNL     1       1.097  13.790  21.056  0.00  0.00    +0.000 N 
ATOM     20  C   UNL     1       0.854  14.741  22.129  0.00  0.00    +0.000 C 
ATOM     21  N   UNL     1       1.939  14.158  20.011  0.00  0.00    +0.000 N 
ATOM     22  C   UNL     1       1.705  13.314  18.929  0.00  0.00    +0.000 A 
ATOM     23  O   UNL     1       2.220  13.340  17.822  0.00  0.00    +0.000 OA
BRANCH  21  24
ATOM     24  C   UNL     1       3.077  14.964  20.152  0.00  0.00    +0.000 A 
ATOM     25  C   UNL     1       3.056  16.254  19.614  0.00  0.00    +0.000 A 
ATOM     26  C   UNL     1       4.153  17.099  19.772  0.00  0.00    +0.000 A 
ATOM     27  C   UNL     1       5.294  16.642  20.429  0.00  0.00    +0.000 A 
ATOM     28  C   UNL     1       5.333  15.344  20.940  0.00  0.00    +0.000 A 
ATOM     29  C   UNL     1       4.220  14.509  20.818  0.00  0.00    +0.000 A 
ENDBRANCH  21  24
ENDBRANCH   1  16
BRANCH   1  30
ATOM     30  C   UNL     1      -1.221  10.947  18.243  0.00  0.00    +0.000 A 
ATOM     31  C   UNL     1      -1.719   9.822  17.554  0.00  0.00    +0.000 A 
ATOM     32  C   UNL     1      -3.087   9.631  17.351  0.00  0.00    +0.000 A 
ATOM     33  C   UNL     1      -3.991  10.589  17.787  0.00  0.00    +0.000 A 
ATOM     34  C   UNL     1      -3.508  11.732  18.426  0.00  0.00    +0.000 A 
ATOM     35  C   UNL     1      -2.143  11.918  18.659  0.00  0.00    +0.000 A 
BRANCH  34  36
ATOM     36  O   UNL     1      -4.366  12.712  18.829  0.00  0.00    +0.000 OA
ATOM     37  H   UNL     1      -5.192  12.622  18.325  0.00  0.00    +0.000 HD
ENDBRANCH  34  36
ENDBRANCH   1  30
TORSDOF 6
ENDMDL
MODEL 2
REMARK VINA RESULT:      -7.9      0.129      1.143
REMARK  Name = 
REMARK  10 active torsions:
REMARK  status: ('A' for Active; 'I' for Inactive)
REMARK    1  A    between atoms: C_1  and  C_2
REMARK    2  A    between atoms: C_3  and  C_4
REMARK    3  A    between atoms: C_4  and  C_5
REMARK    4  A    between atoms: C_4  and  C_12
REMARK    5  A    between atoms: C_9  and  O_10
REMARK    6  A    between atoms: C_13  and  C_14
REMARK    7  A    between atoms: N_15  and  C_16
REMARK    8  A    between atoms: N_17  and  C_18
REMARK    9  A    between atoms: N_28  and  C_29
REMARK   10  A    between atoms: N_35  and  C_36
REMARK                            x       y       z     vdW  Elec       q    Type
REMARK                         _______ _______ _______ _____ _____    ______ ____
ROOT
ATOM      1  C   UNL     1       0.281  11.139  18.503  0.00  0.00    +0.000 C 
ENDROOT
BRANCH   1   4
ATOM      2  C   UNL     1      -0.085   9.466  21.337  0.00  0.00    +0.000 C 
ATOM      3  C   UNL     1       0.712   9.108  20.123  0.00  0.00    +0.000 A 
ATOM      4  C   UNL     1       0.892   9.839  19.000  0.00  0.00    +0.000 A 
ATOM      5  C   UNL     1       1.857   9.031  18.184  0.00  0.00    +0.000 A 
ATOM      6  O   UNL     1       2.216   9.310  17.049  0.00  0.00    +0.000 OA
ATOM      7  N   UNL     1       2.200   7.908  18.947  0.00  0.00    +0.000 N 
ATOM      8  N   UNL     1       1.360   7.870  20.067  0.00  0.00    +0.000 N 
ATOM      9  C   UNL     1       1.778   7.113  21.242  0.00  0.00    +0.000 C 
BRANCH   7  10
ATOM     10  C   UNL     1       2.794   6.756  18.395  0.00  0.00    +0.000 A 
ATOM     11  C   UNL     1       4.174   6.755  18.161  0.00  0.00    +0.000 A 
ATOM     12  C   UNL     1       4.820   5.584  17.760  0.00  0.00    +0.000 A 
ATOM     13  C   UNL     1       4.086   4.418  17.548  0.00  0.00    +0.000 A 
ATOM     14  C   UNL     1       2.702   4.425  17.724  0.00  0.00    +0.000 A 
ATOM     15  C   UNL     1       2.060   5.589  18.151  0.00  0.00    +0.000 A 
ENDBRANCH   7  10
ENDBRANCH   1   4
BRANCH   1  16
ATOM     16  C   UNL     1       0.634  12.336  19.379  0.00  0.00    +0.000 A 
ATOM     17  C   UNL     1       0.207  12.825  20.571  0.00  0.00    +0.000 A 
ATOM     18  C   UNL     1      -1.043  12.482  21.322  0.00  0.00    +0.000 C 
ATOM     19  N   UNL     1       1.102  13.760  21.098  0.00  0.00    +0.000 N 
ATOM     20  C   UNL     1       0.866  14.692  22.189  0.00  0.00    +0.000 C 
ATOM     21  N   UNL     1       1.927  14.152  20.047  0.00  0.00    +0.000 N 
ATOM     22  C   UNL     1       1.685  13.323  18.955  0.00  0.00    +0.000 A 
ATOM     23  O   UNL     1       2.186  13.370  17.843  0.00  0.00    +0.000 OA
BRANCH  21  24
ATOM     24  C   UNL     1       3.060  14.965  20.187  0.00  0.00    +0.000 A 
ATOM     25  C   UNL     1       4.168  14.460  20.873  0.00  0.00    +0.000 A 
ATOM     26  C   UNL     1       5.328  15.223  20.996  0.00  0.00    +0.000 A 
ATOM     27  C   UNL     1       5.369  16.513  20.471  0.00  0.00    +0.000 A 
ATOM     28  C   UNL     1       4.254  17.036  19.813  0.00  0.00    +0.000 A 
ATOM     29  C   UNL     1       3.106  16.258  19.654  0.00  0.00    +0.000 A 
ENDBRANCH  21  24
ENDBRANCH   1  16
BRANCH   1  30
ATOM     30  C   UNL     1      -1.228  10.952  18.258  0.00  0.00    +0.000 A 
ATOM     31  C   UNL     1      -1.726   9.849  17.532  0.00  0.00    +0.000 A 
ATOM     32  C   UNL     1      -3.093   9.659  17.331  0.00  0.00    +0.000 A 
ATOM     33  C   UNL     1      -3.999  10.596  17.807  0.00  0.00    +0.000 A 
ATOM     34  C   UNL     1      -3.518  11.718  18.484  0.00  0.00    +0.000 A 
ATOM     35  C   UNL     1      -2.152  11.902  18.714  0.00  0.00    +0.000 A 
BRANCH  34  36
ATOM     36  O   UNL     1      -4.379  12.678  18.928  0.00  0.00    +0.000 OA
ATOM     37  H   UNL     1      -3.949  13.543  18.831  0.00  0.00    +0.000 HD
ENDBRANCH  34  36
ENDBRANCH   1  30
TORSDOF 6
ENDMDL
MODEL 3
REMARK VINA RESULT:      -7.8      3.164      6.687
REMARK  Name = 
REMARK  10 active torsions:
REMARK  status: ('A' for Active; 'I' for Inactive)
REMARK    1  A    between atoms: C_1  and  C_2
REMARK    2  A    between atoms: C_3  and  C_4
REMARK    3  A    between atoms: C_4  and  C_5
REMARK    4  A    between atoms: C_4  and  C_12
REMARK    5  A    between atoms: C_9  and  O_10
REMARK    6  A    between atoms: C_13  and  C_14
REMARK    7  A    between atoms: N_15  and  C_16
REMARK    8  A    between atoms: N_17  and  C_18
REMARK    9  A    between atoms: N_28  and  C_29
REMARK   10  A    between atoms: N_35  and  C_36
REMARK                            x       y       z     vdW  Elec       q    Type
REMARK                         _______ _______ _______ _____ _____    ______ ____
ROOT
ATOM      1  C   UNL     1      -0.472  13.143  21.405  0.00  0.00    +0.000 C 
ENDROOT
BRANCH   1   4
ATOM      2  C   UNL     1      -2.076  12.408  18.603  0.00  0.00    +0.000 C 
ATOM      3  C   UNL     1      -0.958  11.674  19.274  0.00  0.00    +0.000 A 
ATOM      4  C   UNL     1      -0.360  11.964  20.451  0.00  0.00    +0.000 A 
ATOM      5  C   UNL     1       0.606  10.837  20.662  0.00  0.00    +0.000 A 
ATOM      6  O   UNL     1       1.407  10.769  21.583  0.00  0.00    +0.000 OA
ATOM      7  N   UNL     1       0.438   9.947  19.595  0.00  0.00    +0.000 N 
ATOM      8  N   UNL     1      -0.402  10.553  18.652  0.00  0.00    +0.000 N 
ATOM      9  C   UNL     1      -1.113   9.714  17.693  0.00  0.00    +0.000 C 
BRANCH   7  10
ATOM     10  C   UNL     1       1.391   8.967  19.255  0.00  0.00    +0.000 A 
ATOM     11  C   UNL     1       1.569   7.874  20.112  0.00  0.00    +0.000 A 
ATOM     12  C   UNL     1       2.388   6.809  19.735  0.00  0.00    +0.000 A 
ATOM     13  C   UNL     1       3.070   6.848  18.519  0.00  0.00    +0.000 A 
ATOM     14  C   UNL     1       2.943   7.958  17.685  0.00  0.00    +0.000 A 
ATOM     15  C   UNL     1       2.102   9.011  18.050  0.00  0.00    +0.000 A 
ENDBRANCH   7  10
ENDBRANCH   1   4
BRANCH   1  16
ATOM     16  C   UNL     1      -1.891  13.693  21.508  0.00  0.00    +0.000 A 
ATOM     17  C   UNL     1      -2.539  14.796  21.055  0.00  0.00    +0.000 A 
ATOM     18  C   UNL     1      -1.949  16.064  20.516  0.00  0.00    +0.000 C 
ATOM     19  N   UNL     1      -3.926  14.651  21.134  0.00  0.00    +0.000 N 
ATOM     20  C   UNL     1      -4.932  15.695  21.014  0.00  0.00    +0.000 C 
ATOM     21  N   UNL     1      -4.163  13.588  22.000  0.00  0.00    +0.000 N 
ATOM     22  C   UNL     1      -2.953  12.959  22.278  0.00  0.00    +0.000 A 
ATOM     23  O   UNL     1      -2.744  12.012  23.019  0.00  0.00    +0.000 OA
BRANCH  21  24
ATOM     24  C   UNL     1      -5.422  13.017  22.233  0.00  0.00    +0.000 A 
ATOM     25  C   UNL     1      -6.078  12.384  21.174  0.00  0.00    +0.000 A 
ATOM     26  C   UNL     1      -7.312  11.768  21.377  0.00  0.00    +0.000 A 
ATOM     27  C   UNL     1      -7.917  11.823  22.631  0.00  0.00    +0.000 A 
ATOM     28  C   UNL     1      -7.282  12.483  23.685  0.00  0.00    +0.000 A 
ATOM     29  C   UNL     1      -6.027  13.065  23.493  0.00  0.00    +0.000 A 
ENDBRANCH  21  24
ENDBRANCH   1  16
BRANCH   1  30
ATOM     30  C   UNL     1       0.597  14.199  21.068  0.00  0.00    +0.000 A 
ATOM     31  C   UNL     1       1.090  15.086  22.048  0.00  0.00    +0.000 A 
ATOM     32  C   UNL     1       2.080  16.025  21.756  0.00  0.00    +0.000 A 
ATOM     33  C   UNL     1       2.567  16.138  20.462  0.00  0.00    +0.000 A 
ATOM     34  C   UNL     1       2.052  15.300  19.471  0.00  0.00    +0.000 A 
ATOM     35  C   UNL     1       1.081  14.338  19.760  0.00  0.00    +0.000 A 
BRANCH  34  36
ATOM     36  O   UNL     1       2.478  15.414  18.181  0.00  0.00    +0.000 OA
ATOM     37  H   UNL     1       2.978  14.613  17.951  0.00  0.00    +0.000 HD
ENDBRANCH  34  36
ENDBRANCH   1  30
TORSDOF 6
ENDMDL
MODEL 4
REMARK VINA RESULT:      -7.7      3.364      6.759
REMARK  Name = 
REMARK  10 active torsions:
REMARK  status: ('A' for Active; 'I' for Inactive)
REMARK    1  A    between atoms: C_1  and  C_2
REMARK    2  A    between atoms: C_3  and  C_4
REMARK    3  A    between atoms: C_4  and  C_5
REMARK    4  A    between atoms: C_4  and  C_12
REMARK    5  A    between atoms: C_9  and  O_10
REMARK    6  A    between atoms: C_13  and  C_14
REMARK    7  A    between atoms: N_15  and  C_16
REMARK    8  A    between atoms: N_17  and  C_18
REMARK    9  A    between atoms: N_28  and  C_29
REMARK   10  A    between atoms: N_35  and  C_36
REMARK                            x       y       z     vdW  Elec       q    Type
REMARK                         _______ _______ _______ _____ _____    ______ ____
ROOT
ATOM      1  C   UNL     1      -0.510  13.328  21.467  0.00  0.00    +0.000 C 
ENDROOT
BRANCH   1   4
ATOM      2  C   UNL     1      -2.306  12.473  18.820  0.00  0.00    +0.000 C 
ATOM      3  C   UNL     1      -1.126  11.782  19.426  0.00  0.00    +0.000 A 
ATOM      4  C   UNL     1      -0.446  12.122  20.545  0.00  0.00    +0.000 A 
ATOM      5  C   UNL     1       0.556  11.020  20.717  0.00  0.00    +0.000 A 
ATOM      6  O   UNL     1       1.426  10.996  21.575  0.00  0.00    +0.000 OA
ATOM      7  N   UNL     1       0.326  10.091  19.694  0.00  0.00    +0.000 N 
ATOM      8  N   UNL     1      -0.595  10.651  18.799  0.00  0.00    +0.000 N 
ATOM      9  C   UNL     1      -1.359   9.768  17.924  0.00  0.00    +0.000 C 
BRANCH   7  10
ATOM     10  C   UNL     1       1.270   9.118  19.313  0.00  0.00    +0.000 A 
ATOM     11  C   UNL     1       1.494   8.028  20.163  0.00  0.00    +0.000 A 
ATOM     12  C   UNL     1       2.305   6.968  19.751  0.00  0.00    +0.000 A 
ATOM     13  C   UNL     1       2.932   7.011  18.507  0.00  0.00    +0.000 A 
ATOM     14  C   UNL     1       2.760   8.119  17.678  0.00  0.00    +0.000 A 
ATOM     15  C   UNL     1       1.927   9.166  18.078  0.00  0.00    +0.000 A 
ENDBRANCH   7  10
ENDBRANCH   1   4
BRANCH   1  16
ATOM     16  C   UNL     1      -1.925  13.870  21.641  0.00  0.00    +0.000 A 
ATOM     17  C   UNL     1      -2.584  14.998  21.272  0.00  0.00    +0.000 A 
ATOM     18  C   UNL     1      -2.008  16.296  20.794  0.00  0.00    +0.000 C 
ATOM     19  N   UNL     1      -3.969  14.848  21.381  0.00  0.00    +0.000 N 
ATOM     20  C   UNL     1      -4.976  15.897  21.351  0.00  0.00    +0.000 C 
ATOM     21  N   UNL     1      -4.183  13.735  22.188  0.00  0.00    +0.000 N 
ATOM     22  C   UNL     1      -2.966  13.092  22.395  0.00  0.00    +0.000 A 
ATOM     23  O   UNL     1      -2.738  12.102  23.073  0.00  0.00    +0.000 OA
BRANCH  21  24
ATOM     24  C   UNL     1      -5.435  13.151  22.422  0.00  0.00    +0.000 A 
ATOM     25  C   UNL     1      -6.079  12.499  21.365  0.00  0.00    +0.000 A 
ATOM     26  C   UNL     1      -7.306  11.870  21.570  0.00  0.00    +0.000 A 
ATOM     27  C   UNL     1      -7.916  11.929  22.821  0.00  0.00    +0.000 A 
ATOM     28  C   UNL     1      -7.295  12.607  23.871  0.00  0.00    +0.000 A 
ATOM     29  C   UNL     1      -6.047  13.203  23.679  0.00  0.00    +0.000 A 
ENDBRANCH  21  24
ENDBRANCH   1  16
BRANCH   1  30
ATOM     30  C   UNL     1       0.526  14.381  21.031  0.00  0.00    +0.000 A 
ATOM     31  C   UNL     1       0.832  14.594  19.670  0.00  0.00    +0.000 A 
ATOM     32  C   UNL     1       1.748  15.566  19.266  0.00  0.00    +0.000 A 
ATOM     33  C   UNL     1       2.423  16.317  20.218  0.00  0.00    +0.000 A 
ATOM     34  C   UNL     1       2.168  16.083  21.570  0.00  0.00    +0.000 A 
ATOM     35  C   UNL     1       1.232  15.131  21.982  0.00  0.00    +0.000 A 
BRANCH  34  36
ATOM     36  O   UNL     1       2.845  16.774  22.530  0.00  0.00    +0.000 OA
ATOM     37  H   UNL     1       2.761  16.294  23.370  0.00  0.00    +0.000 HD
ENDBRANCH  34  36
ENDBRANCH   1  30
TORSDOF 6
ENDMDL
MODEL 5
REMARK VINA RESULT:      -7.6      2.959      7.764
REMARK  Name = 
REMARK  10 active torsions:
REMARK  status: ('A' for Active; 'I' for Inactive)
REMARK    1  A    between atoms: C_1  and  C_2
REMARK    2  A    between atoms: C_3  and  C_4
REMARK    3  A    between atoms: C_4  and  C_5
REMARK    4  A    between atoms: C_4  and  C_12
REMARK    5  A    between atoms: C_9  and  O_10
REMARK    6  A    between atoms: C_13  and  C_14
REMARK    7  A    between atoms: N_15  and  C_16
REMARK    8  A    between atoms: N_17  and  C_18
REMARK    9  A    between atoms: N_28  and  C_29
REMARK   10  A    between atoms: N_35  and  C_36
REMARK                            x       y       z     vdW  Elec       q    Type
REMARK                         _______ _______ _______ _____ _____    ______ ____
ROOT
ATOM      1  C   UNL     1      -1.248  13.302  22.063  0.00  0.00    +0.000 C 
ENDROOT
BRANCH   1   4
ATOM      2  C   UNL     1      -0.122  15.998  23.621  0.00  0.00    +0.000 C 
ATOM      3  C   UNL     1      -0.175  15.705  22.155  0.00  0.00    +0.000 A 
ATOM      4  C   UNL     1      -0.696  14.619  21.541  0.00  0.00    +0.000 A 
ATOM      5  C   UNL     1      -0.562  14.921  20.078  0.00  0.00    +0.000 A 
ATOM      6  O   UNL     1      -0.844  14.145  19.177  0.00  0.00    +0.000 OA
ATOM      7  N   UNL     1      -0.016  16.207  19.973  0.00  0.00    +0.000 N 
ATOM      8  N   UNL     1       0.382  16.616  21.252  0.00  0.00    +0.000 N 
ATOM      9  C   UNL     1       0.543  18.040  21.523  0.00  0.00    +0.000 C 
BRANCH   7  10
ATOM     10  C   UNL     1       0.578  16.695  18.793  0.00  0.00    +0.000 A 
ATOM     11  C   UNL     1      -0.177  17.519  17.950  0.00  0.00    +0.000 A 
ATOM     12  C   UNL     1       0.422  18.145  16.855  0.00  0.00    +0.000 A 
ATOM     13  C   UNL     1       1.767  17.916  16.570  0.00  0.00    +0.000 A 
ATOM     14  C   UNL     1       2.513  17.052  17.371  0.00  0.00    +0.000 A 
ATOM     15  C   UNL     1       1.921  16.448  18.482  0.00  0.00    +0.000 A 
ENDBRANCH   7  10
ENDBRANCH   1   4
BRANCH   1  16
ATOM     16  C   UNL     1      -1.207  12.186  21.024  0.00  0.00    +0.000 A 
ATOM     17  C   UNL     1      -1.973  11.818  19.966  0.00  0.00    +0.000 A 
ATOM     18  C   UNL     1      -3.369  12.250  19.635  0.00  0.00    +0.000 C 
ATOM     19  N   UNL     1      -1.304  10.921  19.129  0.00  0.00    +0.000 N 
ATOM     20  C   UNL     1      -1.879  10.099  18.076  0.00  0.00    +0.000 C 
ATOM     21  N   UNL     1      -0.234  10.419  19.864  0.00  0.00    +0.000 N 
ATOM     22  C   UNL     1      -0.122  11.146  21.045  0.00  0.00    +0.000 A 
ATOM     23  O   UNL     1       0.669  10.987  21.961  0.00  0.00    +0.000 OA
BRANCH  21  24
ATOM     24  C   UNL     1       0.778   9.604  19.339  0.00  0.00    +0.000 A 
ATOM     25  C   UNL     1       1.161   8.466  20.055  0.00  0.00    +0.000 A 
ATOM     26  C   UNL     1       2.134   7.608  19.545  0.00  0.00    +0.000 A 
ATOM     27  C   UNL     1       2.761   7.909  18.337  0.00  0.00    +0.000 A 
ATOM     28  C   UNL     1       2.406   9.061  17.633  0.00  0.00    +0.000 A 
ATOM     29  C   UNL     1       1.403   9.900  18.123  0.00  0.00    +0.000 A 
ENDBRANCH  21  24
ENDBRANCH   1  16
BRANCH   1  30
ATOM     30  C   UNL     1      -2.630  13.526  22.704  0.00  0.00    +0.000 A 
ATOM     31  C   UNL     1      -3.371  14.702  22.463  0.00  0.00    +0.000 A 
ATOM     32  C   UNL     1      -4.637  14.899  23.017  0.00  0.00    +0.000 A 
ATOM     33  C   UNL     1      -5.174  13.945  23.870  0.00  0.00    +0.000 A 
ATOM     34  C   UNL     1      -4.430  12.799  24.156  0.00  0.00    +0.000 A 
ATOM     35  C   UNL     1      -3.175  12.581  23.584  0.00  0.00    +0.000 A 
BRANCH  34  36
ATOM     36  O   UNL     1      -4.912  11.863  25.023  0.00  0.00    +0.000 OA
ATOM     37  H   UNL     1      -4.450  11.025  24.857  0.00  0.00    +0.000 HD
ENDBRANCH  34  36
ENDBRANCH   1  30
TORSDOF 6
ENDMDL
MODEL 6
REMARK VINA RESULT:      -7.6      2.255      8.012
REMARK  Name = 
REMARK  10 active torsions:
REMARK  status: ('A' for Active; 'I' for Inactive)
REMARK    1  A    between atoms: C_1  and  C_2
REMARK    2  A    between atoms: C_3  and  C_4
REMARK    3  A    between atoms: C_4  and  C_5
REMARK    4  A    between atoms: C_4  and  C_12
REMARK    5  A    between atoms: C_9  and  O_10
REMARK    6  A    between atoms: C_13  and  C_14
REMARK    7  A    between atoms: N_15  and  C_16
REMARK    8  A    between atoms: N_17  and  C_18
REMARK    9  A    between atoms: N_28  and  C_29
REMARK   10  A    between atoms: N_35  and  C_36
REMARK                            x       y       z     vdW  Elec       q    Type
REMARK                         _______ _______ _______ _____ _____    ______ ____
ROOT
ATOM      1  C   UNL     1       0.509  11.594  18.604  0.00  0.00    +0.000 C 
ENDROOT
BRANCH   1   4
ATOM      2  C   UNL     1      -2.243  10.429  17.180  0.00  0.00    +0.000 C 
ATOM      3  C   UNL     1      -2.100  11.329  18.366  0.00  0.00    +0.000 A 
ATOM      4  C   UNL     1      -0.963  11.839  18.892  0.00  0.00    +0.000 A 
ATOM      5  C   UNL     1      -1.437  12.744  19.990  0.00  0.00    +0.000 A 
ATOM      6  O   UNL     1      -0.706  13.336  20.770  0.00  0.00    +0.000 OA
ATOM      7  N   UNL     1      -2.837  12.721  19.966  0.00  0.00    +0.000 N 
ATOM      8  N   UNL     1      -3.240  11.714  19.078  0.00  0.00    +0.000 N 
ATOM      9  C   UNL     1      -4.580  11.768  18.506  0.00  0.00    +0.000 C 
BRANCH   7  10
ATOM     10  C   UNL     1      -3.631  13.153  21.045  0.00  0.00    +0.000 A 
ATOM     11  C   UNL     1      -3.587  12.433  22.245  0.00  0.00    +0.000 A 
ATOM     12  C   UNL     1      -4.238  12.917  23.382  0.00  0.00    +0.000 A 
ATOM     13  C   UNL     1      -4.974  14.099  23.315  0.00  0.00    +0.000 A 
ATOM     14  C   UNL     1      -5.070  14.793  22.109  0.00  0.00    +0.000 A 
ATOM     15  C   UNL     1      -4.396  14.324  20.980  0.00  0.00    +0.000 A 
ENDBRANCH   7  10
ENDBRANCH   1   4
BRANCH   1  16
ATOM     16  C   UNL     1       1.010  10.263  19.155  0.00  0.00    +0.000 A 
ATOM     17  C   UNL     1       0.831   9.558  20.301  0.00  0.00    +0.000 A 
ATOM     18  C   UNL     1       0.274  10.036  21.608  0.00  0.00    +0.000 C 
ATOM     19  N   UNL     1       1.241   8.230  20.162  0.00  0.00    +0.000 N 
ATOM     20  C   UNL     1       1.467   7.260  21.221  0.00  0.00    +0.000 C 
ATOM     21  N   UNL     1       2.043   8.182  19.025  0.00  0.00    +0.000 N 
ATOM     22  C   UNL     1       1.955   9.403  18.363  0.00  0.00    +0.000 A 
ATOM     23  O   UNL     1       2.535   9.759  17.349  0.00  0.00    +0.000 OA
BRANCH  21  24
ATOM     24  C   UNL     1       2.533   7.003  18.447  0.00  0.00    +0.000 A 
ATOM     25  C   UNL     1       1.693   5.886  18.387  0.00  0.00    +0.000 A 
ATOM     26  C   UNL     1       2.130   4.709  17.782  0.00  0.00    +0.000 A 
ATOM     27  C   UNL     1       3.425   4.629  17.274  0.00  0.00    +0.000 A 
ATOM     28  C   UNL     1       4.280   5.729  17.361  0.00  0.00    +0.000 A 
ATOM     29  C   UNL     1       3.830   6.922  17.930  0.00  0.00    +0.000 A 
ENDBRANCH  21  24
ENDBRANCH   1  16
BRANCH   1  30
ATOM     30  C   UNL     1       1.342  12.816  19.036  0.00  0.00    +0.000 A 
ATOM     31  C   UNL     1       1.368  13.998  18.265  0.00  0.00    +0.000 A 
ATOM     32  C   UNL     1       2.097  15.118  18.665  0.00  0.00    +0.000 A 
ATOM     33  C   UNL     1       2.862  15.069  19.822  0.00  0.00    +0.000 A 
ATOM     34  C   UNL     1       2.885  13.889  20.567  0.00  0.00    +0.000 A 
ATOM     35  C   UNL     1       2.136  12.772  20.189  0.00  0.00    +0.000 A 
BRANCH  34  36
ATOM     36  O   UNL     1       3.659  13.795  21.686  0.00  0.00    +0.000 OA
ATOM     37  H   UNL     1       4.568  13.587  21.413  0.00  0.00    +0.000 HD
ENDBRANCH  34  36
ENDBRANCH   1  30
TORSDOF 6
ENDMDL
MODEL 7
REMARK VINA RESULT:      -7.5      2.278      8.042
REMARK  Name = 
REMARK  10 active torsions:
REMARK  status: ('A' for Active; 'I' for Inactive)
REMARK    1  A    between atoms: C_1  and  C_2
REMARK    2  A    between atoms: C_3  and  C_4
REMARK    3  A    between atoms: C_4  and  C_5
REMARK    4  A    between atoms: C_4  and  C_12
REMARK    5  A    between atoms: C_9  and  O_10
REMARK    6  A    between atoms: C_13  and  C_14
REMARK    7  A    between atoms: N_15  and  C_16
REMARK    8  A    between atoms: N_17  and  C_18
REMARK    9  A    between atoms: N_28  and  C_29
REMARK   10  A    between atoms: N_35  and  C_36
REMARK                            x       y       z     vdW  Elec       q    Type
REMARK                         _______ _______ _______ _____ _____    ______ ____
ROOT
ATOM      1  C   UNL     1       0.517  11.534  18.584  0.00  0.00    +0.000 C 
ENDROOT
BRANCH   1   4
ATOM      2  C   UNL     1      -2.237  10.352  17.178  0.00  0.00    +0.000 C 
ATOM      3  C   UNL     1      -2.092  11.278  18.344  0.00  0.00    +0.000 A 
ATOM      4  C   UNL     1      -0.955  11.793  18.861  0.00  0.00    +0.000 A 
ATOM      5  C   UNL     1      -1.427  12.725  19.938  0.00  0.00    +0.000 A 
ATOM      6  O   UNL     1      -0.695  13.331  20.706  0.00  0.00    +0.000 OA
ATOM      7  N   UNL     1      -2.827  12.709  19.910  0.00  0.00    +0.000 N 
ATOM      8  N   UNL     1      -3.232  11.685  19.044  0.00  0.00    +0.000 N 
ATOM      9  C   UNL     1      -4.571  11.733  18.467  0.00  0.00    +0.000 C 
BRANCH   7  10
ATOM     10  C   UNL     1      -3.622  13.170  20.977  0.00  0.00    +0.000 A 
ATOM     11  C   UNL     1      -4.428  14.297  20.779  0.00  0.00    +0.000 A 
ATOM     12  C   UNL     1      -5.342  14.691  21.758  0.00  0.00    +0.000 A 
ATOM     13  C   UNL     1      -5.425  13.988  22.959  0.00  0.00    +0.000 A 
ATOM     14  C   UNL     1      -4.585  12.898  23.188  0.00  0.00    +0.000 A 
ATOM     15  C   UNL     1      -3.691  12.488  22.198  0.00  0.00    +0.000 A 
ENDBRANCH   7  10
ENDBRANCH   1   4
BRANCH   1  16
ATOM     16  C   UNL     1       1.007  10.208  19.155  0.00  0.00    +0.000 A 
ATOM     17  C   UNL     1       0.833   9.529  20.317  0.00  0.00    +0.000 A 
ATOM     18  C   UNL     1       0.300  10.041  21.621  0.00  0.00    +0.000 C 
ATOM     19  N   UNL     1       1.222   8.192  20.200  0.00  0.00    +0.000 N 
ATOM     20  C   UNL     1       1.449   7.241  21.276  0.00  0.00    +0.000 C 
ATOM     21  N   UNL     1       2.008   8.110  19.055  0.00  0.00    +0.000 N 
ATOM     22  C   UNL     1       1.929   9.318  18.369  0.00  0.00    +0.000 A 
ATOM     23  O   UNL     1       2.500   9.645  17.341  0.00  0.00    +0.000 OA
BRANCH  21  24
ATOM     24  C   UNL     1       2.474   6.912  18.494  0.00  0.00    +0.000 A 
ATOM     25  C   UNL     1       3.831   6.803  18.177  0.00  0.00    +0.000 A 
ATOM     26  C   UNL     1       4.339   5.614  17.657  0.00  0.00    +0.000 A 
ATOM     27  C   UNL     1       3.483   4.542  17.410  0.00  0.00    +0.000 A 
ATOM     28  C   UNL     1       2.121   4.656  17.694  0.00  0.00    +0.000 A 
ATOM     29  C   UNL     1       1.617   5.833  18.252  0.00  0.00    +0.000 A 
ENDBRANCH  21  24
ENDBRANCH   1  16
BRANCH   1  30
ATOM     30  C   UNL     1       1.356  12.756  19.002  0.00  0.00    +0.000 A 
ATOM     31  C   UNL     1       1.380  13.934  18.225  0.00  0.00    +0.000 A 
ATOM     32  C   UNL     1       2.115  15.055  18.613  0.00  0.00    +0.000 A 
ATOM     33  C   UNL     1       2.889  15.010  19.764  0.00  0.00    +0.000 A 
ATOM     34  C   UNL     1       2.914  13.834  20.516  0.00  0.00    +0.000 A 
ATOM     35  C   UNL     1       2.160  12.717  20.150  0.00  0.00    +0.000 A 
BRANCH  34  36
ATOM     36  O   UNL     1       3.697  13.744  21.628  0.00  0.00    +0.000 OA
ATOM     37  H   UNL     1       3.947  14.642  21.901  0.00  0.00    +0.000 HD
ENDBRANCH  34  36
ENDBRANCH   1  30
TORSDOF 6
ENDMDL
MODEL 8
REMARK VINA RESULT:      -7.5      3.100      6.616
REMARK  Name = 
REMARK  10 active torsions:
REMARK  status: ('A' for Active; 'I' for Inactive)
REMARK    1  A    between atoms: C_1  and  C_2
REMARK    2  A    between atoms: C_3  and  C_4
REMARK    3  A    between atoms: C_4  and  C_5
REMARK    4  A    between atoms: C_4  and  C_12
REMARK    5  A    between atoms: C_9  and  O_10
REMARK    6  A    between atoms: C_13  and  C_14
REMARK    7  A    between atoms: N_15  and  C_16
REMARK    8  A    between atoms: N_17  and  C_18
REMARK    9  A    between atoms: N_28  and  C_29
REMARK   10  A    between atoms: N_35  and  C_36
REMARK                            x       y       z     vdW  Elec       q    Type
REMARK                         _______ _______ _______ _____ _____    ______ ____
ROOT
ATOM      1  C   UNL     1      -0.240  13.020  21.386  0.00  0.00    +0.000 C 
ENDROOT
BRANCH   1   4
ATOM      2  C   UNL     1      -1.856  12.440  18.555  0.00  0.00    +0.000 C 
ATOM      3  C   UNL     1      -0.809  11.615  19.233  0.00  0.00    +0.000 A 
ATOM      4  C   UNL     1      -0.207  11.846  20.421  0.00  0.00    +0.000 A 
ATOM      5  C   UNL     1       0.665  10.644  20.634  0.00  0.00    +0.000 A 
ATOM      6  O   UNL     1       1.445  10.504  21.565  0.00  0.00    +0.000 OA
ATOM      7  N   UNL     1       0.443   9.780  19.555  0.00  0.00    +0.000 N 
ATOM      8  N   UNL     1      -0.333  10.459  18.607  0.00  0.00    +0.000 N 
ATOM      9  C   UNL     1      -1.094   9.688  17.630  0.00  0.00    +0.000 C 
BRANCH   7  10
ATOM     10  C   UNL     1       1.321   8.731  19.218  0.00  0.00    +0.000 A 
ATOM     11  C   UNL     1       2.075   8.835  18.043  0.00  0.00    +0.000 A 
ATOM     12  C   UNL     1       3.065   7.894  17.755  0.00  0.00    +0.000 A 
ATOM     13  C   UNL     1       3.277   6.818  18.615  0.00  0.00    +0.000 A 
ATOM     14  C   UNL     1       2.491   6.675  19.759  0.00  0.00    +0.000 A 
ATOM     15  C   UNL     1       1.521   7.632  20.061  0.00  0.00    +0.000 A 
ENDBRANCH   7  10
ENDBRANCH   1   4
BRANCH   1  16
ATOM     16  C   UNL     1      -1.629  13.633  21.531  0.00  0.00    +0.000 A 
ATOM     17  C   UNL     1      -2.238  14.768  21.104  0.00  0.00    +0.000 A 
ATOM     18  C   UNL     1      -1.605  16.013  20.560  0.00  0.00    +0.000 C 
ATOM     19  N   UNL     1      -3.628  14.686  21.219  0.00  0.00    +0.000 N 
ATOM     20  C   UNL     1      -4.587  15.775  21.134  0.00  0.00    +0.000 C 
ATOM     21  N   UNL     1      -3.890  13.626  22.082  0.00  0.00    +0.000 N 
ATOM     22  C   UNL     1      -2.702  12.941  22.323  0.00  0.00    +0.000 A 
ATOM     23  O   UNL     1      -2.518  11.978  23.051  0.00  0.00    +0.000 OA
BRANCH  21  24
ATOM     24  C   UNL     1      -5.167  13.111  22.344  0.00  0.00    +0.000 A 
ATOM     25  C   UNL     1      -5.670  13.196  23.646  0.00  0.00    +0.000 A 
ATOM     26  C   UNL     1      -6.952  12.733  23.936  0.00  0.00    +0.000 A 
ATOM     27  C   UNL     1      -7.720  12.140  22.934  0.00  0.00    +0.000 A 
ATOM     28  C   UNL     1      -7.210  12.023  21.640  0.00  0.00    +0.000 A 
ATOM     29  C   UNL     1      -5.941  12.522  21.339  0.00  0.00    +0.000 A 
ENDBRANCH  21  24
ENDBRANCH   1  16
BRANCH   1  30
ATOM     30  C   UNL     1       0.867  14.029  21.027  0.00  0.00    +0.000 A 
ATOM     31  C   UNL     1       1.411  14.901  21.995  0.00  0.00    +0.000 A 
ATOM     32  C   UNL     1       2.434  15.797  21.684  0.00  0.00    +0.000 A 
ATOM     33  C   UNL     1       2.905  15.883  20.382  0.00  0.00    +0.000 A 
ATOM     34  C   UNL     1       2.342  15.063  19.403  0.00  0.00    +0.000 A 
ATOM     35  C   UNL     1       1.336  14.143  19.712  0.00  0.00    +0.000 A 
BRANCH  34  36
ATOM     36  O   UNL     1       2.753  15.153  18.107  0.00  0.00    +0.000 OA
ATOM     37  H   UNL     1       3.528  15.738  18.071  0.00  0.00    +0.000 HD
ENDBRANCH  34  36
ENDBRANCH   1  30
TORSDOF 6
ENDMDL
MODEL 9
REMARK VINA RESULT:      -7.5      2.539      8.007
REMARK  Name = 
REMARK  10 active torsions:
REMARK  status: ('A' for Active; 'I' for Inactive)
REMARK    1  A    between atoms: C_1  and  C_2
REMARK    2  A    between atoms: C_3  and  C_4
REMARK    3  A    between atoms: C_4  and  C_5
REMARK    4  A    between atoms: C_4  and  C_12
REMARK    5  A    between atoms: C_9  and  O_10
REMARK    6  A    between atoms: C_13  and  C_14
REMARK    7  A    between atoms: N_15  and  C_16
REMARK    8  A    between atoms: N_17  and  C_18
REMARK    9  A    between atoms: N_28  and  C_29
REMARK   10  A    between atoms: N_35  and  C_36
REMARK                            x       y       z     vdW  Elec       q    Type
REMARK                         _______ _______ _______ _____ _____    ______ ____
ROOT
ATOM      1  C   UNL     1      -0.010  13.173  22.092  0.00  0.00    +0.000 C 
ENDROOT
BRANCH   1   4
ATOM      2  C   UNL     1      -1.549  15.534  20.355  0.00  0.00    +0.000 C 
ATOM      3  C   UNL     1      -0.122  15.462  20.795  0.00  0.00    +0.000 A 
ATOM      4  C   UNL     1       0.496  14.456  21.454  0.00  0.00    +0.000 A 
ATOM      5  C   UNL     1       1.930  14.891  21.531  0.00  0.00    +0.000 A 
ATOM      6  O   UNL     1       2.810  14.289  22.129  0.00  0.00    +0.000 OA
ATOM      7  N   UNL     1       2.027  16.108  20.846  0.00  0.00    +0.000 N 
ATOM      8  N   UNL     1       0.729  16.542  20.546  0.00  0.00    +0.000 N 
ATOM      9  C   UNL     1       0.536  17.501  19.464  0.00  0.00    +0.000 C 
BRANCH   7  10
ATOM     10  C   UNL     1       3.114  16.991  20.999  0.00  0.00    +0.000 A 
ATOM     11  C   UNL     1       3.132  17.854  22.101  0.00  0.00    +0.000 A 
ATOM     12  C   UNL     1       4.260  18.631  22.370  0.00  0.00    +0.000 A 
ATOM     13  C   UNL     1       5.360  18.583  21.515  0.00  0.00    +0.000 A 
ATOM     14  C   UNL     1       5.329  17.769  20.384  0.00  0.00    +0.000 A 
ATOM     15  C   UNL     1       4.212  16.971  20.130  0.00  0.00    +0.000 A 
ENDBRANCH   7  10
ENDBRANCH   1   4
BRANCH   1  16
ATOM     16  C   UNL     1      -0.214  12.047  21.084  0.00  0.00    +0.000 A 
ATOM     17  C   UNL     1      -1.063  11.810  20.052  0.00  0.00    +0.000 A 
ATOM     18  C   UNL     1      -2.355  12.499  19.735  0.00  0.00    +0.000 C 
ATOM     19  N   UNL     1      -0.602  10.780  19.227  0.00  0.00    +0.000 N 
ATOM     20  C   UNL     1      -1.351  10.062  18.209  0.00  0.00    +0.000 C 
ATOM     21  N   UNL     1       0.368  10.096  19.955  0.00  0.00    +0.000 N 
ATOM     22  C   UNL     1       0.648  10.815  21.114  0.00  0.00    +0.000 A 
ATOM     23  O   UNL     1       1.415  10.525  22.018  0.00  0.00    +0.000 OA
BRANCH  21  24
ATOM     24  C   UNL     1       1.188   9.086  19.434  0.00  0.00    +0.000 A 
ATOM     25  C   UNL     1       1.748   9.265  18.166  0.00  0.00    +0.000 A 
ATOM     26  C   UNL     1       2.603   8.302  17.632  0.00  0.00    +0.000 A 
ATOM     27  C   UNL     1       2.865   7.134  18.345  0.00  0.00    +0.000 A 
ATOM     28  C   UNL     1       2.282   6.935  19.598  0.00  0.00    +0.000 A 
ATOM     29  C   UNL     1       1.458   7.916  20.152  0.00  0.00    +0.000 A 
ENDBRANCH  21  24
ENDBRANCH   1  16
BRANCH   1  30
ATOM     30  C   UNL     1      -1.239  13.470  22.971  0.00  0.00    +0.000 A 
ATOM     31  C   UNL     1      -1.349  14.673  23.701  0.00  0.00    +0.000 A 
ATOM     32  C   UNL     1      -2.473  14.961  24.476  0.00  0.00    +0.000 A 
ATOM     33  C   UNL     1      -3.496  14.030  24.585  0.00  0.00    +0.000 A 
ATOM     34  C   UNL     1      -3.378  12.815  23.908  0.00  0.00    +0.000 A 
ATOM     35  C   UNL     1      -2.269  12.529  23.108  0.00  0.00    +0.000 A 
BRANCH  34  36
ATOM     36  O   UNL     1      -4.346  11.862  24.028  0.00  0.00    +0.000 OA
ATOM     37  H   UNL     1      -4.400  11.374  23.190  0.00  0.00    +0.000 HD
ENDBRANCH  34  36
ENDBRANCH   1  30
TORSDOF 6
ENDMDL
