MODEL 1
REMARK VINA RESULT:      -6.1      0.000      0.000
REMARK  Name = 
REMARK  7 active torsions:
REMARK  status: ('A' for Active; 'I' for Inactive)
REMARK    1  A    between atoms: N_1  and  C_2
REMARK    2  A    between atoms: C_2  and  C_3
REMARK    3  A    between atoms: C_2  and  C_11
REMARK    4  A    between atoms: C_3  and  C_4
REMARK    5  A    between atoms: C_7  and  O_8
REMARK    6  A    between atoms: C_11  and  N_13
REMARK    7  A    between atoms: N_13  and  O_14
REMARK                            x       y       z     vdW  Elec       q    Type
REMARK                         _______ _______ _______ _____ _____    ______ ____
ROOT
ATOM      1  C   UNL     1       5.357   6.171  17.666  0.00  0.00    +0.000 C 
ENDROOT
BRANCH   1   2
ATOM      2  N   UNL     1       6.191   7.039  16.798  0.00  0.00    +0.000 NA
ATOM      3  H   UNL     1       6.827   7.575  17.394  0.00  0.00    +0.000 HD
ATOM      4  H   UNL     1       5.591   7.735  16.352  0.00  0.00    +0.000 HD
ENDBRANCH   1   2
BRANCH   1   5
ATOM      5  C   UNL     1       5.798   4.709  17.387  0.00  0.00    +0.000 C 
ATOM      6  S   UNL     1       5.770   3.968  15.880  0.00  0.00    +0.000 S 
BRANCH   5   7
ATOM      7  N   UNL     1       6.230   4.061  18.530  0.00  0.00    +0.000 N 
ATOM      8  H   UNL     1       7.229   3.912  18.659  0.00  0.00    +0.000 HD
BRANCH   7   9
ATOM      9  O   UNL     1       5.376   3.150  19.186  0.00  0.00    +0.000 OA
ATOM     10  H   UNL     1       4.771   3.733  19.690  0.00  0.00    +0.000 HD
ENDBRANCH   7   9
ENDBRANCH   5   7
ENDBRANCH   1   5
BRANCH   1  11
ATOM     11  C   UNL     1       3.845   6.445  17.510  0.00  0.00    +0.000 C 
BRANCH  11  12
ATOM     12  C   UNL     1       2.947   5.576  18.363  0.00  0.00    +0.000 A 
ATOM     13  C   UNL     1       2.149   4.584  17.772  0.00  0.00    +0.000 A 
ATOM     14  C   UNL     1       1.351   3.751  18.561  0.00  0.00    +0.000 A 
ATOM     15  C   UNL     1       1.358   3.907  19.942  0.00  0.00    +0.000 A 
ATOM     16  C   UNL     1       2.136   4.888  20.544  0.00  0.00    +0.000 A 
ATOM     17  C   UNL     1       2.926   5.726  19.756  0.00  0.00    +0.000 A 
BRANCH  15  18
ATOM     18  O   UNL     1       0.610   3.103  20.751  0.00  0.00    +0.000 OA
ATOM     19  H   UNL     1      -0.026   3.654  21.234  0.00  0.00    +0.000 HD
ENDBRANCH  15  18
ENDBRANCH  11  12
ENDBRANCH   1  11
TORSDOF 7
ENDMDL
MODEL 2
REMARK VINA RESULT:      -6.1      1.833      2.150
REMARK  Name = 
REMARK  7 active torsions:
REMARK  status: ('A' for Active; 'I' for Inactive)
REMARK    1  A    between atoms: N_1  and  C_2
REMARK    2  A    between atoms: C_2  and  C_3
REMARK    3  A    between atoms: C_2  and  C_11
REMARK    4  A    between atoms: C_3  and  C_4
REMARK    5  A    between atoms: C_7  and  O_8
REMARK    6  A    between atoms: C_11  and  N_13
REMARK    7  A    between atoms: N_13  and  O_14
REMARK                            x       y       z     vdW  Elec       q    Type
REMARK                         _______ _______ _______ _____ _____    ______ ____
ROOT
ATOM      1  C   UNL     1       5.508   4.083  16.752  0.00  0.00    +0.000 C 
ENDROOT
BRANCH   1   2
ATOM      2  N   UNL     1       6.344   4.052  17.978  0.00  0.00    +0.000 NA
ATOM      3  H   UNL     1       5.900   3.428  18.655  0.00  0.00    +0.000 HD
ATOM      4  H   UNL     1       6.326   4.977  18.413  0.00  0.00    +0.000 HD
ENDBRANCH   1   2
BRANCH   1   5
ATOM      5  C   UNL     1       6.466   4.382  15.568  0.00  0.00    +0.000 C 
ATOM      6  S   UNL     1       6.169   3.973  13.966  0.00  0.00    +0.000 S 
BRANCH   5   7
ATOM      7  N   UNL     1       7.615   5.036  15.971  0.00  0.00    +0.000 N 
ATOM      8  H   UNL     1       8.348   4.499  16.433  0.00  0.00    +0.000 HD
BRANCH   7   9
ATOM      9  O   UNL     1       7.570   6.413  16.276  0.00  0.00    +0.000 OA
ATOM     10  H   UNL     1       6.999   6.780  15.570  0.00  0.00    +0.000 HD
ENDBRANCH   7   9
ENDBRANCH   5   7
ENDBRANCH   1   5
BRANCH   1  11
ATOM     11  C   UNL     1       4.297   5.033  16.877  0.00  0.00    +0.000 C 
BRANCH  11  12
ATOM     12  C   UNL     1       3.197   4.550  17.797  0.00  0.00    +0.000 A 
ATOM     13  C   UNL     1       2.448   3.409  17.471  0.00  0.00    +0.000 A 
ATOM     14  C   UNL     1       1.462   2.934  18.339  0.00  0.00    +0.000 A 
ATOM     15  C   UNL     1       1.229   3.600  19.537  0.00  0.00    +0.000 A 
ATOM     16  C   UNL     1       1.955   4.735  19.874  0.00  0.00    +0.000 A 
ATOM     17  C   UNL     1       2.935   5.214  19.003  0.00  0.00    +0.000 A 
BRANCH  15  18
ATOM     18  O   UNL     1       0.289   3.160  20.422  0.00  0.00    +0.000 OA
ATOM     19  H   UNL     1       0.559   2.289  20.755  0.00  0.00    +0.000 HD
ENDBRANCH  15  18
ENDBRANCH  11  12
ENDBRANCH   1  11
TORSDOF 7
ENDMDL
MODEL 3
REMARK VINA RESULT:      -6.0      1.875      2.087
REMARK  Name = 
REMARK  7 active torsions:
REMARK  status: ('A' for Active; 'I' for Inactive)
REMARK    1  A    between atoms: N_1  and  C_2
REMARK    2  A    between atoms: C_2  and  C_3
REMARK    3  A    between atoms: C_2  and  C_11
REMARK    4  A    between atoms: C_3  and  C_4
REMARK    5  A    between atoms: C_7  and  O_8
REMARK    6  A    between atoms: C_11  and  N_13
REMARK    7  A    between atoms: N_13  and  O_14
REMARK                            x       y       z     vdW  Elec       q    Type
REMARK                         _______ _______ _______ _____ _____    ______ ____
ROOT
ATOM      1  C   UNL     1       6.066   4.886  17.779  0.00  0.00    +0.000 C 
ENDROOT
BRANCH   1   2
ATOM      2  N   UNL     1       5.932   3.810  18.792  0.00  0.00    +0.000 NA
ATOM      3  H   UNL     1       6.562   3.046  18.536  0.00  0.00    +0.000 HD
ATOM      4  H   UNL     1       4.992   3.414  18.731  0.00  0.00    +0.000 HD
ENDBRANCH   1   2
BRANCH   1   5
ATOM      5  C   UNL     1       7.248   5.782  18.236  0.00  0.00    +0.000 C 
ATOM      6  S   UNL     1       7.535   7.345  17.690  0.00  0.00    +0.000 S 
BRANCH   5   7
ATOM      7  N   UNL     1       8.060   5.153  19.161  0.00  0.00    +0.000 N 
ATOM      8  H   UNL     1       8.412   4.220  18.949  0.00  0.00    +0.000 HD
BRANCH   7   9
ATOM      9  O   UNL     1       7.951   5.479  20.529  0.00  0.00    +0.000 OA
ATOM     10  H   UNL     1       8.521   6.270  20.617  0.00  0.00    +0.000 HD
ENDBRANCH   7   9
ENDBRANCH   5   7
ENDBRANCH   1   5
BRANCH   1  11
ATOM     11  C   UNL     1       4.738   5.629  17.516  0.00  0.00    +0.000 C 
BRANCH  11  12
ATOM     12  C   UNL     1       3.533   5.056  18.231  0.00  0.00    +0.000 A 
ATOM     13  C   UNL     1       2.743   4.073  17.616  0.00  0.00    +0.000 A 
ATOM     14  C   UNL     1       1.656   3.510  18.290  0.00  0.00    +0.000 A 
ATOM     15  C   UNL     1       1.363   3.928  19.583  0.00  0.00    +0.000 A 
ATOM     16  C   UNL     1       2.130   4.906  20.206  0.00  0.00    +0.000 A 
ATOM     17  C   UNL     1       3.211   5.474  19.529  0.00  0.00    +0.000 A 
BRANCH  15  18
ATOM     18  O   UNL     1       0.324   3.392  20.284  0.00  0.00    +0.000 OA
ATOM     19  H   UNL     1       0.076   4.009  20.991  0.00  0.00    +0.000 HD
ENDBRANCH  15  18
ENDBRANCH  11  12
ENDBRANCH   1  11
TORSDOF 7
ENDMDL
MODEL 4
REMARK VINA RESULT:      -6.0      1.902      2.457
REMARK  Name = 
REMARK  7 active torsions:
REMARK  status: ('A' for Active; 'I' for Inactive)
REMARK    1  A    between atoms: N_1  and  C_2
REMARK    2  A    between atoms: C_2  and  C_3
REMARK    3  A    between atoms: C_2  and  C_11
REMARK    4  A    between atoms: C_3  and  C_4
REMARK    5  A    between atoms: C_7  and  O_8
REMARK    6  A    between atoms: C_11  and  N_13
REMARK    7  A    between atoms: N_13  and  O_14
REMARK                            x       y       z     vdW  Elec       q    Type
REMARK                         _______ _______ _______ _____ _____    ______ ____
ROOT
ATOM      1  C   UNL     1       5.882   5.026  17.991  0.00  0.00    +0.000 C 
ENDROOT
BRANCH   1   2
ATOM      2  N   UNL     1       5.904   3.839  18.882  0.00  0.00    +0.000 NA
ATOM      3  H   UNL     1       5.292   4.024  19.680  0.00  0.00    +0.000 HD
ATOM      4  H   UNL     1       6.841   3.742  19.279  0.00  0.00    +0.000 HD
ENDBRANCH   1   2
BRANCH   1   5
ATOM      5  C   UNL     1       7.166   5.841  18.305  0.00  0.00    +0.000 C 
ATOM      6  S   UNL     1       7.516   7.360  17.678  0.00  0.00    +0.000 S 
BRANCH   5   7
ATOM      7  N   UNL     1       8.011   5.179  19.176  0.00  0.00    +0.000 N 
ATOM      8  H   UNL     1       8.324   4.239  18.935  0.00  0.00    +0.000 HD
BRANCH   7   9
ATOM      9  O   UNL     1       7.989   5.492  20.551  0.00  0.00    +0.000 OA
ATOM     10  H   UNL     1       8.040   4.613  20.982  0.00  0.00    +0.000 HD
ENDBRANCH   7   9
ENDBRANCH   5   7
ENDBRANCH   1   5
BRANCH   1  11
ATOM     11  C   UNL     1       4.560   5.818  18.081  0.00  0.00    +0.000 C 
BRANCH  11  12
ATOM     12  C   UNL     1       3.373   5.024  18.581  0.00  0.00    +0.000 A 
ATOM     13  C   UNL     1       2.958   5.131  19.918  0.00  0.00    +0.000 A 
ATOM     14  C   UNL     1       1.836   4.433  20.372  0.00  0.00    +0.000 A 
ATOM     15  C   UNL     1       1.125   3.633  19.485  0.00  0.00    +0.000 A 
ATOM     16  C   UNL     1       1.523   3.509  18.160  0.00  0.00    +0.000 A 
ATOM     17  C   UNL     1       2.650   4.200  17.709  0.00  0.00    +0.000 A 
BRANCH  15  18
ATOM     18  O   UNL     1       0.013   2.950  19.881  0.00  0.00    +0.000 OA
ATOM     19  H   UNL     1      -0.385   2.526  19.104  0.00  0.00    +0.000 HD
ENDBRANCH  15  18
ENDBRANCH  11  12
ENDBRANCH   1  11
TORSDOF 7
ENDMDL
MODEL 5
REMARK VINA RESULT:      -6.0      2.279      2.505
REMARK  Name = 
REMARK  7 active torsions:
REMARK  status: ('A' for Active; 'I' for Inactive)
REMARK    1  A    between atoms: N_1  and  C_2
REMARK    2  A    between atoms: C_2  and  C_3
REMARK    3  A    between atoms: C_2  and  C_11
REMARK    4  A    between atoms: C_3  and  C_4
REMARK    5  A    between atoms: C_7  and  O_8
REMARK    6  A    between atoms: C_11  and  N_13
REMARK    7  A    between atoms: N_13  and  O_14
REMARK                            x       y       z     vdW  Elec       q    Type
REMARK                         _______ _______ _______ _____ _____    ______ ____
ROOT
ATOM      1  C   UNL     1       5.366   5.548  16.778  0.00  0.00    +0.000 C 
ENDROOT
BRANCH   1   2
ATOM      2  N   UNL     1       5.237   6.543  15.684  0.00  0.00    +0.000 NA
ATOM      3  H   UNL     1       4.593   7.276  15.989  0.00  0.00    +0.000 HD
ATOM      4  H   UNL     1       4.779   6.098  14.886  0.00  0.00    +0.000 HD
ENDBRANCH   1   2
BRANCH   1   5
ATOM      5  C   UNL     1       6.878   5.455  17.118  0.00  0.00    +0.000 C 
ATOM      6  S   UNL     1       7.589   6.075  18.508  0.00  0.00    +0.000 S 
BRANCH   5   7
ATOM      7  N   UNL     1       7.599   4.793  16.141  0.00  0.00    +0.000 N 
ATOM      8  H   UNL     1       8.366   4.186  16.427  0.00  0.00    +0.000 HD
BRANCH   7   9
ATOM      9  O   UNL     1       7.689   5.338  14.843  0.00  0.00    +0.000 OA
ATOM     10  H   UNL     1       8.014   4.585  14.307  0.00  0.00    +0.000 HD
ENDBRANCH   7   9
ENDBRANCH   5   7
ENDBRANCH   1   5
BRANCH   1  11
ATOM     11  C   UNL     1       4.681   4.204  16.449  0.00  0.00    +0.000 C 
BRANCH  11  12
ATOM     12  C   UNL     1       3.519   3.842  17.349  0.00  0.00    +0.000 A 
ATOM     13  C   UNL     1       3.323   2.514  17.757  0.00  0.00    +0.000 A 
ATOM     14  C   UNL     1       2.278   2.183  18.623  0.00  0.00    +0.000 A 
ATOM     15  C   UNL     1       1.432   3.184  19.085  0.00  0.00    +0.000 A 
ATOM     16  C   UNL     1       1.605   4.503  18.687  0.00  0.00    +0.000 A 
ATOM     17  C   UNL     1       2.644   4.833  17.815  0.00  0.00    +0.000 A 
BRANCH  15  18
ATOM     18  O   UNL     1       0.411   2.908  19.947  0.00  0.00    +0.000 OA
ATOM     19  H   UNL     1       0.788   2.671  20.809  0.00  0.00    +0.000 HD
ENDBRANCH  15  18
ENDBRANCH  11  12
ENDBRANCH   1  11
TORSDOF 7
ENDMDL
MODEL 6
REMARK VINA RESULT:      -5.9      1.937      2.196
REMARK  Name = 
REMARK  7 active torsions:
REMARK  status: ('A' for Active; 'I' for Inactive)
REMARK    1  A    between atoms: N_1  and  C_2
REMARK    2  A    between atoms: C_2  and  C_3
REMARK    3  A    between atoms: C_2  and  C_11
REMARK    4  A    between atoms: C_3  and  C_4
REMARK    5  A    between atoms: C_7  and  O_8
REMARK    6  A    between atoms: C_11  and  N_13
REMARK    7  A    between atoms: N_13  and  O_14
REMARK                            x       y       z     vdW  Elec       q    Type
REMARK                         _______ _______ _______ _____ _____    ______ ____
ROOT
ATOM      1  C   UNL     1       5.337   5.398  16.609  0.00  0.00    +0.000 C 
ENDROOT
BRANCH   1   2
ATOM      2  N   UNL     1       5.632   5.921  15.252  0.00  0.00    +0.000 NA
ATOM      3  H   UNL     1       6.212   5.236  14.761  0.00  0.00    +0.000 HD
ATOM      4  H   UNL     1       6.217   6.754  15.339  0.00  0.00    +0.000 HD
ENDBRANCH   1   2
BRANCH   1   5
ATOM      5  C   UNL     1       6.610   5.639  17.464  0.00  0.00    +0.000 C 
ATOM      6  S   UNL     1       7.364   7.126  17.665  0.00  0.00    +0.000 S 
BRANCH   5   7
ATOM      7  N   UNL     1       7.072   4.480  18.061  0.00  0.00    +0.000 N 
ATOM      8  H   UNL     1       6.734   4.242  18.993  0.00  0.00    +0.000 HD
BRANCH   7   9
ATOM      9  O   UNL     1       8.336   3.963  17.708  0.00  0.00    +0.000 OA
ATOM     10  H   UNL     1       8.832   4.759  17.424  0.00  0.00    +0.000 HD
ENDBRANCH   7   9
ENDBRANCH   5   7
ENDBRANCH   1   5
BRANCH   1  11
ATOM     11  C   UNL     1       4.821   3.943  16.590  0.00  0.00    +0.000 C 
BRANCH  11  12
ATOM     12  C   UNL     1       3.617   3.680  17.469  0.00  0.00    +0.000 A 
ATOM     13  C   UNL     1       3.296   2.372  17.863  0.00  0.00    +0.000 A 
ATOM     14  C   UNL     1       2.212   2.130  18.710  0.00  0.00    +0.000 A 
ATOM     15  C   UNL     1       1.451   3.200  19.167  0.00  0.00    +0.000 A 
ATOM     16  C   UNL     1       1.748   4.502  18.782  0.00  0.00    +0.000 A 
ATOM     17  C   UNL     1       2.827   4.742  17.929  0.00  0.00    +0.000 A 
BRANCH  15  18
ATOM     18  O   UNL     1       0.396   3.012  20.010  0.00  0.00    +0.000 OA
ATOM     19  H   UNL     1      -0.246   3.726  19.869  0.00  0.00    +0.000 HD
ENDBRANCH  15  18
ENDBRANCH  11  12
ENDBRANCH   1  11
TORSDOF 7
ENDMDL
MODEL 7
REMARK VINA RESULT:      -5.9      3.150      5.030
REMARK  Name = 
REMARK  7 active torsions:
REMARK  status: ('A' for Active; 'I' for Inactive)
REMARK    1  A    between atoms: N_1  and  C_2
REMARK    2  A    between atoms: C_2  and  C_3
REMARK    3  A    between atoms: C_2  and  C_11
REMARK    4  A    between atoms: C_3  and  C_4
REMARK    5  A    between atoms: C_7  and  O_8
REMARK    6  A    between atoms: C_11  and  N_13
REMARK    7  A    between atoms: N_13  and  O_14
REMARK                            x       y       z     vdW  Elec       q    Type
REMARK                         _______ _______ _______ _____ _____    ______ ____
ROOT
ATOM      1  C   UNL     1       2.831   2.423  18.370  0.00  0.00    +0.000 C 
ENDROOT
BRANCH   1   2
ATOM      2  N   UNL     1       1.584   1.633  18.523  0.00  0.00    +0.000 NA
ATOM      3  H   UNL     1       1.071   1.667  17.639  0.00  0.00    +0.000 HD
ATOM      4  H   UNL     1       0.980   2.099  19.202  0.00  0.00    +0.000 HD
ENDBRANCH   1   2
BRANCH   1   5
ATOM      5  C   UNL     1       3.451   2.554  19.787  0.00  0.00    +0.000 C 
ATOM      6  S   UNL     1       2.585   2.896  21.186  0.00  0.00    +0.000 S 
BRANCH   5   7
ATOM      7  N   UNL     1       4.819   2.352  19.786  0.00  0.00    +0.000 N 
ATOM      8  H   UNL     1       5.396   2.915  19.162  0.00  0.00    +0.000 HD
BRANCH   7   9
ATOM      9  O   UNL     1       5.344   1.095  20.151  0.00  0.00    +0.000 OA
ATOM     10  H   UNL     1       5.804   1.281  20.995  0.00  0.00    +0.000 HD
ENDBRANCH   7   9
ENDBRANCH   5   7
ENDBRANCH   1   5
BRANCH   1  11
ATOM     11  C   UNL     1       2.607   3.756  17.623  0.00  0.00    +0.000 C 
BRANCH  11  12
ATOM     12  C   UNL     1       3.872   4.468  17.193  0.00  0.00    +0.000 A 
ATOM     13  C   UNL     1       4.073   5.818  17.519  0.00  0.00    +0.000 A 
ATOM     14  C   UNL     1       5.258   6.466  17.162  0.00  0.00    +0.000 A 
ATOM     15  C   UNL     1       6.245   5.761  16.483  0.00  0.00    +0.000 A 
ATOM     16  C   UNL     1       6.061   4.426  16.146  0.00  0.00    +0.000 A 
ATOM     17  C   UNL     1       4.873   3.780  16.495  0.00  0.00    +0.000 A 
BRANCH  15  18
ATOM     18  O   UNL     1       7.424   6.349  16.133  0.00  0.00    +0.000 OA
ATOM     19  H   UNL     1       7.776   5.897  15.350  0.00  0.00    +0.000 HD
ENDBRANCH  15  18
ENDBRANCH  11  12
ENDBRANCH   1  11
TORSDOF 7
ENDMDL
MODEL 8
REMARK VINA RESULT:      -5.9      2.151      2.599
REMARK  Name = 
REMARK  7 active torsions:
REMARK  status: ('A' for Active; 'I' for Inactive)
REMARK    1  A    between atoms: N_1  and  C_2
REMARK    2  A    between atoms: C_2  and  C_3
REMARK    3  A    between atoms: C_2  and  C_11
REMARK    4  A    between atoms: C_3  and  C_4
REMARK    5  A    between atoms: C_7  and  O_8
REMARK    6  A    between atoms: C_11  and  N_13
REMARK    7  A    between atoms: N_13  and  O_14
REMARK                            x       y       z     vdW  Elec       q    Type
REMARK                         _______ _______ _______ _____ _____    ______ ____
ROOT
ATOM      1  C   UNL     1       6.286   4.383  17.509  0.00  0.00    +0.000 C 
ENDROOT
BRANCH   1   2
ATOM      2  N   UNL     1       7.595   4.439  18.208  0.00  0.00    +0.000 NA
ATOM      3  H   UNL     1       7.544   5.162  18.929  0.00  0.00    +0.000 HD
ATOM      4  H   UNL     1       8.306   4.764  17.550  0.00  0.00    +0.000 HD
ENDBRANCH   1   2
BRANCH   1   5
ATOM      5  C   UNL     1       6.513   4.978  16.093  0.00  0.00    +0.000 C 
ATOM      6  S   UNL     1       5.639   4.554  14.722  0.00  0.00    +0.000 S 
BRANCH   5   7
ATOM      7  N   UNL     1       7.528   5.917  16.072  0.00  0.00    +0.000 N 
ATOM      8  H   UNL     1       8.491   5.594  15.997  0.00  0.00    +0.000 HD
BRANCH   7   9
ATOM      9  O   UNL     1       7.339   7.170  16.692  0.00  0.00    +0.000 OA
ATOM     10  H   UNL     1       6.365   7.244  16.755  0.00  0.00    +0.000 HD
ENDBRANCH   7   9
ENDBRANCH   5   7
ENDBRANCH   1   5
BRANCH   1  11
ATOM     11  C   UNL     1       5.145   5.032  18.322  0.00  0.00    +0.000 C 
BRANCH  11  12
ATOM     12  C   UNL     1       3.863   4.230  18.376  0.00  0.00    +0.000 A 
ATOM     13  C   UNL     1       2.669   4.762  17.865  0.00  0.00    +0.000 A 
ATOM     14  C   UNL     1       1.493   4.008  17.874  0.00  0.00    +0.000 A 
ATOM     15  C   UNL     1       1.514   2.717  18.389  0.00  0.00    +0.000 A 
ATOM     16  C   UNL     1       2.684   2.175  18.906  0.00  0.00    +0.000 A 
ATOM     17  C   UNL     1       3.857   2.932  18.905  0.00  0.00    +0.000 A 
BRANCH  15  18
ATOM     18  O   UNL     1       0.394   1.939  18.399  0.00  0.00    +0.000 OA
ATOM     19  H   UNL     1       0.577   1.137  18.914  0.00  0.00    +0.000 HD
ENDBRANCH  15  18
ENDBRANCH  11  12
ENDBRANCH   1  11
TORSDOF 7
ENDMDL
MODEL 9
REMARK VINA RESULT:      -5.9      0.625      1.435
REMARK  Name = 
REMARK  7 active torsions:
REMARK  status: ('A' for Active; 'I' for Inactive)
REMARK    1  A    between atoms: N_1  and  C_2
REMARK    2  A    between atoms: C_2  and  C_3
REMARK    3  A    between atoms: C_2  and  C_11
REMARK    4  A    between atoms: C_3  and  C_4
REMARK    5  A    between atoms: C_7  and  O_8
REMARK    6  A    between atoms: C_11  and  N_13
REMARK    7  A    between atoms: N_13  and  O_14
REMARK                            x       y       z     vdW  Elec       q    Type
REMARK                         _______ _______ _______ _____ _____    ______ ____
ROOT
ATOM      1  C   UNL     1       5.456   6.245  17.632  0.00  0.00    +0.000 C 
ENDROOT
BRANCH   1   2
ATOM      2  N   UNL     1       6.277   7.085  16.724  0.00  0.00    +0.000 NA
ATOM      3  H   UNL     1       6.220   6.691  15.782  0.00  0.00    +0.000 HD
ATOM      4  H   UNL     1       7.259   6.999  16.993  0.00  0.00    +0.000 HD
ENDBRANCH   1   2
BRANCH   1   5
ATOM      5  C   UNL     1       5.912   4.777  17.413  0.00  0.00    +0.000 C 
ATOM      6  S   UNL     1       5.836   3.957  15.948  0.00  0.00    +0.000 S 
BRANCH   5   7
ATOM      7  N   UNL     1       6.403   4.199  18.568  0.00  0.00    +0.000 N 
ATOM      8  H   UNL     1       6.232   3.207  18.729  0.00  0.00    +0.000 HD
BRANCH   7   9
ATOM      9  O   UNL     1       6.604   4.988  19.720  0.00  0.00    +0.000 OA
ATOM     10  H   UNL     1       6.254   4.426  20.441  0.00  0.00    +0.000 HD
ENDBRANCH   7   9
ENDBRANCH   5   7
ENDBRANCH   1   5
BRANCH   1  11
ATOM     11  C   UNL     1       3.941   6.495  17.472  0.00  0.00    +0.000 C 
BRANCH  11  12
ATOM     12  C   UNL     1       3.053   5.596  18.306  0.00  0.00    +0.000 A 
ATOM     13  C   UNL     1       2.958   5.780  19.693  0.00  0.00    +0.000 A 
ATOM     14  C   UNL     1       2.106   4.981  20.460  0.00  0.00    +0.000 A 
ATOM     15  C   UNL     1       1.344   4.000  19.835  0.00  0.00    +0.000 A 
ATOM     16  C   UNL     1       1.430   3.798  18.463  0.00  0.00    +0.000 A 
ATOM     17  C   UNL     1       2.288   4.591  17.698  0.00  0.00    +0.000 A 
BRANCH  15  18
ATOM     18  O   UNL     1       0.486   3.210  20.541  0.00  0.00    +0.000 OA
ATOM     19  H   UNL     1       0.600   2.291  20.252  0.00  0.00    +0.000 HD
ENDBRANCH  15  18
ENDBRANCH  11  12
ENDBRANCH   1  11
TORSDOF 7
ENDMDL
