MODEL 1
REMARK VINA RESULT:      -6.9      0.000      0.000
REMARK  Name = 
REMARK  9 active torsions:
REMARK  status: ('A' for Active; 'I' for Inactive)
REMARK    1  A    between atoms: C_1  and  C_2
REMARK    2  A    between atoms: C_2  and  C_3
REMARK    3  A    between atoms: C_4  and  C_5
REMARK    4  A    between atoms: C_5  and  C_6
REMARK    5  A    between atoms: C_7  and  O_8
REMARK    6  A    between atoms: C_10  and  O_11
REMARK    7  A    between atoms: C_15  and  C_16
REMARK    8  A    between atoms: C_19  and  O_20
REMARK    9  A    between atoms: C_23  and  O_24
REMARK                            x       y       z     vdW  Elec       q    Type
REMARK                         _______ _______ _______ _____ _____    ______ ____
ROOT
ATOM      1  C   UNL     1       1.597   8.447  19.320  0.00  0.00    +0.000 A 
ATOM      2  C   UNL     1       1.618   7.637  20.462  0.00  0.00    +0.000 A 
ATOM      3  C   UNL     1       1.289   8.151  21.718  0.00  0.00    +0.000 A 
ATOM      4  C   UNL     1       0.966   9.499  21.867  0.00  0.00    +0.000 A 
ATOM      5  C   UNL     1       0.935  10.339  20.752  0.00  0.00    +0.000 A 
ATOM      6  C   UNL     1       1.210   9.797  19.481  0.00  0.00    +0.000 A 
ATOM      7  O   UNL     1       1.010  10.492  18.309  0.00  0.00    +0.000 OA
ATOM      8  C   UNL     1       0.204  11.679  18.403  0.00  0.00    +0.000 C 
ATOM      9  C   UNL     1       0.732  12.560  19.540  0.00  0.00    +0.000 C 
ATOM     10  C   UNL     1       0.554  11.776  20.830  0.00  0.00    +0.000 C 
ATOM     11  O   UNL     1       0.097  12.313  21.835  0.00  0.00    +0.000 OA
ENDROOT
BRANCH   8  12
ATOM     12  C   UNL     1      -1.307  11.408  18.438  0.00  0.00    +0.000 A 
ATOM     13  C   UNL     1      -2.228  12.218  19.128  0.00  0.00    +0.000 A 
ATOM     14  C   UNL     1      -3.604  11.993  19.048  0.00  0.00    +0.000 A 
ATOM     15  C   UNL     1      -4.079  10.927  18.300  0.00  0.00    +0.000 A 
ATOM     16  C   UNL     1      -3.197  10.083  17.640  0.00  0.00    +0.000 A 
ATOM     17  C   UNL     1      -1.820  10.325  17.703  0.00  0.00    +0.000 A 
BRANCH  15  18
ATOM     18  O   UNL     1      -5.415  10.682  18.193  0.00  0.00    +0.000 OA
ATOM     19  H   UNL     1      -5.582  10.222  17.355  0.00  0.00    +0.000 HD
ENDBRANCH  15  18
ENDBRANCH   8  12
BRANCH   2  20
ATOM     20  O   UNL     1       1.933   6.308  20.447  0.00  0.00    +0.000 OA
ATOM     21  H   UNL     1       2.838   6.173  20.127  0.00  0.00    +0.000 HD
ENDBRANCH   2  20
BRANCH   4  22
ATOM     22  O   UNL     1       0.667   9.970  23.111  0.00  0.00    +0.000 OA
ATOM     23  H   UNL     1       1.098  10.826  23.261  0.00  0.00    +0.000 HD
ENDBRANCH   4  22
BRANCH   9  24
ATOM     24  O   UNL     1       0.129  13.849  19.554  0.00  0.00    +0.000 OA
ATOM     25  H   UNL     1      -0.812  13.709  19.326  0.00  0.00    +0.000 HD
ENDBRANCH   9  24
BRANCH   1  26
ATOM     26  C   UNL     1       2.001   7.943  17.947  0.00  0.00    +0.000 C 
BRANCH  26  30
ATOM     27  C   UNL     1       5.657   6.616  17.533  0.00  0.00    +0.000 C 
ATOM     28  C   UNL     1       4.159   6.602  17.664  0.00  0.00    +0.000 C 
ATOM     29  C   UNL     1       3.476   5.270  17.540  0.00  0.00    +0.000 C 
ATOM     30  C   UNL     1       3.496   7.760  17.860  0.00  0.00    +0.000 C 
ENDBRANCH  26  30
ENDBRANCH   1  26
TORSDOF 7
ENDMDL
MODEL 2
REMARK VINA RESULT:      -6.5      3.391      5.880
REMARK  Name = 
REMARK  9 active torsions:
REMARK  status: ('A' for Active; 'I' for Inactive)
REMARK    1  A    between atoms: C_1  and  C_2
REMARK    2  A    between atoms: C_2  and  C_3
REMARK    3  A    between atoms: C_4  and  C_5
REMARK    4  A    between atoms: C_5  and  C_6
REMARK    5  A    between atoms: C_7  and  O_8
REMARK    6  A    between atoms: C_10  and  O_11
REMARK    7  A    between atoms: C_15  and  C_16
REMARK    8  A    between atoms: C_19  and  O_20
REMARK    9  A    between atoms: C_23  and  O_24
REMARK                            x       y       z     vdW  Elec       q    Type
REMARK                         _______ _______ _______ _____ _____    ______ ____
ROOT
ATOM      1  C   UNL     1      -1.965  12.599  21.182  0.00  0.00    +0.000 A 
ATOM      2  C   UNL     1      -1.380  11.889  22.237  0.00  0.00    +0.000 A 
ATOM      3  C   UNL     1      -2.069  11.673  23.432  0.00  0.00    +0.000 A 
ATOM      4  C   UNL     1      -3.349  12.194  23.613  0.00  0.00    +0.000 A 
ATOM      5  C   UNL     1      -3.966  12.909  22.585  0.00  0.00    +0.000 A 
ATOM      6  C   UNL     1      -3.285  13.070  21.361  0.00  0.00    +0.000 A 
ATOM      7  O   UNL     1      -3.884  13.580  20.231  0.00  0.00    +0.000 OA
ATOM      8  C   UNL     1      -5.320  13.643  20.245  0.00  0.00    +0.000 C 
ATOM      9  C   UNL     1      -5.783  14.334  21.532  0.00  0.00    +0.000 C 
ATOM     10  C   UNL     1      -5.347  13.454  22.691  0.00  0.00    +0.000 C 
ATOM     11  O   UNL     1      -6.116  13.206  23.616  0.00  0.00    +0.000 OA
ENDROOT
BRANCH   8  12
ATOM     12  C   UNL     1      -6.009  12.304  19.941  0.00  0.00    +0.000 A 
ATOM     13  C   UNL     1      -5.657  11.477  18.859  0.00  0.00    +0.000 A 
ATOM     14  C   UNL     1      -6.241  10.220  18.680  0.00  0.00    +0.000 A 
ATOM     15  C   UNL     1      -7.214   9.786  19.566  0.00  0.00    +0.000 A 
ATOM     16  C   UNL     1      -7.613  10.595  20.622  0.00  0.00    +0.000 A 
ATOM     17  C   UNL     1      -7.011  11.843  20.812  0.00  0.00    +0.000 A 
BRANCH  15  18
ATOM     18  O   UNL     1      -7.798   8.563  19.427  0.00  0.00    +0.000 OA
ATOM     19  H   UNL     1      -8.111   8.266  20.297  0.00  0.00    +0.000 HD
ENDBRANCH  15  18
ENDBRANCH   8  12
BRANCH   2  20
ATOM     20  O   UNL     1      -0.129  11.344  22.186  0.00  0.00    +0.000 OA
ATOM     21  H   UNL     1      -0.176  10.384  22.062  0.00  0.00    +0.000 HD
ENDBRANCH   2  20
BRANCH   4  22
ATOM     22  O   UNL     1      -3.986  11.978  24.800  0.00  0.00    +0.000 OA
ATOM     23  H   UNL     1      -3.544  12.464  25.513  0.00  0.00    +0.000 HD
ENDBRANCH   4  22
BRANCH   9  24
ATOM     24  O   UNL     1      -7.175  14.633  21.518  0.00  0.00    +0.000 OA
ATOM     25  H   UNL     1      -7.602  13.902  21.028  0.00  0.00    +0.000 HD
ENDBRANCH   9  24
BRANCH   1  26
ATOM     26  C   UNL     1      -1.231  12.905  19.890  0.00  0.00    +0.000 C 
BRANCH  26  30
ATOM     27  C   UNL     1      -2.005  10.131  17.243  0.00  0.00    +0.000 C 
ATOM     28  C   UNL     1      -1.303  10.863  18.355  0.00  0.00    +0.000 C 
ATOM     29  C   UNL     1      -0.118  10.181  18.978  0.00  0.00    +0.000 C 
ATOM     30  C   UNL     1      -1.764  12.064  18.757  0.00  0.00    +0.000 C 
ENDBRANCH  26  30
ENDBRANCH   1  26
TORSDOF 7
ENDMDL
MODEL 3
REMARK VINA RESULT:      -6.4      0.349      1.004
REMARK  Name = 
REMARK  9 active torsions:
REMARK  status: ('A' for Active; 'I' for Inactive)
REMARK    1  A    between atoms: C_1  and  C_2
REMARK    2  A    between atoms: C_2  and  C_3
REMARK    3  A    between atoms: C_4  and  C_5
REMARK    4  A    between atoms: C_5  and  C_6
REMARK    5  A    between atoms: C_7  and  O_8
REMARK    6  A    between atoms: C_10  and  O_11
REMARK    7  A    between atoms: C_15  and  C_16
REMARK    8  A    between atoms: C_19  and  O_20
REMARK    9  A    between atoms: C_23  and  O_24
REMARK                            x       y       z     vdW  Elec       q    Type
REMARK                         _______ _______ _______ _____ _____    ______ ____
ROOT
ATOM      1  C   UNL     1       1.754   8.197  19.190  0.00  0.00    +0.000 A 
ATOM      2  C   UNL     1       1.675   7.333  20.288  0.00  0.00    +0.000 A 
ATOM      3  C   UNL     1       1.272   7.794  21.543  0.00  0.00    +0.000 A 
ATOM      4  C   UNL     1       0.973   9.142  21.737  0.00  0.00    +0.000 A 
ATOM      5  C   UNL     1       1.041  10.035  20.666  0.00  0.00    +0.000 A 
ATOM      6  C   UNL     1       1.390   9.548  19.391  0.00  0.00    +0.000 A 
ATOM      7  O   UNL     1       1.289  10.305  18.245  0.00  0.00    +0.000 OA
ATOM      8  C   UNL     1       0.508  11.508  18.343  0.00  0.00    +0.000 C 
ATOM      9  C   UNL     1       0.977  12.317  19.556  0.00  0.00    +0.000 C 
ATOM     10  C   UNL     1       0.690  11.477  20.790  0.00  0.00    +0.000 C 
ATOM     11  O   UNL     1       0.178  11.978  21.787  0.00  0.00    +0.000 OA
ENDROOT
BRANCH   8  12
ATOM     12  C   UNL     1      -1.008  11.277  18.261  0.00  0.00    +0.000 A 
ATOM     13  C   UNL     1      -1.593  10.166  17.626  0.00  0.00    +0.000 A 
ATOM     14  C   UNL     1      -2.972   9.944  17.664  0.00  0.00    +0.000 A 
ATOM     15  C   UNL     1      -3.792  10.855  18.311  0.00  0.00    +0.000 A 
ATOM     16  C   UNL     1      -3.253  11.984  18.912  0.00  0.00    +0.000 A 
ATOM     17  C   UNL     1      -1.869  12.191  18.893  0.00  0.00    +0.000 A 
BRANCH  15  18
ATOM     18  O   UNL     1      -5.140  10.667  18.375  0.00  0.00    +0.000 OA
ATOM     19  H   UNL     1      -5.330   9.722  18.256  0.00  0.00    +0.000 HD
ENDBRANCH  15  18
ENDBRANCH   8  12
BRANCH   2  20
ATOM     20  O   UNL     1       1.958   5.998  20.228  0.00  0.00    +0.000 OA
ATOM     21  H   UNL     1       1.537   5.592  19.454  0.00  0.00    +0.000 HD
ENDBRANCH   2  20
BRANCH   4  22
ATOM     22  O   UNL     1       0.600   9.561  22.980  0.00  0.00    +0.000 OA
ATOM     23  H   UNL     1       1.359   9.546  23.584  0.00  0.00    +0.000 HD
ENDBRANCH   4  22
BRANCH   9  24
ATOM     24  O   UNL     1       0.407  13.621  19.594  0.00  0.00    +0.000 OA
ATOM     25  H   UNL     1      -0.298  13.587  20.272  0.00  0.00    +0.000 HD
ENDBRANCH   9  24
BRANCH   1  26
ATOM     26  C   UNL     1       2.240   7.749  17.824  0.00  0.00    +0.000 C 
BRANCH  26  30
ATOM     27  C   UNL     1       5.944   6.523  17.541  0.00  0.00    +0.000 C 
ATOM     28  C   UNL     1       4.441   6.471  17.589  0.00  0.00    +0.000 C 
ATOM     29  C   UNL     1       3.797   5.133  17.357  0.00  0.00    +0.000 C 
ATOM     30  C   UNL     1       3.741   7.602  17.809  0.00  0.00    +0.000 C 
ENDBRANCH  26  30
ENDBRANCH   1  26
TORSDOF 7
ENDMDL
MODEL 4
REMARK VINA RESULT:      -6.4      3.665      6.287
REMARK  Name = 
REMARK  9 active torsions:
REMARK  status: ('A' for Active; 'I' for Inactive)
REMARK    1  A    between atoms: C_1  and  C_2
REMARK    2  A    between atoms: C_2  and  C_3
REMARK    3  A    between atoms: C_4  and  C_5
REMARK    4  A    between atoms: C_5  and  C_6
REMARK    5  A    between atoms: C_7  and  O_8
REMARK    6  A    between atoms: C_10  and  O_11
REMARK    7  A    between atoms: C_15  and  C_16
REMARK    8  A    between atoms: C_19  and  O_20
REMARK    9  A    between atoms: C_23  and  O_24
REMARK                            x       y       z     vdW  Elec       q    Type
REMARK                         _______ _______ _______ _____ _____    ______ ____
ROOT
ATOM      1  C   UNL     1      -2.330  13.013  21.510  0.00  0.00    +0.000 A 
ATOM      2  C   UNL     1      -1.685  12.477  22.631  0.00  0.00    +0.000 A 
ATOM      3  C   UNL     1      -2.356  12.321  23.845  0.00  0.00    +0.000 A 
ATOM      4  C   UNL     1      -3.681  12.733  23.977  0.00  0.00    +0.000 A 
ATOM      5  C   UNL     1      -4.359  13.274  22.884  0.00  0.00    +0.000 A 
ATOM      6  C   UNL     1      -3.691  13.372  21.646  0.00  0.00    +0.000 A 
ATOM      7  O   UNL     1      -4.331  13.700  20.472  0.00  0.00    +0.000 OA
ATOM      8  C   UNL     1      -5.766  13.626  20.487  0.00  0.00    +0.000 C 
ATOM      9  C   UNL     1      -6.299  14.400  21.697  0.00  0.00    +0.000 C 
ATOM     10  C   UNL     1      -5.787  13.692  22.940  0.00  0.00    +0.000 C 
ATOM     11  O   UNL     1      -6.532  13.469  23.889  0.00  0.00    +0.000 OA
ENDROOT
BRANCH   8  12
ATOM     12  C   UNL     1      -6.321  12.203  20.328  0.00  0.00    +0.000 A 
ATOM     13  C   UNL     1      -7.323  11.662  21.154  0.00  0.00    +0.000 A 
ATOM     14  C   UNL     1      -7.870  10.400  20.909  0.00  0.00    +0.000 A 
ATOM     15  C   UNL     1      -7.395   9.644  19.850  0.00  0.00    +0.000 A 
ATOM     16  C   UNL     1      -6.379  10.130  19.039  0.00  0.00    +0.000 A 
ATOM     17  C   UNL     1      -5.849  11.404  19.272  0.00  0.00    +0.000 A 
BRANCH  15  18
ATOM     18  O   UNL     1      -7.911   8.413  19.576  0.00  0.00    +0.000 OA
ATOM     19  H   UNL     1      -8.874   8.443  19.699  0.00  0.00    +0.000 HD
ENDBRANCH  15  18
ENDBRANCH   8  12
BRANCH   2  20
ATOM     20  O   UNL     1      -0.387  12.052  22.630  0.00  0.00    +0.000 OA
ATOM     21  H   UNL     1       0.213  12.781  22.412  0.00  0.00    +0.000 HD
ENDBRANCH   2  20
BRANCH   4  22
ATOM     22  O   UNL     1      -4.300  12.582  25.183  0.00  0.00    +0.000 OA
ATOM     23  H   UNL     1      -5.024  13.221  25.274  0.00  0.00    +0.000 HD
ENDBRANCH   4  22
BRANCH   9  24
ATOM     24  O   UNL     1      -7.713  14.561  21.659  0.00  0.00    +0.000 OA
ATOM     25  H   UNL     1      -7.921  14.915  20.771  0.00  0.00    +0.000 HD
ENDBRANCH   9  24
BRANCH   1  26
ATOM     26  C   UNL     1      -1.623  13.252  20.190  0.00  0.00    +0.000 C 
BRANCH  26  30
ATOM     27  C   UNL     1      -1.758  10.094  17.885  0.00  0.00    +0.000 C 
ATOM     28  C   UNL     1      -1.219  11.109  18.856  0.00  0.00    +0.000 C 
ATOM     29  C   UNL     1       0.148  10.851  19.423  0.00  0.00    +0.000 C 
ATOM     30  C   UNL     1      -1.971  12.177  19.191  0.00  0.00    +0.000 C 
ENDBRANCH  26  30
ENDBRANCH   1  26
TORSDOF 7
ENDMDL
MODEL 5
REMARK VINA RESULT:      -6.3      3.260      6.783
REMARK  Name = 
REMARK  9 active torsions:
REMARK  status: ('A' for Active; 'I' for Inactive)
REMARK    1  A    between atoms: C_1  and  C_2
REMARK    2  A    between atoms: C_2  and  C_3
REMARK    3  A    between atoms: C_4  and  C_5
REMARK    4  A    between atoms: C_5  and  C_6
REMARK    5  A    between atoms: C_7  and  O_8
REMARK    6  A    between atoms: C_10  and  O_11
REMARK    7  A    between atoms: C_15  and  C_16
REMARK    8  A    between atoms: C_19  and  O_20
REMARK    9  A    between atoms: C_23  and  O_24
REMARK                            x       y       z     vdW  Elec       q    Type
REMARK                         _______ _______ _______ _____ _____    ______ ____
ROOT
ATOM      1  C   UNL     1      -2.884  12.649  21.309  0.00  0.00    +0.000 A 
ATOM      2  C   UNL     1      -2.751  12.516  22.696  0.00  0.00    +0.000 A 
ATOM      3  C   UNL     1      -1.716  11.764  23.254  0.00  0.00    +0.000 A 
ATOM      4  C   UNL     1      -0.808  11.096  22.434  0.00  0.00    +0.000 A 
ATOM      5  C   UNL     1      -0.907  11.202  21.046  0.00  0.00    +0.000 A 
ATOM      6  C   UNL     1      -1.920  12.012  20.494  0.00  0.00    +0.000 A 
ATOM      7  O   UNL     1      -1.975  12.338  19.157  0.00  0.00    +0.000 OA
ATOM      8  C   UNL     1      -0.783  12.092  18.393  0.00  0.00    +0.000 C 
ATOM      9  C   UNL     1      -0.311  10.656  18.640  0.00  0.00    +0.000 C 
ATOM     10  C   UNL     1       0.054  10.555  20.112  0.00  0.00    +0.000 C 
ATOM     11  O   UNL     1       1.090   9.999  20.466  0.00  0.00    +0.000 OA
ENDROOT
BRANCH   8  12
ATOM     12  C   UNL     1       0.299  13.170  18.556  0.00  0.00    +0.000 A 
ATOM     13  C   UNL     1       1.668  12.941  18.321  0.00  0.00    +0.000 A 
ATOM     14  C   UNL     1       2.604  13.976  18.383  0.00  0.00    +0.000 A 
ATOM     15  C   UNL     1       2.186  15.255  18.717  0.00  0.00    +0.000 A 
ATOM     16  C   UNL     1       0.850  15.508  18.995  0.00  0.00    +0.000 A 
ATOM     17  C   UNL     1      -0.089  14.474  18.910  0.00  0.00    +0.000 A 
BRANCH  15  18
ATOM     18  O   UNL     1       3.070  16.290  18.778  0.00  0.00    +0.000 OA
ATOM     19  H   UNL     1       2.852  16.929  18.080  0.00  0.00    +0.000 HD
ENDBRANCH  15  18
ENDBRANCH   8  12
BRANCH   2  20
ATOM     20  O   UNL     1      -3.586  13.109  23.600  0.00  0.00    +0.000 OA
ATOM     21  H   UNL     1      -4.509  12.874  23.421  0.00  0.00    +0.000 HD
ENDBRANCH   2  20
BRANCH   4  22
ATOM     22  O   UNL     1       0.181  10.356  23.014  0.00  0.00    +0.000 OA
ATOM     23  H   UNL     1       0.000  10.232  23.959  0.00  0.00    +0.000 HD
ENDBRANCH   4  22
BRANCH   9  24
ATOM     24  O   UNL     1       0.731  10.265  17.753  0.00  0.00    +0.000 OA
ATOM     25  H   UNL     1       0.291  10.006  16.918  0.00  0.00    +0.000 HD
ENDBRANCH   9  24
BRANCH   1  26
ATOM     26  C   UNL     1      -4.026  13.409  20.661  0.00  0.00    +0.000 C 
BRANCH  26  30
ATOM     27  C   UNL     1      -7.119  11.115  19.980  0.00  0.00    +0.000 C 
ATOM     28  C   UNL     1      -5.870  11.911  19.719  0.00  0.00    +0.000 C 
ATOM     29  C   UNL     1      -5.301  11.852  18.330  0.00  0.00    +0.000 C 
ATOM     30  C   UNL     1      -5.305  12.614  20.722  0.00  0.00    +0.000 C 
ENDBRANCH  26  30
ENDBRANCH   1  26
TORSDOF 7
ENDMDL
MODEL 6
REMARK VINA RESULT:      -6.3      0.640      1.334
REMARK  Name = 
REMARK  9 active torsions:
REMARK  status: ('A' for Active; 'I' for Inactive)
REMARK    1  A    between atoms: C_1  and  C_2
REMARK    2  A    between atoms: C_2  and  C_3
REMARK    3  A    between atoms: C_4  and  C_5
REMARK    4  A    between atoms: C_5  and  C_6
REMARK    5  A    between atoms: C_7  and  O_8
REMARK    6  A    between atoms: C_10  and  O_11
REMARK    7  A    between atoms: C_15  and  C_16
REMARK    8  A    between atoms: C_19  and  O_20
REMARK    9  A    between atoms: C_23  and  O_24
REMARK                            x       y       z     vdW  Elec       q    Type
REMARK                         _______ _______ _______ _____ _____    ______ ____
ROOT
ATOM      1  C   UNL     1       1.549   8.871  19.644  0.00  0.00    +0.000 A 
ATOM      2  C   UNL     1       1.487   8.057  20.781  0.00  0.00    +0.000 A 
ATOM      3  C   UNL     1       0.932   8.524  21.974  0.00  0.00    +0.000 A 
ATOM      4  C   UNL     1       0.457   9.831  22.068  0.00  0.00    +0.000 A 
ATOM      5  C   UNL     1       0.502  10.674  20.957  0.00  0.00    +0.000 A 
ATOM      6  C   UNL     1       1.010  10.174  19.740  0.00  0.00    +0.000 A 
ATOM      7  O   UNL     1       0.911  10.857  18.549  0.00  0.00    +0.000 OA
ATOM      8  C   UNL     1      -0.016  11.956  18.520  0.00  0.00    +0.000 C 
ATOM      9  C   UNL     1       0.253  12.874  19.717  0.00  0.00    +0.000 C 
ATOM     10  C   UNL     1      -0.029  12.064  20.971  0.00  0.00    +0.000 C 
ATOM     11  O   UNL     1      -0.677  12.544  21.898  0.00  0.00    +0.000 OA
ENDROOT
BRANCH   8  12
ATOM     12  C   UNL     1      -1.482  11.534  18.339  0.00  0.00    +0.000 A 
ATOM     13  C   UNL     1      -1.879  10.383  17.634  0.00  0.00    +0.000 A 
ATOM     14  C   UNL     1      -3.216   9.983  17.582  0.00  0.00    +0.000 A 
ATOM     15  C   UNL     1      -4.184  10.752  18.207  0.00  0.00    +0.000 A 
ATOM     16  C   UNL     1      -3.832  11.916  18.876  0.00  0.00    +0.000 A 
ATOM     17  C   UNL     1      -2.490  12.302  18.947  0.00  0.00    +0.000 A 
BRANCH  15  18
ATOM     18  O   UNL     1      -5.497  10.388  18.183  0.00  0.00    +0.000 OA
ATOM     19  H   UNL     1      -6.044  11.190  18.189  0.00  0.00    +0.000 HD
ENDBRANCH  15  18
ENDBRANCH   8  12
BRANCH   2  20
ATOM     20  O   UNL     1       1.933   6.767  20.818  0.00  0.00    +0.000 OA
ATOM     21  H   UNL     1       1.222   6.150  20.588  0.00  0.00    +0.000 HD
ENDBRANCH   2  20
BRANCH   4  22
ATOM     22  O   UNL     1      -0.063  10.258  23.254  0.00  0.00    +0.000 OA
ATOM     23  H   UNL     1      -0.532   9.534  23.698  0.00  0.00    +0.000 HD
ENDBRANCH   4  22
BRANCH   9  24
ATOM     24  O   UNL     1      -0.473  14.097  19.637  0.00  0.00    +0.000 OA
ATOM     25  H   UNL     1      -0.269  14.474  18.758  0.00  0.00    +0.000 HD
ENDBRANCH   9  24
BRANCH   1  26
ATOM     26  C   UNL     1       2.195   8.423  18.346  0.00  0.00    +0.000 C 
BRANCH  26  30
ATOM     27  C   UNL     1       3.113   4.656  17.832  0.00  0.00    +0.000 C 
ATOM     28  C   UNL     1       3.233   6.155  17.790  0.00  0.00    +0.000 C 
ATOM     29  C   UNL     1       4.515   6.722  17.247  0.00  0.00    +0.000 C 
ATOM     30  C   UNL     1       2.221   6.919  18.250  0.00  0.00    +0.000 C 
ENDBRANCH  26  30
ENDBRANCH   1  26
TORSDOF 7
ENDMDL
MODEL 7
REMARK VINA RESULT:      -6.2      3.579      5.166
REMARK  Name = 
REMARK  9 active torsions:
REMARK  status: ('A' for Active; 'I' for Inactive)
REMARK    1  A    between atoms: C_1  and  C_2
REMARK    2  A    between atoms: C_2  and  C_3
REMARK    3  A    between atoms: C_4  and  C_5
REMARK    4  A    between atoms: C_5  and  C_6
REMARK    5  A    between atoms: C_7  and  O_8
REMARK    6  A    between atoms: C_10  and  O_11
REMARK    7  A    between atoms: C_15  and  C_16
REMARK    8  A    between atoms: C_19  and  O_20
REMARK    9  A    between atoms: C_23  and  O_24
REMARK                            x       y       z     vdW  Elec       q    Type
REMARK                         _______ _______ _______ _____ _____    ______ ____
ROOT
ATOM      1  C   UNL     1      -0.693  12.414  19.833  0.00  0.00    +0.000 A 
ATOM      2  C   UNL     1       0.137  11.349  20.202  0.00  0.00    +0.000 A 
ATOM      3  C   UNL     1      -0.074  10.647  21.390  0.00  0.00    +0.000 A 
ATOM      4  C   UNL     1      -1.100  11.018  22.257  0.00  0.00    +0.000 A 
ATOM      5  C   UNL     1      -1.949  12.075  21.925  0.00  0.00    +0.000 A 
ATOM      6  C   UNL     1      -1.765  12.739  20.695  0.00  0.00    +0.000 A 
ATOM      7  O   UNL     1      -2.665  13.651  20.193  0.00  0.00    +0.000 OA
ATOM      8  C   UNL     1      -3.964  13.669  20.808  0.00  0.00    +0.000 C 
ATOM      9  C   UNL     1      -3.801  13.763  22.329  0.00  0.00    +0.000 C 
ATOM     10  C   UNL     1      -3.093  12.496  22.779  0.00  0.00    +0.000 C 
ATOM     11  O   UNL     1      -3.483  11.874  23.764  0.00  0.00    +0.000 OA
ENDROOT
BRANCH   8  12
ATOM     12  C   UNL     1      -4.903  12.555  20.321  0.00  0.00    +0.000 A 
ATOM     13  C   UNL     1      -6.054  12.147  21.020  0.00  0.00    +0.000 A 
ATOM     14  C   UNL     1      -6.934  11.201  20.490  0.00  0.00    +0.000 A 
ATOM     15  C   UNL     1      -6.655  10.622  19.262  0.00  0.00    +0.000 A 
ATOM     16  C   UNL     1      -5.507  10.972  18.564  0.00  0.00    +0.000 A 
ATOM     17  C   UNL     1      -4.639  11.936  19.087  0.00  0.00    +0.000 A 
BRANCH  15  18
ATOM     18  O   UNL     1      -7.496   9.702  18.710  0.00  0.00    +0.000 OA
ATOM     19  H   UNL     1      -8.242   9.558  19.314  0.00  0.00    +0.000 HD
ENDBRANCH  15  18
ENDBRANCH   8  12
BRANCH   2  20
ATOM     20  O   UNL     1       1.183  10.902  19.446  0.00  0.00    +0.000 OA
ATOM     21  H   UNL     1       1.829  11.610  19.299  0.00  0.00    +0.000 HD
ENDBRANCH   2  20
BRANCH   4  22
ATOM     22  O   UNL     1      -1.266  10.321  23.417  0.00  0.00    +0.000 OA
ATOM     23  H   UNL     1      -0.504  10.453  24.003  0.00  0.00    +0.000 HD
ENDBRANCH   4  22
BRANCH   9  24
ATOM     24  O   UNL     1      -5.036  14.008  22.994  0.00  0.00    +0.000 OA
ATOM     25  H   UNL     1      -5.589  14.507  22.359  0.00  0.00    +0.000 HD
ENDBRANCH   9  24
BRANCH   1  26
ATOM     26  C   UNL     1      -0.465  13.238  18.580  0.00  0.00    +0.000 C 
BRANCH  26  30
ATOM     27  C   UNL     1       2.136  16.124  19.029  0.00  0.00    +0.000 C 
ATOM     28  C   UNL     1       1.582  14.762  18.713  0.00  0.00    +0.000 C 
ATOM     29  C   UNL     1       2.545  13.744  18.170  0.00  0.00    +0.000 C 
ATOM     30  C   UNL     1       0.271  14.514  18.902  0.00  0.00    +0.000 C 
ENDBRANCH  26  30
ENDBRANCH   1  26
TORSDOF 7
ENDMDL
MODEL 8
REMARK VINA RESULT:      -6.2      3.395      6.881
REMARK  Name = 
REMARK  9 active torsions:
REMARK  status: ('A' for Active; 'I' for Inactive)
REMARK    1  A    between atoms: C_1  and  C_2
REMARK    2  A    between atoms: C_2  and  C_3
REMARK    3  A    between atoms: C_4  and  C_5
REMARK    4  A    between atoms: C_5  and  C_6
REMARK    5  A    between atoms: C_7  and  O_8
REMARK    6  A    between atoms: C_10  and  O_11
REMARK    7  A    between atoms: C_15  and  C_16
REMARK    8  A    between atoms: C_19  and  O_20
REMARK    9  A    between atoms: C_23  and  O_24
REMARK                            x       y       z     vdW  Elec       q    Type
REMARK                         _______ _______ _______ _____ _____    ______ ____
ROOT
ATOM      1  C   UNL     1       6.094   4.840  18.317  0.00  0.00    +0.000 A 
ATOM      2  C   UNL     1       6.398   4.446  17.009  0.00  0.00    +0.000 A 
ATOM      3  C   UNL     1       5.416   3.923  16.165  0.00  0.00    +0.000 A 
ATOM      4  C   UNL     1       4.112   3.749  16.623  0.00  0.00    +0.000 A 
ATOM      5  C   UNL     1       3.769   4.128  17.922  0.00  0.00    +0.000 A 
ATOM      6  C   UNL     1       4.753   4.710  18.746  0.00  0.00    +0.000 A 
ATOM      7  O   UNL     1       4.467   5.296  19.959  0.00  0.00    +0.000 OA
ATOM      8  C   UNL     1       3.082   5.585  20.215  0.00  0.00    +0.000 C 
ATOM      9  C   UNL     1       2.246   4.330  19.942  0.00  0.00    +0.000 C 
ATOM     10  C   UNL     1       2.387   4.014  18.462  0.00  0.00    +0.000 C 
ATOM     11  O   UNL     1       1.405   3.720  17.786  0.00  0.00    +0.000 OA
ENDROOT
BRANCH   8  12
ATOM     12  C   UNL     1       2.574   6.866  19.537  0.00  0.00    +0.000 A 
ATOM     13  C   UNL     1       2.770   7.155  18.174  0.00  0.00    +0.000 A 
ATOM     14  C   UNL     1       2.203   8.284  17.577  0.00  0.00    +0.000 A 
ATOM     15  C   UNL     1       1.456   9.161  18.347  0.00  0.00    +0.000 A 
ATOM     16  C   UNL     1       1.277   8.928  19.703  0.00  0.00    +0.000 A 
ATOM     17  C   UNL     1       1.827   7.785  20.294  0.00  0.00    +0.000 A 
BRANCH  15  18
ATOM     18  O   UNL     1       0.881  10.267  17.797  0.00  0.00    +0.000 OA
ATOM     19  H   UNL     1       0.153  10.558  18.368  0.00  0.00    +0.000 HD
ENDBRANCH  15  18
ENDBRANCH   8  12
BRANCH   2  20
ATOM     20  O   UNL     1       7.640   4.553  16.451  0.00  0.00    +0.000 OA
ATOM     21  H   UNL     1       7.908   5.482  16.383  0.00  0.00    +0.000 HD
ENDBRANCH   2  20
BRANCH   4  22
ATOM     22  O   UNL     1       3.182   3.219  15.777  0.00  0.00    +0.000 OA
ATOM     23  H   UNL     1       3.569   2.494  15.261  0.00  0.00    +0.000 HD
ENDBRANCH   4  22
BRANCH   9  24
ATOM     24  O   UNL     1       0.899   4.468  20.383  0.00  0.00    +0.000 OA
ATOM     25  H   UNL     1       0.841   3.980  21.229  0.00  0.00    +0.000 HD
ENDBRANCH   9  24
BRANCH   1  26
ATOM     26  C   UNL     1       7.142   5.360  19.284  0.00  0.00    +0.000 C 
BRANCH  26  30
ATOM     27  C   UNL     1       8.260   8.653  17.495  0.00  0.00    +0.000 C 
ATOM     28  C   UNL     1       7.372   7.527  17.950  0.00  0.00    +0.000 C 
ATOM     29  C   UNL     1       5.922   7.603  17.562  0.00  0.00    +0.000 C 
ATOM     30  C   UNL     1       7.890   6.526  18.690  0.00  0.00    +0.000 C 
ENDBRANCH  26  30
ENDBRANCH   1  26
TORSDOF 7
ENDMDL
MODEL 9
REMARK VINA RESULT:      -6.2      2.697      6.308
REMARK  Name = 
REMARK  9 active torsions:
REMARK  status: ('A' for Active; 'I' for Inactive)
REMARK    1  A    between atoms: C_1  and  C_2
REMARK    2  A    between atoms: C_2  and  C_3
REMARK    3  A    between atoms: C_4  and  C_5
REMARK    4  A    between atoms: C_5  and  C_6
REMARK    5  A    between atoms: C_7  and  O_8
REMARK    6  A    between atoms: C_10  and  O_11
REMARK    7  A    between atoms: C_15  and  C_16
REMARK    8  A    between atoms: C_19  and  O_20
REMARK    9  A    between atoms: C_23  and  O_24
REMARK                            x       y       z     vdW  Elec       q    Type
REMARK                         _______ _______ _______ _____ _____    ______ ____
ROOT
ATOM      1  C   UNL     1      -0.548  12.861  22.036  0.00  0.00    +0.000 A 
ATOM      2  C   UNL     1      -0.255  14.229  21.999  0.00  0.00    +0.000 A 
ATOM      3  C   UNL     1       0.553  14.768  20.995  0.00  0.00    +0.000 A 
ATOM      4  C   UNL     1       1.117  13.942  20.024  0.00  0.00    +0.000 A 
ATOM      5  C   UNL     1       0.849  12.573  20.028  0.00  0.00    +0.000 A 
ATOM      6  C   UNL     1      -0.016  12.048  21.009  0.00  0.00    +0.000 A 
ATOM      7  O   UNL     1      -0.496  10.758  20.975  0.00  0.00    +0.000 OA
ATOM      8  C   UNL     1      -0.347  10.056  19.729  0.00  0.00    +0.000 C 
ATOM      9  C   UNL     1       1.107  10.167  19.258  0.00  0.00    +0.000 C 
ATOM     10  C   UNL     1       1.378  11.640  18.995  0.00  0.00    +0.000 C 
ATOM     11  O   UNL     1       1.967  11.999  17.979  0.00  0.00    +0.000 OA
ENDROOT
BRANCH   8  12
ATOM     12  C   UNL     1      -1.403  10.421  18.675  0.00  0.00    +0.000 A 
ATOM     13  C   UNL     1      -1.453   9.844  17.393  0.00  0.00    +0.000 A 
ATOM     14  C   UNL     1      -2.492  10.129  16.503  0.00  0.00    +0.000 A 
ATOM     15  C   UNL     1      -3.480  11.028  16.873  0.00  0.00    +0.000 A 
ATOM     16  C   UNL     1      -3.439  11.646  18.115  0.00  0.00    +0.000 A 
ATOM     17  C   UNL     1      -2.411  11.341  19.013  0.00  0.00    +0.000 A 
BRANCH  15  18
ATOM     18  O   UNL     1      -4.512  11.323  16.034  0.00  0.00    +0.000 OA
ATOM     19  H   UNL     1      -4.265  12.089  15.492  0.00  0.00    +0.000 HD
ENDBRANCH  15  18
ENDBRANCH   8  12
BRANCH   2  20
ATOM     20  O   UNL     1      -0.734  15.135  22.902  0.00  0.00    +0.000 OA
ATOM     21  H   UNL     1      -1.644  14.919  23.156  0.00  0.00    +0.000 HD
ENDBRANCH   2  20
BRANCH   4  22
ATOM     22  O   UNL     1       1.915  14.500  19.069  0.00  0.00    +0.000 OA
ATOM     23  H   UNL     1       1.554  15.354  18.783  0.00  0.00    +0.000 HD
ENDBRANCH   4  22
BRANCH   9  24
ATOM     24  O   UNL     1       1.386   9.317  18.151  0.00  0.00    +0.000 OA
ATOM     25  H   UNL     1       2.342   9.420  17.967  0.00  0.00    +0.000 HD
ENDBRANCH   9  24
BRANCH   1  26
ATOM     26  C   UNL     1      -1.374  12.227  23.140  0.00  0.00    +0.000 C 
BRANCH  26  30
ATOM     27  C   UNL     1      -5.202  12.992  22.896  0.00  0.00    +0.000 C 
ATOM     28  C   UNL     1      -3.788  13.020  23.409  0.00  0.00    +0.000 C 
ATOM     29  C   UNL     1      -3.506  13.922  24.578  0.00  0.00    +0.000 C 
ATOM     30  C   UNL     1      -2.844  12.272  22.805  0.00  0.00    +0.000 C 
ENDBRANCH  26  30
ENDBRANCH   1  26
TORSDOF 7
ENDMDL
