MODEL 1
REMARK VINA RESULT:      -7.6      0.000      0.000
REMARK  Name = 
REMARK  6 active torsions:
REMARK  status: ('A' for Active; 'I' for Inactive)
REMARK    1  A    between atoms: C_1  and  C_2
REMARK    2  A    between atoms: C_4  and  C_5
REMARK    3  A    between atoms: C_5  and  C_6
REMARK    4  A    between atoms: C_5  and  N_7
REMARK    5  A    between atoms: N_7  and  C_8
REMARK    6  A    between atoms: C_19  and  C_20
REMARK                            x       y       z     vdW  Elec       q    Type
REMARK                         _______ _______ _______ _____ _____    ______ ____
ROOT
ATOM      1  C   UNL     1       3.003   5.156  17.866  0.00  0.00    +0.000 A 
ATOM      2  N   UNL     1       2.487   3.936  18.123  0.00  0.00    +0.000 NA
ATOM      3  C   UNL     1       3.158   2.876  17.663  0.00  0.00    +0.000 A 
ATOM      4  N   UNL     1       4.272   2.904  16.932  0.00  0.00    +0.000 NA
ATOM      5  C   UNL     1       4.767   4.127  16.651  0.00  0.00    +0.000 A 
ATOM      6  C   UNL     1       4.186   5.301  17.129  0.00  0.00    +0.000 A 
ATOM      7  C   UNL     1       4.817   6.639  16.818  0.00  0.00    +0.000 C 
ATOM      8  C   UNL     1       6.272   6.774  17.314  0.00  0.00    +0.000 C 
ATOM      9  N   UNL     1       7.291   6.146  16.464  0.00  0.00    +0.000 NA
ATOM     10  C   UNL     1       7.223   4.681  16.473  0.00  0.00    +0.000 C 
ATOM     11  C   UNL     1       5.987   4.135  15.765  0.00  0.00    +0.000 C 
ATOM     12  H   UNL     1       8.214   6.424  16.806  0.00  0.00    +0.000 HD
ENDROOT
BRANCH   1  13
ATOM     13  N   UNL     1       2.280   6.273  18.295  0.00  0.00    +0.000 N 
ATOM     14  H   UNL     1       2.409   7.060  17.665  0.00  0.00    +0.000 HD
BRANCH  13  15
ATOM     15  C   UNL     1       2.452   6.743  19.687  0.00  0.00    +0.000 C 
ATOM     16  C   UNL     1       2.049   5.627  20.662  0.00  0.00    +0.000 C 
BRANCH  15  20
ATOM     17  C   UNL     1      -0.178   9.719  22.701  0.00  0.00    +0.000 C 
ATOM     18  C   UNL     1       0.486   9.256  21.454  0.00  0.00    +0.000 A 
ATOM     19  N   UNL     1       1.034   8.073  21.287  0.00  0.00    +0.000 NA
ATOM     20  C   UNL     1       1.641   7.994  20.033  0.00  0.00    +0.000 A 
ATOM     21  C   UNL     1       1.461   9.119  19.239  0.00  0.00    +0.000 A 
ATOM     22  C   UNL     1       1.937   9.421  17.861  0.00  0.00    +0.000 C 
ATOM     23  S   UNL     1       0.587  10.313  20.108  0.00  0.00    +0.000 S 
ENDBRANCH  15  20
ENDBRANCH  13  15
ENDBRANCH   1  13
TORSDOF 3
ENDMDL
MODEL 2
REMARK VINA RESULT:      -7.5      2.750      7.066
REMARK  Name = 
REMARK  6 active torsions:
REMARK  status: ('A' for Active; 'I' for Inactive)
REMARK    1  A    between atoms: C_1  and  C_2
REMARK    2  A    between atoms: C_4  and  C_5
REMARK    3  A    between atoms: C_5  and  C_6
REMARK    4  A    between atoms: C_5  and  N_7
REMARK    5  A    between atoms: N_7  and  C_8
REMARK    6  A    between atoms: C_19  and  C_20
REMARK                            x       y       z     vdW  Elec       q    Type
REMARK                         _______ _______ _______ _____ _____    ______ ____
ROOT
ATOM      1  C   UNL     1       1.697   8.002  19.982  0.00  0.00    +0.000 A 
ATOM      2  N   UNL     1       2.145   8.311  18.748  0.00  0.00    +0.000 NA
ATOM      3  C   UNL     1       1.684   9.434  18.190  0.00  0.00    +0.000 A 
ATOM      4  N   UNL     1       0.784  10.265  18.716  0.00  0.00    +0.000 NA
ATOM      5  C   UNL     1       0.314   9.934  19.937  0.00  0.00    +0.000 A 
ATOM      6  C   UNL     1       0.768   8.819  20.641  0.00  0.00    +0.000 A 
ATOM      7  C   UNL     1       0.236   8.531  22.026  0.00  0.00    +0.000 C 
ATOM      8  C   UNL     1       0.477   9.671  23.038  0.00  0.00    +0.000 C 
ATOM      9  N   UNL     1      -0.463  10.796  22.959  0.00  0.00    +0.000 NA
ATOM     10  C   UNL     1      -0.308  11.591  21.737  0.00  0.00    +0.000 C 
ATOM     11  C   UNL     1      -0.753  10.850  20.480  0.00  0.00    +0.000 C 
ATOM     12  H   UNL     1      -0.302  11.409  23.761  0.00  0.00    +0.000 HD
ENDROOT
BRANCH   1  13
ATOM     13  N   UNL     1       2.131   6.801  20.552  0.00  0.00    +0.000 N 
ATOM     14  H   UNL     1       3.075   6.887  20.920  0.00  0.00    +0.000 HD
BRANCH  13  15
ATOM     15  C   UNL     1       2.039   5.559  19.755  0.00  0.00    +0.000 C 
ATOM     16  C   UNL     1       1.619   4.393  20.663  0.00  0.00    +0.000 C 
BRANCH  15  20
ATOM     17  C   UNL     1       6.987   5.465  19.150  0.00  0.00    +0.000 C 
ATOM     18  C   UNL     1       5.556   5.179  18.865  0.00  0.00    +0.000 A 
ATOM     19  N   UNL     1       4.540   5.713  19.506  0.00  0.00    +0.000 NA
ATOM     20  C   UNL     1       3.339   5.169  19.048  0.00  0.00    +0.000 A 
ATOM     21  C   UNL     1       3.482   4.275  17.995  0.00  0.00    +0.000 A 
ATOM     22  C   UNL     1       2.464   3.498  17.236  0.00  0.00    +0.000 C 
ATOM     23  S   UNL     1       5.145   4.064  17.631  0.00  0.00    +0.000 S 
ENDBRANCH  15  20
ENDBRANCH  13  15
ENDBRANCH   1  13
TORSDOF 3
ENDMDL
MODEL 3
REMARK VINA RESULT:      -7.5      2.625      6.985
REMARK  Name = 
REMARK  6 active torsions:
REMARK  status: ('A' for Active; 'I' for Inactive)
REMARK    1  A    between atoms: C_1  and  C_2
REMARK    2  A    between atoms: C_4  and  C_5
REMARK    3  A    between atoms: C_5  and  C_6
REMARK    4  A    between atoms: C_5  and  N_7
REMARK    5  A    between atoms: N_7  and  C_8
REMARK    6  A    between atoms: C_19  and  C_20
REMARK                            x       y       z     vdW  Elec       q    Type
REMARK                         _______ _______ _______ _____ _____    ______ ____
ROOT
ATOM      1  C   UNL     1       2.119   7.810  19.553  0.00  0.00    +0.000 A 
ATOM      2  N   UNL     1       2.405   8.131  18.274  0.00  0.00    +0.000 NA
ATOM      3  C   UNL     1       1.804   9.207  17.761  0.00  0.00    +0.000 A 
ATOM      4  N   UNL     1       0.907   9.979  18.376  0.00  0.00    +0.000 NA
ATOM      5  C   UNL     1       0.600   9.635  19.644  0.00  0.00    +0.000 A 
ATOM      6  C   UNL     1       1.211   8.569  20.304  0.00  0.00    +0.000 A 
ATOM      7  C   UNL     1       0.857   8.266  21.742  0.00  0.00    +0.000 C 
ATOM      8  C   UNL     1       1.122   9.437  22.710  0.00  0.00    +0.000 C 
ATOM      9  N   UNL     1       0.097  10.490  22.727  0.00  0.00    +0.000 NA
ATOM     10  C   UNL     1       0.058  11.273  21.487  0.00  0.00    +0.000 C 
ATOM     11  C   UNL     1      -0.466  10.480  20.294  0.00  0.00    +0.000 C 
ATOM     12  H   UNL     1       0.299  11.126  23.500  0.00  0.00    +0.000 HD
ENDROOT
BRANCH   1  13
ATOM     13  N   UNL     1       2.702   6.655  20.082  0.00  0.00    +0.000 N 
ATOM     14  H   UNL     1       3.652   6.531  19.742  0.00  0.00    +0.000 HD
BRANCH  13  15
ATOM     15  C   UNL     1       1.978   5.370  19.958  0.00  0.00    +0.000 C 
ATOM     16  C   UNL     1       2.103   4.579  21.268  0.00  0.00    +0.000 C 
BRANCH  15  20
ATOM     17  C   UNL     1       5.174   3.958  16.401  0.00  0.00    +0.000 C 
ATOM     18  C   UNL     1       3.959   3.925  17.257  0.00  0.00    +0.000 A 
ATOM     19  N   UNL     1       3.618   4.860  18.116  0.00  0.00    +0.000 NA
ATOM     20  C   UNL     1       2.471   4.480  18.814  0.00  0.00    +0.000 A 
ATOM     21  C   UNL     1       1.920   3.276  18.396  0.00  0.00    +0.000 A 
ATOM     22  C   UNL     1       0.717   2.541  18.873  0.00  0.00    +0.000 C 
ATOM     23  S   UNL     1       2.898   2.582  17.168  0.00  0.00    +0.000 S 
ENDBRANCH  15  20
ENDBRANCH  13  15
ENDBRANCH   1  13
TORSDOF 3
ENDMDL
MODEL 4
REMARK VINA RESULT:      -7.3      2.762      6.729
REMARK  Name = 
REMARK  6 active torsions:
REMARK  status: ('A' for Active; 'I' for Inactive)
REMARK    1  A    between atoms: C_1  and  C_2
REMARK    2  A    between atoms: C_4  and  C_5
REMARK    3  A    between atoms: C_5  and  C_6
REMARK    4  A    between atoms: C_5  and  N_7
REMARK    5  A    between atoms: N_7  and  C_8
REMARK    6  A    between atoms: C_19  and  C_20
REMARK                            x       y       z     vdW  Elec       q    Type
REMARK                         _______ _______ _______ _____ _____    ______ ____
ROOT
ATOM      1  C   UNL     1       2.293   7.437  19.591  0.00  0.00    +0.000 A 
ATOM      2  N   UNL     1       2.704   7.626  18.320  0.00  0.00    +0.000 NA
ATOM      3  C   UNL     1       2.256   8.712  17.685  0.00  0.00    +0.000 A 
ATOM      4  N   UNL     1       1.402   9.614  18.170  0.00  0.00    +0.000 NA
ATOM      5  C   UNL     1       0.969   9.404  19.429  0.00  0.00    +0.000 A 
ATOM      6  C   UNL     1       1.415   8.338  20.210  0.00  0.00    +0.000 A 
ATOM      7  C   UNL     1       0.928   8.185  21.633  0.00  0.00    +0.000 C 
ATOM      8  C   UNL     1       1.241   9.397  22.534  0.00  0.00    +0.000 C 
ATOM      9  N   UNL     1       0.333  10.543  22.393  0.00  0.00    +0.000 NA
ATOM     10  C   UNL     1       0.466  11.226  21.102  0.00  0.00    +0.000 C 
ATOM     11  C   UNL     1      -0.049  10.398  19.930  0.00  0.00    +0.000 C 
ATOM     12  H   UNL     1       0.543  11.216  23.133  0.00  0.00    +0.000 HD
ENDROOT
BRANCH   1  13
ATOM     13  N   UNL     1       2.712   6.275  20.247  0.00  0.00    +0.000 N 
ATOM     14  H   UNL     1       3.504   6.460  20.856  0.00  0.00    +0.000 HD
BRANCH  13  15
ATOM     15  C   UNL     1       3.000   5.067  19.443  0.00  0.00    +0.000 C 
ATOM     16  C   UNL     1       2.823   3.814  20.312  0.00  0.00    +0.000 C 
BRANCH  15  20
ATOM     17  C   UNL     1       7.938   5.754  19.483  0.00  0.00    +0.000 C 
ATOM     18  C   UNL     1       6.602   5.370  18.956  0.00  0.00    +0.000 A 
ATOM     19  N   UNL     1       5.459   5.594  19.565  0.00  0.00    +0.000 NA
ATOM     20  C   UNL     1       4.406   5.034  18.840  0.00  0.00    +0.000 A 
ATOM     21  C   UNL     1       4.786   4.460  17.634  0.00  0.00    +0.000 A 
ATOM     22  C   UNL     1       3.977   3.776  16.587  0.00  0.00    +0.000 C 
ATOM     23  S   UNL     1       6.489   4.558  17.451  0.00  0.00    +0.000 S 
ENDBRANCH  15  20
ENDBRANCH  13  15
ENDBRANCH   1  13
TORSDOF 3
ENDMDL
MODEL 5
REMARK VINA RESULT:      -7.2      2.874      6.099
REMARK  Name = 
REMARK  6 active torsions:
REMARK  status: ('A' for Active; 'I' for Inactive)
REMARK    1  A    between atoms: C_1  and  C_2
REMARK    2  A    between atoms: C_4  and  C_5
REMARK    3  A    between atoms: C_5  and  C_6
REMARK    4  A    between atoms: C_5  and  N_7
REMARK    5  A    between atoms: N_7  and  C_8
REMARK    6  A    between atoms: C_19  and  C_20
REMARK                            x       y       z     vdW  Elec       q    Type
REMARK                         _______ _______ _______ _____ _____    ______ ____
ROOT
ATOM      1  C   UNL     1       3.696   5.610  17.589  0.00  0.00    +0.000 A 
ATOM      2  N   UNL     1       3.496   6.945  17.604  0.00  0.00    +0.000 NA
ATOM      3  C   UNL     1       2.720   7.439  18.571  0.00  0.00    +0.000 A 
ATOM      4  N   UNL     1       2.080   6.737  19.507  0.00  0.00    +0.000 NA
ATOM      5  C   UNL     1       2.257   5.400  19.469  0.00  0.00    +0.000 A 
ATOM      6  C   UNL     1       3.094   4.778  18.543  0.00  0.00    +0.000 A 
ATOM      7  C   UNL     1       3.286   3.279  18.584  0.00  0.00    +0.000 C 
ATOM      8  C   UNL     1       3.845   2.758  19.924  0.00  0.00    +0.000 C 
ATOM      9  N   UNL     1       2.864   2.617  21.008  0.00  0.00    +0.000 NA
ATOM     10  C   UNL     1       2.362   3.904  21.499  0.00  0.00    +0.000 C 
ATOM     11  C   UNL     1       1.469   4.622  20.492  0.00  0.00    +0.000 C 
ATOM     12  H   UNL     1       3.311   2.130  21.788  0.00  0.00    +0.000 HD
ENDROOT
BRANCH   1  13
ATOM     13  N   UNL     1       4.462   5.076  16.549  0.00  0.00    +0.000 N 
ATOM     14  H   UNL     1       4.864   4.179  16.810  0.00  0.00    +0.000 HD
BRANCH  13  15
ATOM     15  C   UNL     1       5.517   5.913  15.938  0.00  0.00    +0.000 C 
ATOM     16  C   UNL     1       6.223   5.124  14.826  0.00  0.00    +0.000 C 
BRANCH  15  20
ATOM     17  C   UNL     1       8.406   9.344  18.117  0.00  0.00    +0.000 C 
ATOM     18  C   UNL     1       7.823   8.004  17.839  0.00  0.00    +0.000 A 
ATOM     19  N   UNL     1       7.004   7.730  16.848  0.00  0.00    +0.000 NA
ATOM     20  C   UNL     1       6.581   6.402  16.924  0.00  0.00    +0.000 A 
ATOM     21  C   UNL     1       7.170   5.672  17.948  0.00  0.00    +0.000 A 
ATOM     22  C   UNL     1       6.994   4.251  18.353  0.00  0.00    +0.000 C 
ATOM     23  S   UNL     1       8.204   6.687  18.867  0.00  0.00    +0.000 S 
ENDBRANCH  15  20
ENDBRANCH  13  15
ENDBRANCH   1  13
TORSDOF 3
ENDMDL
MODEL 6
REMARK VINA RESULT:      -6.9      2.743      7.049
REMARK  Name = 
REMARK  6 active torsions:
REMARK  status: ('A' for Active; 'I' for Inactive)
REMARK    1  A    between atoms: C_1  and  C_2
REMARK    2  A    between atoms: C_4  and  C_5
REMARK    3  A    between atoms: C_5  and  C_6
REMARK    4  A    between atoms: C_5  and  N_7
REMARK    5  A    between atoms: N_7  and  C_8
REMARK    6  A    between atoms: C_19  and  C_20
REMARK                            x       y       z     vdW  Elec       q    Type
REMARK                         _______ _______ _______ _____ _____    ______ ____
ROOT
ATOM      1  C   UNL     1       1.967   8.157  19.503  0.00  0.00    +0.000 A 
ATOM      2  N   UNL     1       2.277   8.625  18.276  0.00  0.00    +0.000 NA
ATOM      3  C   UNL     1       1.688   9.758  17.883  0.00  0.00    +0.000 A 
ATOM      4  N   UNL     1       0.784  10.456  18.570  0.00  0.00    +0.000 NA
ATOM      5  C   UNL     1       0.452   9.967  19.782  0.00  0.00    +0.000 A 
ATOM      6  C   UNL     1       1.047   8.827  20.322  0.00  0.00    +0.000 A 
ATOM      7  C   UNL     1       0.666   8.358  21.707  0.00  0.00    +0.000 C 
ATOM      8  C   UNL     1       0.917   9.405  22.812  0.00  0.00    +0.000 C 
ATOM      9  N   UNL     1      -0.103  10.454  22.935  0.00  0.00    +0.000 NA
ATOM     10  C   UNL     1      -0.117  11.378  21.796  0.00  0.00    +0.000 C 
ATOM     11  C   UNL     1      -0.623  10.735  20.509  0.00  0.00    +0.000 C 
ATOM     12  H   UNL     1       0.087  10.993  23.782  0.00  0.00    +0.000 HD
ENDROOT
BRANCH   1  13
ATOM     13  N   UNL     1       2.535   6.944  19.902  0.00  0.00    +0.000 N 
ATOM     14  H   UNL     1       3.535   6.926  19.717  0.00  0.00    +0.000 HD
BRANCH  13  15
ATOM     15  C   UNL     1       1.936   5.682  19.415  0.00  0.00    +0.000 C 
ATOM     16  C   UNL     1       1.281   4.936  20.587  0.00  0.00    +0.000 C 
BRANCH  15  20
ATOM     17  C   UNL     1       3.875   1.220  18.321  0.00  0.00    +0.000 C 
ATOM     18  C   UNL     1       3.721   2.699  18.309  0.00  0.00    +0.000 A 
ATOM     19  N   UNL     1       2.883   3.375  19.063  0.00  0.00    +0.000 NA
ATOM     20  C   UNL     1       2.932   4.732  18.743  0.00  0.00    +0.000 A 
ATOM     21  C   UNL     1       3.887   5.061  17.790  0.00  0.00    +0.000 A 
ATOM     22  C   UNL     1       4.250   6.375  17.193  0.00  0.00    +0.000 C 
ATOM     23  S   UNL     1       4.673   3.639  17.238  0.00  0.00    +0.000 S 
ENDBRANCH  15  20
ENDBRANCH  13  15
ENDBRANCH   1  13
TORSDOF 3
ENDMDL
MODEL 7
REMARK VINA RESULT:      -6.8      2.469      5.731
REMARK  Name = 
REMARK  6 active torsions:
REMARK  status: ('A' for Active; 'I' for Inactive)
REMARK    1  A    between atoms: C_1  and  C_2
REMARK    2  A    between atoms: C_4  and  C_5
REMARK    3  A    between atoms: C_5  and  C_6
REMARK    4  A    between atoms: C_5  and  N_7
REMARK    5  A    between atoms: N_7  and  C_8
REMARK    6  A    between atoms: C_19  and  C_20
REMARK                            x       y       z     vdW  Elec       q    Type
REMARK                         _______ _______ _______ _____ _____    ______ ____
ROOT
ATOM      1  C   UNL     1       2.291   4.959  18.575  0.00  0.00    +0.000 A 
ATOM      2  N   UNL     1       1.762   4.039  19.408  0.00  0.00    +0.000 NA
ATOM      3  C   UNL     1       1.255   4.476  20.563  0.00  0.00    +0.000 A 
ATOM      4  N   UNL     1       1.258   5.736  21.000  0.00  0.00    +0.000 NA
ATOM      5  C   UNL     1       1.817   6.647  20.178  0.00  0.00    +0.000 A 
ATOM      6  C   UNL     1       2.323   6.317  18.921  0.00  0.00    +0.000 A 
ATOM      7  C   UNL     1       2.893   7.394  18.027  0.00  0.00    +0.000 C 
ATOM      8  C   UNL     1       1.891   8.517  17.685  0.00  0.00    +0.000 C 
ATOM      9  N   UNL     1       1.707   9.539  18.724  0.00  0.00    +0.000 NA
ATOM     10  C   UNL     1       1.022   9.029  19.916  0.00  0.00    +0.000 C 
ATOM     11  C   UNL     1       1.871   8.052  20.724  0.00  0.00    +0.000 C 
ATOM     12  H   UNL     1       1.146  10.299  18.334  0.00  0.00    +0.000 HD
ENDROOT
BRANCH   1  13
ATOM     13  N   UNL     1       2.874   4.505  17.387  0.00  0.00    +0.000 N 
ATOM     14  H   UNL     1       2.234   3.912  16.865  0.00  0.00    +0.000 HD
BRANCH  13  15
ATOM     15  C   UNL     1       4.196   3.845  17.448  0.00  0.00    +0.000 C 
ATOM     16  C   UNL     1       4.208   2.819  18.591  0.00  0.00    +0.000 C 
BRANCH  15  20
ATOM     17  C   UNL     1       8.180   5.637  19.852  0.00  0.00    +0.000 C 
ATOM     18  C   UNL     1       7.137   5.528  18.797  0.00  0.00    +0.000 A 
ATOM     19  N   UNL     1       6.104   4.717  18.841  0.00  0.00    +0.000 NA
ATOM     20  C   UNL     1       5.369   4.805  17.658  0.00  0.00    +0.000 A 
ATOM     21  C   UNL     1       5.835   5.762  16.766  0.00  0.00    +0.000 A 
ATOM     22  C   UNL     1       5.336   6.162  15.422  0.00  0.00    +0.000 C 
ATOM     23  S   UNL     1       7.253   6.500  17.390  0.00  0.00    +0.000 S 
ENDBRANCH  15  20
ENDBRANCH  13  15
ENDBRANCH   1  13
TORSDOF 3
ENDMDL
MODEL 8
REMARK VINA RESULT:      -6.8      1.798      3.122
REMARK  Name = 
REMARK  6 active torsions:
REMARK  status: ('A' for Active; 'I' for Inactive)
REMARK    1  A    between atoms: C_1  and  C_2
REMARK    2  A    between atoms: C_4  and  C_5
REMARK    3  A    between atoms: C_5  and  C_6
REMARK    4  A    between atoms: C_5  and  N_7
REMARK    5  A    between atoms: N_7  and  C_8
REMARK    6  A    between atoms: C_19  and  C_20
REMARK                            x       y       z     vdW  Elec       q    Type
REMARK                         _______ _______ _______ _____ _____    ______ ____
ROOT
ATOM      1  C   UNL     1       2.191   6.009  19.732  0.00  0.00    +0.000 A 
ATOM      2  N   UNL     1       1.355   5.496  20.659  0.00  0.00    +0.000 NA
ATOM      3  C   UNL     1       1.080   4.191  20.583  0.00  0.00    +0.000 A 
ATOM      4  N   UNL     1       1.515   3.346  19.649  0.00  0.00    +0.000 NA
ATOM      5  C   UNL     1       2.324   3.870  18.706  0.00  0.00    +0.000 A 
ATOM      6  C   UNL     1       2.730   5.204  18.719  0.00  0.00    +0.000 A 
ATOM      7  C   UNL     1       3.678   5.718  17.659  0.00  0.00    +0.000 C 
ATOM      8  C   UNL     1       5.027   4.972  17.613  0.00  0.00    +0.000 C 
ATOM      9  N   UNL     1       5.014   3.682  16.912  0.00  0.00    +0.000 NA
ATOM     10  C   UNL     1       4.250   2.650  17.621  0.00  0.00    +0.000 C 
ATOM     11  C   UNL     1       2.747   2.910  17.622  0.00  0.00    +0.000 C 
ATOM     12  H   UNL     1       5.978   3.355  16.815  0.00  0.00    +0.000 HD
ENDROOT
BRANCH   1  13
ATOM     13  N   UNL     1       2.443   7.383  19.770  0.00  0.00    +0.000 N 
ATOM     14  H   UNL     1       2.560   7.711  20.726  0.00  0.00    +0.000 HD
BRANCH  13  15
ATOM     15  C   UNL     1       1.522   8.297  19.061  0.00  0.00    +0.000 C 
ATOM     16  C   UNL     1       2.200   8.829  17.790  0.00  0.00    +0.000 C 
BRANCH  15  20
ATOM     17  C   UNL     1       0.970  13.154  20.047  0.00  0.00    +0.000 C 
ATOM     18  C   UNL     1       0.859  11.684  20.243  0.00  0.00    +0.000 A 
ATOM     19  N   UNL     1       1.439  10.778  19.487  0.00  0.00    +0.000 NA
ATOM     20  C   UNL     1       1.062   9.497  19.893  0.00  0.00    +0.000 A 
ATOM     21  C   UNL     1       0.254   9.470  21.022  0.00  0.00    +0.000 A 
ATOM     22  C   UNL     1      -0.345   8.324  21.760  0.00  0.00    +0.000 C 
ATOM     23  S   UNL     1      -0.097  11.072  21.527  0.00  0.00    +0.000 S 
ENDBRANCH  15  20
ENDBRANCH  13  15
ENDBRANCH   1  13
TORSDOF 3
ENDMDL
MODEL 9
REMARK VINA RESULT:      -6.8      1.096      1.555
REMARK  Name = 
REMARK  6 active torsions:
REMARK  status: ('A' for Active; 'I' for Inactive)
REMARK    1  A    between atoms: C_1  and  C_2
REMARK    2  A    between atoms: C_4  and  C_5
REMARK    3  A    between atoms: C_5  and  C_6
REMARK    4  A    between atoms: C_5  and  N_7
REMARK    5  A    between atoms: N_7  and  C_8
REMARK    6  A    between atoms: C_19  and  C_20
REMARK                            x       y       z     vdW  Elec       q    Type
REMARK                         _______ _______ _______ _____ _____    ______ ____
ROOT
ATOM      1  C   UNL     1       3.194   6.062  18.402  0.00  0.00    +0.000 A 
ATOM      2  N   UNL     1       2.346   5.042  18.651  0.00  0.00    +0.000 NA
ATOM      3  C   UNL     1       2.551   3.898  17.994  0.00  0.00    +0.000 A 
ATOM      4  N   UNL     1       3.491   3.673  17.075  0.00  0.00    +0.000 NA
ATOM      5  C   UNL     1       4.316   4.705  16.806  0.00  0.00    +0.000 A 
ATOM      6  C   UNL     1       4.236   5.927  17.474  0.00  0.00    +0.000 A 
ATOM      7  C   UNL     1       5.222   7.028  17.159  0.00  0.00    +0.000 C 
ATOM      8  C   UNL     1       6.695   6.632  17.389  0.00  0.00    +0.000 C 
ATOM      9  N   UNL     1       7.311   5.836  16.320  0.00  0.00    +0.000 NA
ATOM     10  C   UNL     1       6.762   4.479  16.225  0.00  0.00    +0.000 C 
ATOM     11  C   UNL     1       5.325   4.449  15.715  0.00  0.00    +0.000 C 
ATOM     12  H   UNL     1       8.314   5.762  16.508  0.00  0.00    +0.000 HD
ENDROOT
BRANCH   1  13
ATOM     13  N   UNL     1       2.955   7.281  19.043  0.00  0.00    +0.000 N 
ATOM     14  H   UNL     1       2.837   7.154  20.045  0.00  0.00    +0.000 HD
BRANCH  13  15
ATOM     15  C   UNL     1       1.869   8.151  18.541  0.00  0.00    +0.000 C 
ATOM     16  C   UNL     1       2.457   9.232  17.622  0.00  0.00    +0.000 C 
BRANCH  15  20
ATOM     17  C   UNL     1       0.776   9.354  23.255  0.00  0.00    +0.000 C 
ATOM     18  C   UNL     1       0.657   9.331  21.772  0.00  0.00    +0.000 A 
ATOM     19  N   UNL     1       1.360   8.560  20.973  0.00  0.00    +0.000 NA
ATOM     20  C   UNL     1       1.062   8.847  19.640  0.00  0.00    +0.000 A 
ATOM     21  C   UNL     1       0.061   9.793  19.469  0.00  0.00    +0.000 A 
ATOM     22  C   UNL     1      -0.539  10.359  18.230  0.00  0.00    +0.000 C 
ATOM     23  S   UNL     1      -0.454  10.380  20.997  0.00  0.00    +0.000 S 
ENDBRANCH  15  20
ENDBRANCH  13  15
ENDBRANCH   1  13
TORSDOF 3
ENDMDL
