MODEL 1
REMARK VINA RESULT:      -9.7      0.000      0.000
REMARK  Name = 
REMARK  5 active torsions:
REMARK  status: ('A' for Active; 'I' for Inactive)
REMARK    1  A    between atoms: C_1  and  C_2
REMARK    2  A    between atoms: C_5  and  C_6
REMARK    3  A    between atoms: C_11  and  C_12
REMARK    4  A    between atoms: C_12  and  C_13
REMARK    5  A    between atoms: N_19  and  C_20
REMARK                            x       y       z     vdW  Elec       q    Type
REMARK                         _______ _______ _______ _____ _____    ______ ____
ROOT
ATOM      1  C   UNL     1       2.023   5.686  20.159  0.00  0.00    +0.000 A 
ATOM      2  N   UNL     1       3.071   5.475  19.411  0.00  0.00    +0.000 NA
ATOM      3  C   UNL     1       3.145   4.207  18.933  0.00  0.00    +0.000 A 
ATOM      4  C   UNL     1       2.276   3.172  19.171  0.00  0.00    +0.000 A 
ATOM      5  C   UNL     1       2.836   2.054  18.550  0.00  0.00    +0.000 A 
ATOM      6  N   UNL     1       3.971   2.357  17.909  0.00  0.00    +0.000 NA
ATOM      7  N   UNL     1       4.114   3.695  18.108  0.00  0.00    +0.000 N 
ATOM      8  C   UNL     1       1.104   3.422  19.950  0.00  0.00    +0.000 A 
ATOM      9  O   UNL     1       0.231   2.594  20.183  0.00  0.00    +0.000 OA
ATOM     10  N   UNL     1       1.047   4.722  20.416  0.00  0.00    +0.000 N 
ATOM     11  H   UNL     1       0.230   4.943  20.960  0.00  0.00    +0.000 HD
ENDROOT
BRANCH   7  12
ATOM     12  C   UNL     1       5.187   4.439  17.453  0.00  0.00    +0.000 C 
ATOM     13  C   UNL     1       5.610   3.824  16.110  0.00  0.00    +0.000 C 
ATOM     14  C   UNL     1       6.805   4.560  15.527  0.00  0.00    +0.000 C 
ATOM     15  O   UNL     1       7.879   4.596  16.464  0.00  0.00    +0.000 OA
ATOM     16  C   UNL     1       7.529   5.300  17.654  0.00  0.00    +0.000 C 
ATOM     17  C   UNL     1       6.392   4.602  18.381  0.00  0.00    +0.000 C 
ENDBRANCH   7  12
BRANCH   1  18
ATOM     18  C   UNL     1       1.778   7.034  20.813  0.00  0.00    +0.000 C 
BRANCH  18  24
ATOM     19  C   UNL     1       1.169   9.462  20.125  0.00  0.00    +0.000 A 
ATOM     20  C   UNL     1       1.226  10.467  19.130  0.00  0.00    +0.000 A 
ATOM     21  C   UNL     1       1.759  10.223  17.865  0.00  0.00    +0.000 A 
ATOM     22  C   UNL     1       2.252   8.964  17.561  0.00  0.00    +0.000 A 
ATOM     23  C   UNL     1       2.234   7.961  18.532  0.00  0.00    +0.000 A 
ATOM     24  C   UNL     1       1.712   8.190  19.826  0.00  0.00    +0.000 A 
BRANCH  19  29
ATOM     25  C   UNL     1      -2.018  11.459  23.376  0.00  0.00    +0.000 C 
ATOM     26  C   UNL     1      -0.863  10.699  22.858  0.00  0.00    +0.000 A 
ATOM     27  N   UNL     1       0.027  10.009  23.535  0.00  0.00    +0.000 NA
ATOM     28  N   UNL     1       0.908   9.455  22.631  0.00  0.00    +0.000 NA
ATOM     29  C   UNL     1       0.549   9.807  21.413  0.00  0.00    +0.000 A 
ATOM     30  N   UNL     1      -0.564  10.607  21.529  0.00  0.00    +0.000 N 
ATOM     31  H   UNL     1      -1.076  11.030  20.771  0.00  0.00    +0.000 HD
ENDBRANCH  19  29
ENDBRANCH  18  24
ENDBRANCH   1  18
TORSDOF 4
ENDMDL
MODEL 2
REMARK VINA RESULT:      -9.6      2.457      8.217
REMARK  Name = 
REMARK  5 active torsions:
REMARK  status: ('A' for Active; 'I' for Inactive)
REMARK    1  A    between atoms: C_1  and  C_2
REMARK    2  A    between atoms: C_5  and  C_6
REMARK    3  A    between atoms: C_11  and  C_12
REMARK    4  A    between atoms: C_12  and  C_13
REMARK    5  A    between atoms: N_19  and  C_20
REMARK                            x       y       z     vdW  Elec       q    Type
REMARK                         _______ _______ _______ _____ _____    ______ ____
ROOT
ATOM      1  C   UNL     1       2.504   6.628  19.741  0.00  0.00    +0.000 A 
ATOM      2  N   UNL     1       1.749   7.557  20.260  0.00  0.00    +0.000 NA
ATOM      3  C   UNL     1       1.627   8.655  19.473  0.00  0.00    +0.000 A 
ATOM      4  C   UNL     1       2.214   8.877  18.252  0.00  0.00    +0.000 A 
ATOM      5  C   UNL     1       1.870  10.183  17.896  0.00  0.00    +0.000 A 
ATOM      6  N   UNL     1       1.071  10.753  18.806  0.00  0.00    +0.000 NA
ATOM      7  N   UNL     1       0.887   9.779  19.738  0.00  0.00    +0.000 N 
ATOM      8  C   UNL     1       2.999   7.838  17.666  0.00  0.00    +0.000 A 
ATOM      9  O   UNL     1       3.525   7.898  16.561  0.00  0.00    +0.000 OA
ATOM     10  N   UNL     1       3.099   6.727  18.483  0.00  0.00    +0.000 N 
ATOM     11  H   UNL     1       3.636   5.965  18.101  0.00  0.00    +0.000 HD
ENDROOT
BRANCH   7  12
ATOM     12  C   UNL     1      -0.039   9.973  20.851  0.00  0.00    +0.000 C 
ATOM     13  C   UNL     1      -0.543  11.421  20.967  0.00  0.00    +0.000 C 
ATOM     14  C   UNL     1      -1.406  11.598  22.205  0.00  0.00    +0.000 C 
ATOM     15  O   UNL     1      -0.702  11.178  23.372  0.00  0.00    +0.000 OA
ATOM     16  C   UNL     1      -0.366   9.793  23.327  0.00  0.00    +0.000 C 
ATOM     17  C   UNL     1       0.576   9.504  22.170  0.00  0.00    +0.000 C 
ENDBRANCH   7  12
BRANCH   1  18
ATOM     18  C   UNL     1       2.789   5.335  20.484  0.00  0.00    +0.000 C 
BRANCH  18  24
ATOM     19  C   UNL     1       3.256   3.376  18.844  0.00  0.00    +0.000 A 
ATOM     20  C   UNL     1       2.774   2.194  18.235  0.00  0.00    +0.000 A 
ATOM     21  C   UNL     1       1.470   1.741  18.433  0.00  0.00    +0.000 A 
ATOM     22  C   UNL     1       0.612   2.461  19.250  0.00  0.00    +0.000 A 
ATOM     23  C   UNL     1       1.069   3.616  19.886  0.00  0.00    +0.000 A 
ATOM     24  C   UNL     1       2.392   4.086  19.711  0.00  0.00    +0.000 A 
BRANCH  19  29
ATOM     25  C   UNL     1       7.244   4.692  16.184  0.00  0.00    +0.000 C 
ATOM     26  C   UNL     1       6.406   4.371  17.357  0.00  0.00    +0.000 A 
ATOM     27  N   UNL     1       6.736   4.410  18.628  0.00  0.00    +0.000 NA
ATOM     28  N   UNL     1       5.629   4.048  19.363  0.00  0.00    +0.000 NA
ATOM     29  C   UNL     1       4.633   3.793  18.538  0.00  0.00    +0.000 A 
ATOM     30  N   UNL     1       5.103   3.977  17.259  0.00  0.00    +0.000 N 
ATOM     31  H   UNL     1       4.576   3.863  16.408  0.00  0.00    +0.000 HD
ENDBRANCH  19  29
ENDBRANCH  18  24
ENDBRANCH   1  18
TORSDOF 4
ENDMDL
MODEL 3
REMARK VINA RESULT:      -9.4      4.723      9.202
REMARK  Name = 
REMARK  5 active torsions:
REMARK  status: ('A' for Active; 'I' for Inactive)
REMARK    1  A    between atoms: C_1  and  C_2
REMARK    2  A    between atoms: C_5  and  C_6
REMARK    3  A    between atoms: C_11  and  C_12
REMARK    4  A    between atoms: C_12  and  C_13
REMARK    5  A    between atoms: N_19  and  C_20
REMARK                            x       y       z     vdW  Elec       q    Type
REMARK                         _______ _______ _______ _____ _____    ______ ____
ROOT
ATOM      1  C   UNL     1      -0.820  11.227  18.446  0.00  0.00    +0.000 A 
ATOM      2  N   UNL     1      -1.727  11.760  19.217  0.00  0.00    +0.000 NA
ATOM      3  C   UNL     1      -2.979  11.697  18.701  0.00  0.00    +0.000 A 
ATOM      4  C   UNL     1      -3.359  11.170  17.491  0.00  0.00    +0.000 A 
ATOM      5  C   UNL     1      -4.725  11.435  17.373  0.00  0.00    +0.000 A 
ATOM      6  N   UNL     1      -5.209  12.051  18.458  0.00  0.00    +0.000 NA
ATOM      7  N   UNL     1      -4.134  12.151  19.286  0.00  0.00    +0.000 N 
ATOM      8  C   UNL     1      -2.370  10.543  16.672  0.00  0.00    +0.000 A 
ATOM      9  O   UNL     1      -2.597   9.992  15.602  0.00  0.00    +0.000 OA
ATOM     10  N   UNL     1      -1.105  10.613  17.226  0.00  0.00    +0.000 N 
ATOM     11  H   UNL     1      -0.380  10.171  16.685  0.00  0.00    +0.000 HD
ENDROOT
BRANCH   7  12
ATOM     12  C   UNL     1      -4.282  12.665  20.645  0.00  0.00    +0.000 C 
ATOM     13  C   UNL     1      -5.691  12.449  21.219  0.00  0.00    +0.000 C 
ATOM     14  C   UNL     1      -5.829  13.104  22.583  0.00  0.00    +0.000 C 
ATOM     15  O   UNL     1      -5.483  14.486  22.513  0.00  0.00    +0.000 OA
ATOM     16  C   UNL     1      -4.125  14.680  22.123  0.00  0.00    +0.000 C 
ATOM     17  C   UNL     1      -3.882  14.140  20.724  0.00  0.00    +0.000 C 
ENDBRANCH   7  12
BRANCH   1  18
ATOM     18  C   UNL     1       0.648  11.227  18.833  0.00  0.00    +0.000 C 
BRANCH  18  24
ATOM     19  C   UNL     1       1.185   9.090  20.207  0.00  0.00    +0.000 A 
ATOM     20  C   UNL     1       1.720   7.780  20.209  0.00  0.00    +0.000 A 
ATOM     21  C   UNL     1       2.327   7.230  19.081  0.00  0.00    +0.000 A 
ATOM     22  C   UNL     1       2.413   7.977  17.917  0.00  0.00    +0.000 A 
ATOM     23  C   UNL     1       1.870   9.262  17.877  0.00  0.00    +0.000 A 
ATOM     24  C   UNL     1       1.236   9.835  19.005  0.00  0.00    +0.000 A 
BRANCH  19  29
ATOM     25  C   UNL     1      -1.940  11.434  23.281  0.00  0.00    +0.000 C 
ATOM     26  C   UNL     1      -0.780  10.642  22.826  0.00  0.00    +0.000 A 
ATOM     27  N   UNL     1       0.159  10.081  23.553  0.00  0.00    +0.000 NA
ATOM     28  N   UNL     1       1.023   9.430  22.699  0.00  0.00    +0.000 NA
ATOM     29  C   UNL     1       0.604   9.596  21.459  0.00  0.00    +0.000 A 
ATOM     30  N   UNL     1      -0.531  10.372  21.511  0.00  0.00    +0.000 N 
ATOM     31  H   UNL     1      -1.086  10.668  20.724  0.00  0.00    +0.000 HD
ENDBRANCH  19  29
ENDBRANCH  18  24
ENDBRANCH   1  18
TORSDOF 4
ENDMDL
MODEL 4
REMARK VINA RESULT:      -9.3      0.758      1.177
REMARK  Name = 
REMARK  5 active torsions:
REMARK  status: ('A' for Active; 'I' for Inactive)
REMARK    1  A    between atoms: C_1  and  C_2
REMARK    2  A    between atoms: C_5  and  C_6
REMARK    3  A    between atoms: C_11  and  C_12
REMARK    4  A    between atoms: C_12  and  C_13
REMARK    5  A    between atoms: N_19  and  C_20
REMARK                            x       y       z     vdW  Elec       q    Type
REMARK                         _______ _______ _______ _____ _____    ______ ____
ROOT
ATOM      1  C   UNL     1       2.094   5.707  20.225  0.00  0.00    +0.000 A 
ATOM      2  N   UNL     1       3.261   5.451  19.702  0.00  0.00    +0.000 NA
ATOM      3  C   UNL     1       3.368   4.190  19.213  0.00  0.00    +0.000 A 
ATOM      4  C   UNL     1       2.417   3.200  19.239  0.00  0.00    +0.000 A 
ATOM      5  C   UNL     1       3.036   2.064  18.714  0.00  0.00    +0.000 A 
ATOM      6  N   UNL     1       4.293   2.315  18.328  0.00  0.00    +0.000 NA
ATOM      7  N   UNL     1       4.459   3.639  18.590  0.00  0.00    +0.000 N 
ATOM      8  C   UNL     1       1.125   3.501  19.769  0.00  0.00    +0.000 A 
ATOM      9  O   UNL     1       0.181   2.719  19.795  0.00  0.00    +0.000 OA
ATOM     10  N   UNL     1       1.039   4.794  20.250  0.00  0.00    +0.000 N 
ATOM     11  H   UNL     1       0.139   5.051  20.621  0.00  0.00    +0.000 HD
ENDROOT
BRANCH   7  12
ATOM     12  C   UNL     1       5.680   4.333  18.189  0.00  0.00    +0.000 C 
ATOM     13  C   UNL     1       6.270   5.204  19.310  0.00  0.00    +0.000 C 
ATOM     14  C   UNL     1       7.467   5.996  18.810  0.00  0.00    +0.000 C 
ATOM     15  O   UNL     1       7.116   6.764  17.660  0.00  0.00    +0.000 OA
ATOM     16  C   UNL     1       6.710   5.941  16.569  0.00  0.00    +0.000 C 
ATOM     17  C   UNL     1       5.455   5.158  16.921  0.00  0.00    +0.000 C 
ENDBRANCH   7  12
BRANCH   1  18
ATOM     18  C   UNL     1       1.788   7.055  20.853  0.00  0.00    +0.000 C 
BRANCH  18  24
ATOM     19  C   UNL     1       1.142   9.462  20.125  0.00  0.00    +0.000 A 
ATOM     20  C   UNL     1       1.185  10.451  19.114  0.00  0.00    +0.000 A 
ATOM     21  C   UNL     1       1.725  10.195  17.855  0.00  0.00    +0.000 A 
ATOM     22  C   UNL     1       2.240   8.940  17.572  0.00  0.00    +0.000 A 
ATOM     23  C   UNL     1       2.235   7.953  18.559  0.00  0.00    +0.000 A 
ATOM     24  C   UNL     1       1.706   8.194  19.848  0.00  0.00    +0.000 A 
BRANCH  19  29
ATOM     25  C   UNL     1      -2.028  11.539  23.341  0.00  0.00    +0.000 C 
ATOM     26  C   UNL     1      -0.891  10.744  22.836  0.00  0.00    +0.000 A 
ATOM     27  N   UNL     1      -0.037  10.018  23.520  0.00  0.00    +0.000 NA
ATOM     28  N   UNL     1       0.839   9.442  22.627  0.00  0.00    +0.000 NA
ATOM     29  C   UNL     1       0.512   9.817  21.405  0.00  0.00    +0.000 A 
ATOM     30  N   UNL     1      -0.574  10.654  21.511  0.00  0.00    +0.000 N 
ATOM     31  H   UNL     1      -1.058  11.101  20.748  0.00  0.00    +0.000 HD
ENDBRANCH  19  29
ENDBRANCH  18  24
ENDBRANCH   1  18
TORSDOF 4
ENDMDL
MODEL 5
REMARK VINA RESULT:      -9.1      2.817      7.449
REMARK  Name = 
REMARK  5 active torsions:
REMARK  status: ('A' for Active; 'I' for Inactive)
REMARK    1  A    between atoms: C_1  and  C_2
REMARK    2  A    between atoms: C_5  and  C_6
REMARK    3  A    between atoms: C_11  and  C_12
REMARK    4  A    between atoms: C_12  and  C_13
REMARK    5  A    between atoms: N_19  and  C_20
REMARK                            x       y       z     vdW  Elec       q    Type
REMARK                         _______ _______ _______ _____ _____    ______ ____
ROOT
ATOM      1  C   UNL     1       5.388   4.116  19.125  0.00  0.00    +0.000 A 
ATOM      2  N   UNL     1       4.592   5.150  19.119  0.00  0.00    +0.000 NA
ATOM      3  C   UNL     1       3.424   4.936  19.773  0.00  0.00    +0.000 A 
ATOM      4  C   UNL     1       3.011   3.780  20.390  0.00  0.00    +0.000 A 
ATOM      5  C   UNL     1       1.706   4.025  20.821  0.00  0.00    +0.000 A 
ATOM      6  N   UNL     1       1.316   5.275  20.544  0.00  0.00    +0.000 NA
ATOM      7  N   UNL     1       2.404   5.836  19.952  0.00  0.00    +0.000 N 
ATOM      8  C   UNL     1       3.905   2.668  20.436  0.00  0.00    +0.000 A 
ATOM      9  O   UNL     1       3.671   1.607  21.004  0.00  0.00    +0.000 OA
ATOM     10  N   UNL     1       5.092   2.916  19.772  0.00  0.00    +0.000 N 
ATOM     11  H   UNL     1       5.756   2.159  19.792  0.00  0.00    +0.000 HD
ENDROOT
BRANCH   7  12
ATOM     12  C   UNL     1       2.420   7.255  19.606  0.00  0.00    +0.000 C 
ATOM     13  C   UNL     1       1.405   8.081  20.412  0.00  0.00    +0.000 C 
ATOM     14  C   UNL     1       1.376   9.523  19.934  0.00  0.00    +0.000 C 
ATOM     15  O   UNL     1       1.125   9.582  18.531  0.00  0.00    +0.000 OA
ATOM     16  C   UNL     1       2.151   8.941  17.775  0.00  0.00    +0.000 C 
ATOM     17  C   UNL     1       2.218   7.459  18.104  0.00  0.00    +0.000 C 
ENDBRANCH   7  12
BRANCH   1  18
ATOM     18  C   UNL     1       6.731   4.147  18.418  0.00  0.00    +0.000 C 
BRANCH  18  24
ATOM     19  C   UNL     1       7.072   6.129  16.775  0.00  0.00    +0.000 A 
ATOM     20  C   UNL     1       7.498   7.466  16.596  0.00  0.00    +0.000 A 
ATOM     21  C   UNL     1       8.074   8.202  17.631  0.00  0.00    +0.000 A 
ATOM     22  C   UNL     1       8.237   7.618  18.877  0.00  0.00    +0.000 A 
ATOM     23  C   UNL     1       7.801   6.309  19.091  0.00  0.00    +0.000 A 
ATOM     24  C   UNL     1       7.201   5.550  18.060  0.00  0.00    +0.000 A 
BRANCH  19  29
ATOM     25  C   UNL     1       6.887   3.839  12.367  0.00  0.00    +0.000 C 
ATOM     26  C   UNL     1       6.432   4.412  13.650  0.00  0.00    +0.000 A 
ATOM     27  N   UNL     1       5.221   4.409  14.158  0.00  0.00    +0.000 NA
ATOM     28  N   UNL     1       5.276   5.043  15.381  0.00  0.00    +0.000 NA
ATOM     29  C   UNL     1       6.517   5.424  15.610  0.00  0.00    +0.000 A 
ATOM     30  N   UNL     1       7.269   5.048  14.521  0.00  0.00    +0.000 N 
ATOM     31  H   UNL     1       8.258   5.197  14.401  0.00  0.00    +0.000 HD
ENDBRANCH  19  29
ENDBRANCH  18  24
ENDBRANCH   1  18
TORSDOF 4
ENDMDL
MODEL 6
REMARK VINA RESULT:      -9.1      5.002     10.261
REMARK  Name = 
REMARK  5 active torsions:
REMARK  status: ('A' for Active; 'I' for Inactive)
REMARK    1  A    between atoms: C_1  and  C_2
REMARK    2  A    between atoms: C_5  and  C_6
REMARK    3  A    between atoms: C_11  and  C_12
REMARK    4  A    between atoms: C_12  and  C_13
REMARK    5  A    between atoms: N_19  and  C_20
REMARK                            x       y       z     vdW  Elec       q    Type
REMARK                         _______ _______ _______ _____ _____    ______ ____
ROOT
ATOM      1  C   UNL     1      -1.667  11.706  18.805  0.00  0.00    +0.000 A 
ATOM      2  N   UNL     1      -2.813  11.964  19.372  0.00  0.00    +0.000 NA
ATOM      3  C   UNL     1      -3.875  11.789  18.548  0.00  0.00    +0.000 A 
ATOM      4  C   UNL     1      -3.855  11.408  17.228  0.00  0.00    +0.000 A 
ATOM      5  C   UNL     1      -5.181  11.472  16.794  0.00  0.00    +0.000 A 
ATOM      6  N   UNL     1      -6.012  11.827  17.781  0.00  0.00    +0.000 NA
ATOM      7  N   UNL     1      -5.199  11.961  18.863  0.00  0.00    +0.000 N 
ATOM      8  C   UNL     1      -2.603  11.079  16.626  0.00  0.00    +0.000 A 
ATOM      9  O   UNL     1      -2.465  10.675  15.477  0.00  0.00    +0.000 OA
ATOM     10  N   UNL     1      -1.538  11.256  17.490  0.00  0.00    +0.000 N 
ATOM     11  H   UNL     1      -0.636  11.023  17.107  0.00  0.00    +0.000 HD
ENDROOT
BRANCH   7  12
ATOM     12  C   UNL     1      -5.754  12.225  20.188  0.00  0.00    +0.000 C 
ATOM     13  C   UNL     1      -7.096  11.514  20.430  0.00  0.00    +0.000 C 
ATOM     14  C   UNL     1      -7.689  11.914  21.770  0.00  0.00    +0.000 C 
ATOM     15  O   UNL     1      -7.807  13.332  21.865  0.00  0.00    +0.000 OA
ATOM     16  C   UNL     1      -6.540  13.982  21.790  0.00  0.00    +0.000 C 
ATOM     17  C   UNL     1      -5.881  13.727  20.444  0.00  0.00    +0.000 C 
ENDBRANCH   7  12
BRANCH   1  18
ATOM     18  C   UNL     1      -0.358  11.874  19.554  0.00  0.00    +0.000 C 
BRANCH  18  24
ATOM     19  C   UNL     1       0.549   9.732  20.710  0.00  0.00    +0.000 A 
ATOM     20  C   UNL     1       0.656   8.977  21.902  0.00  0.00    +0.000 A 
ATOM     21  C   UNL     1       0.007   9.358  23.076  0.00  0.00    +0.000 A 
ATOM     22  C   UNL     1      -0.765  10.508  23.089  0.00  0.00    +0.000 A 
ATOM     23  C   UNL     1      -0.866  11.288  21.935  0.00  0.00    +0.000 A 
ATOM     24  C   UNL     1      -0.205  10.929  20.738  0.00  0.00    +0.000 A 
BRANCH  19  29
ATOM     25  C   UNL     1       3.346   6.794  17.837  0.00  0.00    +0.000 C 
ATOM     26  C   UNL     1       2.482   7.922  18.237  0.00  0.00    +0.000 A 
ATOM     27  N   UNL     1       2.020   8.898  17.489  0.00  0.00    +0.000 NA
ATOM     28  N   UNL     1       1.243   9.710  18.287  0.00  0.00    +0.000 NA
ATOM     29  C   UNL     1       1.235   9.224  19.513  0.00  0.00    +0.000 A 
ATOM     30  N   UNL     1       2.025   8.097  19.511  0.00  0.00    +0.000 N 
ATOM     31  H   UNL     1       2.212   7.500  20.301  0.00  0.00    +0.000 HD
ENDBRANCH  19  29
ENDBRANCH  18  24
ENDBRANCH   1  18
TORSDOF 4
ENDMDL
MODEL 7
REMARK VINA RESULT:      -8.8      4.706     10.035
REMARK  Name = 
REMARK  5 active torsions:
REMARK  status: ('A' for Active; 'I' for Inactive)
REMARK    1  A    between atoms: C_1  and  C_2
REMARK    2  A    between atoms: C_5  and  C_6
REMARK    3  A    between atoms: C_11  and  C_12
REMARK    4  A    between atoms: C_12  and  C_13
REMARK    5  A    between atoms: N_19  and  C_20
REMARK                            x       y       z     vdW  Elec       q    Type
REMARK                         _______ _______ _______ _____ _____    ______ ____
ROOT
ATOM      1  C   UNL     1      -1.622  11.713  18.805  0.00  0.00    +0.000 A 
ATOM      2  N   UNL     1      -2.762  12.095  19.312  0.00  0.00    +0.000 NA
ATOM      3  C   UNL     1      -3.814  11.908  18.476  0.00  0.00    +0.000 A 
ATOM      4  C   UNL     1      -3.787  11.402  17.200  0.00  0.00    +0.000 A 
ATOM      5  C   UNL     1      -5.095  11.506  16.722  0.00  0.00    +0.000 A 
ATOM      6  N   UNL     1      -5.925  12.005  17.647  0.00  0.00    +0.000 NA
ATOM      7  N   UNL     1      -5.131  12.191  18.735  0.00  0.00    +0.000 N 
ATOM      8  C   UNL     1      -2.545  10.940  16.668  0.00  0.00    +0.000 A 
ATOM      9  O   UNL     1      -2.406  10.420  15.567  0.00  0.00    +0.000 OA
ATOM     10  N   UNL     1      -1.492  11.132  17.544  0.00  0.00    +0.000 N 
ATOM     11  H   UNL     1      -0.598  10.809  17.211  0.00  0.00    +0.000 HD
ENDROOT
BRANCH   7  12
ATOM     12  C   UNL     1      -5.699  12.615  20.012  0.00  0.00    +0.000 C 
ATOM     13  C   UNL     1      -4.653  12.699  21.136  0.00  0.00    +0.000 C 
ATOM     14  C   UNL     1      -5.310  13.026  22.466  0.00  0.00    +0.000 C 
ATOM     15  O   UNL     1      -6.342  12.087  22.761  0.00  0.00    +0.000 OA
ATOM     16  C   UNL     1      -7.388  12.118  21.792  0.00  0.00    +0.000 C 
ATOM     17  C   UNL     1      -6.867  11.716  20.422  0.00  0.00    +0.000 C 
ENDBRANCH   7  12
BRANCH   1  18
ATOM     18  C   UNL     1      -0.323  11.870  19.574  0.00  0.00    +0.000 C 
BRANCH  18  24
ATOM     19  C   UNL     1       0.562   9.716  20.723  0.00  0.00    +0.000 A 
ATOM     20  C   UNL     1       0.650   8.950  21.910  0.00  0.00    +0.000 A 
ATOM     21  C   UNL     1      -0.014   9.323  23.078  0.00  0.00    +0.000 A 
ATOM     22  C   UNL     1      -0.783  10.475  23.091  0.00  0.00    +0.000 A 
ATOM     23  C   UNL     1      -0.866  11.265  21.943  0.00  0.00    +0.000 A 
ATOM     24  C   UNL     1      -0.189  10.915  20.751  0.00  0.00    +0.000 A 
BRANCH  19  29
ATOM     25  C   UNL     1       3.330   6.756  17.844  0.00  0.00    +0.000 C 
ATOM     26  C   UNL     1       2.498   7.906  18.253  0.00  0.00    +0.000 A 
ATOM     27  N   UNL     1       2.096   8.920  17.522  0.00  0.00    +0.000 NA
ATOM     28  N   UNL     1       1.327   9.738  18.322  0.00  0.00    +0.000 NA
ATOM     29  C   UNL     1       1.264   9.217  19.531  0.00  0.00    +0.000 A 
ATOM     30  N   UNL     1       2.010   8.061  19.518  0.00  0.00    +0.000 N 
ATOM     31  H   UNL     1       2.151   7.434  20.295  0.00  0.00    +0.000 HD
ENDBRANCH  19  29
ENDBRANCH  18  24
ENDBRANCH   1  18
TORSDOF 4
ENDMDL
MODEL 8
REMARK VINA RESULT:      -8.8      6.574     10.058
REMARK  Name = 
REMARK  5 active torsions:
REMARK  status: ('A' for Active; 'I' for Inactive)
REMARK    1  A    between atoms: C_1  and  C_2
REMARK    2  A    between atoms: C_5  and  C_6
REMARK    3  A    between atoms: C_11  and  C_12
REMARK    4  A    between atoms: C_12  and  C_13
REMARK    5  A    between atoms: N_19  and  C_20
REMARK                            x       y       z     vdW  Elec       q    Type
REMARK                         _______ _______ _______ _____ _____    ______ ____
ROOT
ATOM      1  C   UNL     1      -1.678  11.561  18.651  0.00  0.00    +0.000 A 
ATOM      2  N   UNL     1      -2.788  11.849  19.274  0.00  0.00    +0.000 NA
ATOM      3  C   UNL     1      -3.884  11.796  18.477  0.00  0.00    +0.000 A 
ATOM      4  C   UNL     1      -3.929  11.506  17.136  0.00  0.00    +0.000 A 
ATOM      5  C   UNL     1      -5.260  11.681  16.753  0.00  0.00    +0.000 A 
ATOM      6  N   UNL     1      -6.036  12.017  17.790  0.00  0.00    +0.000 NA
ATOM      7  N   UNL     1      -5.184  12.026  18.849  0.00  0.00    +0.000 N 
ATOM      8  C   UNL     1      -2.718  11.144  16.469  0.00  0.00    +0.000 A 
ATOM      9  O   UNL     1      -2.641  10.813  15.292  0.00  0.00    +0.000 OA
ATOM     10  N   UNL     1      -1.618  11.196  17.306  0.00  0.00    +0.000 N 
ATOM     11  H   UNL     1      -0.745  10.936  16.877  0.00  0.00    +0.000 HD
ENDROOT
BRANCH   7  12
ATOM     12  C   UNL     1      -5.681  12.232  20.208  0.00  0.00    +0.000 C 
ATOM     13  C   UNL     1      -7.067  11.610  20.441  0.00  0.00    +0.000 C 
ATOM     14  C   UNL     1      -7.590  11.952  21.825  0.00  0.00    +0.000 C 
ATOM     15  O   UNL     1      -7.593  13.364  22.027  0.00  0.00    +0.000 OA
ATOM     16  C   UNL     1      -6.281  13.918  21.958  0.00  0.00    +0.000 C 
ATOM     17  C   UNL     1      -5.681  13.716  20.577  0.00  0.00    +0.000 C 
ENDBRANCH   7  12
BRANCH   1  18
ATOM     18  C   UNL     1      -0.339  11.597  19.364  0.00  0.00    +0.000 C 
BRANCH  18  24
ATOM     19  C   UNL     1      -0.559  11.406  21.944  0.00  0.00    +0.000 A 
ATOM     20  C   UNL     1      -0.575  10.559  23.078  0.00  0.00    +0.000 A 
ATOM     21  C   UNL     1      -0.323   9.191  22.980  0.00  0.00    +0.000 A 
ATOM     22  C   UNL     1      -0.052   8.632  21.742  0.00  0.00    +0.000 A 
ATOM     23  C   UNL     1      -0.057   9.438  20.602  0.00  0.00    +0.000 A 
ATOM     24  C   UNL     1      -0.324  10.825  20.676  0.00  0.00    +0.000 A 
BRANCH  19  29
ATOM     25  C   UNL     1      -2.968  15.746  22.200  0.00  0.00    +0.000 C 
ATOM     26  C   UNL     1      -1.862  14.771  22.266  0.00  0.00    +0.000 A 
ATOM     27  N   UNL     1      -0.612  14.981  22.612  0.00  0.00    +0.000 NA
ATOM     28  N   UNL     1       0.053  13.776  22.543  0.00  0.00    +0.000 NA
ATOM     29  C   UNL     1      -0.794  12.842  22.158  0.00  0.00    +0.000 A 
ATOM     30  N   UNL     1      -2.012  13.449  21.962  0.00  0.00    +0.000 N 
ATOM     31  H   UNL     1      -2.863  12.996  21.669  0.00  0.00    +0.000 HD
ENDBRANCH  19  29
ENDBRANCH  18  24
ENDBRANCH   1  18
TORSDOF 4
ENDMDL
MODEL 9
REMARK VINA RESULT:      -8.7      2.941      4.451
REMARK  Name = 
REMARK  5 active torsions:
REMARK  status: ('A' for Active; 'I' for Inactive)
REMARK    1  A    between atoms: C_1  and  C_2
REMARK    2  A    between atoms: C_5  and  C_6
REMARK    3  A    between atoms: C_11  and  C_12
REMARK    4  A    between atoms: C_12  and  C_13
REMARK    5  A    between atoms: N_19  and  C_20
REMARK                            x       y       z     vdW  Elec       q    Type
REMARK                         _______ _______ _______ _____ _____    ______ ____
ROOT
ATOM      1  C   UNL     1       1.785   9.478  18.722  0.00  0.00    +0.000 A 
ATOM      2  N   UNL     1       2.509   8.493  18.268  0.00  0.00    +0.000 NA
ATOM      3  C   UNL     1       2.459   7.383  19.046  0.00  0.00    +0.000 A 
ATOM      4  C   UNL     1       1.769   7.217  20.222  0.00  0.00    +0.000 A 
ATOM      5  C   UNL     1       2.116   5.949  20.691  0.00  0.00    +0.000 A 
ATOM      6  N   UNL     1       2.941   5.315  19.848  0.00  0.00    +0.000 NA
ATOM      7  N   UNL     1       3.093   6.188  18.817  0.00  0.00    +0.000 N 
ATOM      8  C   UNL     1       0.939   8.282  20.689  0.00  0.00    +0.000 A 
ATOM      9  O   UNL     1       0.237   8.231  21.692  0.00  0.00    +0.000 OA
ATOM     10  N   UNL     1       1.001   9.396  19.873  0.00  0.00    +0.000 N 
ATOM     11  H   UNL     1       0.419  10.167  20.161  0.00  0.00    +0.000 HD
ENDROOT
BRANCH   7  12
ATOM     12  C   UNL     1       3.837   5.809  17.619  0.00  0.00    +0.000 C 
ATOM     13  C   UNL     1       3.883   4.289  17.396  0.00  0.00    +0.000 C 
ATOM     14  C   UNL     1       4.764   3.940  16.209  0.00  0.00    +0.000 C 
ATOM     15  O   UNL     1       6.066   4.500  16.368  0.00  0.00    +0.000 OA
ATOM     16  C   UNL     1       6.034   5.925  16.424  0.00  0.00    +0.000 C 
ATOM     17  C   UNL     1       5.247   6.400  17.634  0.00  0.00    +0.000 C 
ENDBRANCH   7  12
BRANCH   1  18
ATOM     18  C   UNL     1       1.735  10.817  18.009  0.00  0.00    +0.000 C 
BRANCH  18  24
ATOM     19  C   UNL     1      -0.369  12.096  18.832  0.00  0.00    +0.000 A 
ATOM     20  C   UNL     1      -0.894  13.114  19.663  0.00  0.00    +0.000 A 
ATOM     21  C   UNL     1      -0.069  13.954  20.411  0.00  0.00    +0.000 A 
ATOM     22  C   UNL     1       1.306  13.795  20.348  0.00  0.00    +0.000 A 
ATOM     23  C   UNL     1       1.851  12.781  19.558  0.00  0.00    +0.000 A 
ATOM     24  C   UNL     1       1.033  11.908  18.804  0.00  0.00    +0.000 A 
BRANCH  19  29
ATOM     25  C   UNL     1      -3.338  10.726  15.088  0.00  0.00    +0.000 C 
ATOM     26  C   UNL     1      -2.644  10.685  16.390  0.00  0.00    +0.000 A 
ATOM     27  N   UNL     1      -2.697   9.750  17.312  0.00  0.00    +0.000 NA
ATOM     28  N   UNL     1      -1.872  10.131  18.347  0.00  0.00    +0.000 NA
ATOM     29  C   UNL     1      -1.320  11.291  18.051  0.00  0.00    +0.000 A 
ATOM     30  N   UNL     1      -1.804  11.672  16.820  0.00  0.00    +0.000 N 
ATOM     31  H   UNL     1      -1.565  12.513  16.320  0.00  0.00    +0.000 HD
ENDBRANCH  19  29
ENDBRANCH  18  24
ENDBRANCH   1  18
TORSDOF 4
ENDMDL
