MODEL 1
REMARK VINA RESULT:      -8.8      0.000      0.000
REMARK  Name = 
REMARK  5 active torsions:
REMARK  status: ('A' for Active; 'I' for Inactive)
REMARK    1  A    between atoms: C_10  and  C_11
REMARK    2  A    between atoms: C_11  and  O_13
REMARK    3  A    between atoms: C_14  and  C_15
REMARK    4  A    between atoms: C_15  and  O_17
REMARK    5  A    between atoms: C_22  and  C_23
REMARK                            x       y       z     vdW  Elec       q    Type
REMARK                         _______ _______ _______ _____ _____    ______ ____
ROOT
ATOM      1  O   UNL     1       0.396   4.428  20.440  0.00  0.00    +0.000 OA
ATOM      2  C   UNL     1       1.457   4.870  19.999  0.00  0.00    +0.000 C 
ATOM      3  C   UNL     1       2.626   3.933  19.878  0.00  0.00    +0.000 A 
ATOM      4  C   UNL     1       2.834   3.270  21.113  0.00  0.00    +0.000 A 
ATOM      5  C   UNL     1       3.800   2.291  21.256  0.00  0.00    +0.000 A 
ATOM      6  C   UNL     1       4.496   1.883  20.131  0.00  0.00    +0.000 A 
ATOM      7  C   UNL     1       4.283   2.512  18.888  0.00  0.00    +0.000 A 
ATOM      8  C   UNL     1       3.451   3.650  18.715  0.00  0.00    +0.000 A 
ATOM      9  C   UNL     1       3.599   4.697  17.224  0.00  0.00    +0.000 C 
ATOM     10  C   UNL     1       4.842   6.119  16.774  0.00  0.00    +0.000 C 
ATOM     11  C   UNL     1       5.072   5.760  18.228  0.00  0.00    +0.000 C 
ATOM     12  C   UNL     1       3.278   5.971  17.879  0.00  0.00    +0.000 C 
ATOM     13  C   UNL     1       2.437   6.776  18.825  0.00  0.00    +0.000 A 
ATOM     14  C   UNL     1       2.432   8.162  18.554  0.00  0.00    +0.000 A 
ATOM     15  C   UNL     1       1.698   9.066  19.280  0.00  0.00    +0.000 A 
ATOM     16  C   UNL     1       0.876   8.639  20.321  0.00  0.00    +0.000 A 
ATOM     17  C   UNL     1       0.770   7.241  20.517  0.00  0.00    +0.000 A 
ATOM     18  C   UNL     1       1.567   6.322  19.789  0.00  0.00    +0.000 A 
ENDROOT
BRANCH  16  19
ATOM     19  C   UNL     1       0.238   9.689  21.152  0.00  0.00    +0.000 A 
ATOM     20  C   UNL     1      -0.038   9.399  22.515  0.00  0.00    +0.000 A 
ATOM     21  C   UNL     1      -0.836  10.227  23.307  0.00  0.00    +0.000 A 
ATOM     22  C   UNL     1      -1.326  11.407  22.771  0.00  0.00    +0.000 A 
ATOM     23 CL   UNL     1      -2.322  12.428  23.727  0.00  0.00    +0.000 Cl
ATOM     24  C   UNL     1      -1.037  11.752  21.455  0.00  0.00    +0.000 A 
ATOM     25  C   UNL     1      -0.282  10.894  20.645  0.00  0.00    +0.000 A 
ATOM     26 CL   UNL     1      -0.155  11.361  18.980  0.00  0.00    +0.000 Cl
ENDBRANCH  16  19
BRANCH  10  27
ATOM     27  C   UNL     1       6.100   6.386  15.985  0.00  0.00    +0.000 C 
ATOM     28  O   UNL     1       6.981   7.115  16.448  0.00  0.00    +0.000 OA
BRANCH  27  29
ATOM     29  O   UNL     1       6.193   5.906  14.731  0.00  0.00    +0.000 OA
ATOM     30  H   UNL     1       7.036   5.467  14.602  0.00  0.00    +0.000 HD
ENDBRANCH  27  29
ENDBRANCH  10  27
BRANCH  11  31
ATOM     31  C   UNL     1       6.083   4.360  17.765  0.00  0.00    +0.000 C 
ATOM     32  O   UNL     1       5.949   3.665  16.776  0.00  0.00    +0.000 OA
BRANCH  31  33
ATOM     33  O   UNL     1       7.170   4.168  18.536  0.00  0.00    +0.000 OA
ATOM     34  H   UNL     1       7.937   3.806  18.055  0.00  0.00    +0.000 HD
ENDBRANCH  31  33
ENDBRANCH  11  31
TORSDOF 5
ENDMDL
MODEL 2
REMARK VINA RESULT:      -8.6      5.641     10.894
REMARK  Name = 
REMARK  5 active torsions:
REMARK  status: ('A' for Active; 'I' for Inactive)
REMARK    1  A    between atoms: C_10  and  C_11
REMARK    2  A    between atoms: C_11  and  O_13
REMARK    3  A    between atoms: C_14  and  C_15
REMARK    4  A    between atoms: C_15  and  O_17
REMARK    5  A    between atoms: C_22  and  C_23
REMARK                            x       y       z     vdW  Elec       q    Type
REMARK                         _______ _______ _______ _____ _____    ______ ____
ROOT
ATOM      1  O   UNL     1      -0.952  13.074  22.696  0.00  0.00    +0.000 OA
ATOM      2  C   UNL     1      -1.921  12.685  22.045  0.00  0.00    +0.000 C 
ATOM      3  C   UNL     1      -3.293  12.851  22.638  0.00  0.00    +0.000 A 
ATOM      4  C   UNL     1      -3.314  12.304  23.946  0.00  0.00    +0.000 A 
ATOM      5  C   UNL     1      -4.435  12.393  24.750  0.00  0.00    +0.000 A 
ATOM      6  C   UNL     1      -5.514  13.132  24.296  0.00  0.00    +0.000 A 
ATOM      7  C   UNL     1      -5.500  13.706  23.009  0.00  0.00    +0.000 A 
ATOM      8  C   UNL     1      -4.464  13.488  22.062  0.00  0.00    +0.000 A 
ATOM      9  C   UNL     1      -4.732  13.839  20.287  0.00  0.00    +0.000 C 
ATOM     10  C   UNL     1      -5.589  12.798  18.891  0.00  0.00    +0.000 C 
ATOM     11  C   UNL     1      -5.480  11.910  20.113  0.00  0.00    +0.000 C 
ATOM     12  C   UNL     1      -3.883  12.757  19.772  0.00  0.00    +0.000 C 
ATOM     13  C   UNL     1      -2.609  11.966  19.814  0.00  0.00    +0.000 A 
ATOM     14  C   UNL     1      -2.286  11.331  18.594  0.00  0.00    +0.000 A 
ATOM     15  C   UNL     1      -1.145  10.589  18.413  0.00  0.00    +0.000 A 
ATOM     16  C   UNL     1      -0.216  10.457  19.442  0.00  0.00    +0.000 A 
ATOM     17  C   UNL     1      -0.463  11.196  20.624  0.00  0.00    +0.000 A 
ATOM     18  C   UNL     1      -1.665  11.922  20.813  0.00  0.00    +0.000 A 
ENDROOT
BRANCH  16  19
ATOM     19  C   UNL     1       0.910   9.517  19.220  0.00  0.00    +0.000 A 
ATOM     20  C   UNL     1       1.578   9.545  17.967  0.00  0.00    +0.000 A 
ATOM     21  C   UNL     1       2.486   8.556  17.584  0.00  0.00    +0.000 A 
ATOM     22  C   UNL     1       2.799   7.543  18.476  0.00  0.00    +0.000 A 
ATOM     23 CL   UNL     1       3.901   6.310  18.013  0.00  0.00    +0.000 Cl
ATOM     24  C   UNL     1       2.204   7.508  19.732  0.00  0.00    +0.000 A 
ATOM     25  C   UNL     1       1.252   8.470  20.096  0.00  0.00    +0.000 A 
ATOM     26 CL   UNL     1       0.459   8.198  21.613  0.00  0.00    +0.000 Cl
ENDBRANCH  16  19
BRANCH  10  27
ATOM     27  C   UNL     1      -6.890  12.674  18.136  0.00  0.00    +0.000 C 
ATOM     28  O   UNL     1      -7.369  11.561  17.902  0.00  0.00    +0.000 OA
BRANCH  27  29
ATOM     29  O   UNL     1      -7.456  13.787  17.633  0.00  0.00    +0.000 OA
ATOM     30  H   UNL     1      -7.908  13.590  16.810  0.00  0.00    +0.000 HD
ENDBRANCH  27  29
ENDBRANCH  10  27
BRANCH  11  31
ATOM     31  C   UNL     1      -6.939  12.652  20.833  0.00  0.00    +0.000 C 
ATOM     32  O   UNL     1      -7.359  13.774  20.626  0.00  0.00    +0.000 OA
BRANCH  31  33
ATOM     33  O   UNL     1      -7.697  11.814  21.565  0.00  0.00    +0.000 OA
ATOM     34  H   UNL     1      -8.332  12.264  22.151  0.00  0.00    +0.000 HD
ENDBRANCH  31  33
ENDBRANCH  11  31
TORSDOF 5
ENDMDL
MODEL 3
REMARK VINA RESULT:      -8.0      5.576     11.164
REMARK  Name = 
REMARK  5 active torsions:
REMARK  status: ('A' for Active; 'I' for Inactive)
REMARK    1  A    between atoms: C_10  and  C_11
REMARK    2  A    between atoms: C_11  and  O_13
REMARK    3  A    between atoms: C_14  and  C_15
REMARK    4  A    between atoms: C_15  and  O_17
REMARK    5  A    between atoms: C_22  and  C_23
REMARK                            x       y       z     vdW  Elec       q    Type
REMARK                         _______ _______ _______ _____ _____    ______ ____
ROOT
ATOM      1  O   UNL     1       0.522  14.502  21.078  0.00  0.00    +0.000 OA
ATOM      2  C   UNL     1      -0.559  13.942  21.258  0.00  0.00    +0.000 C 
ATOM      3  C   UNL     1      -1.490  14.503  22.297  0.00  0.00    +0.000 A 
ATOM      4  C   UNL     1      -0.795  14.659  23.523  0.00  0.00    +0.000 A 
ATOM      5  C   UNL     1      -1.397  15.232  24.628  0.00  0.00    +0.000 A 
ATOM      6  C   UNL     1      -2.668  15.760  24.486  0.00  0.00    +0.000 A 
ATOM      7  C   UNL     1      -3.364  15.637  23.267  0.00  0.00    +0.000 A 
ATOM      8  C   UNL     1      -2.883  14.893  22.157  0.00  0.00    +0.000 A 
ATOM      9  C   UNL     1      -4.016  14.368  20.821  0.00  0.00    +0.000 C 
ATOM     10  C   UNL     1      -5.245  12.871  20.698  0.00  0.00    +0.000 C 
ATOM     11  C   UNL     1      -4.421  12.676  21.955  0.00  0.00    +0.000 C 
ATOM     12  C   UNL     1      -3.346  13.096  20.522  0.00  0.00    +0.000 C 
ATOM     13  C   UNL     1      -2.093  12.305  20.288  0.00  0.00    +0.000 A 
ATOM     14  C   UNL     1      -2.286  11.134  19.524  0.00  0.00    +0.000 A 
ATOM     15  C   UNL     1      -1.262  10.291  19.169  0.00  0.00    +0.000 A 
ATOM     16  C   UNL     1       0.052  10.583  19.528  0.00  0.00    +0.000 A 
ATOM     17  C   UNL     1       0.275  11.820  20.179  0.00  0.00    +0.000 A 
ATOM     18  C   UNL     1      -0.795  12.659  20.577  0.00  0.00    +0.000 A 
ENDROOT
BRANCH  16  19
ATOM     19  C   UNL     1       1.076   9.549  19.241  0.00  0.00    +0.000 A 
ATOM     20  C   UNL     1       1.640   9.497  17.939  0.00  0.00    +0.000 A 
ATOM     21  C   UNL     1       2.431   8.428  17.511  0.00  0.00    +0.000 A 
ATOM     22  C   UNL     1       2.734   7.412  18.403  0.00  0.00    +0.000 A 
ATOM     23 CL   UNL     1       3.691   6.083  17.887  0.00  0.00    +0.000 Cl
ATOM     24  C   UNL     1       2.243   7.452  19.703  0.00  0.00    +0.000 A 
ATOM     25  C   UNL     1       1.405   8.496  20.115  0.00  0.00    +0.000 A 
ATOM     26 CL   UNL     1       0.720   8.322  21.698  0.00  0.00    +0.000 Cl
ENDBRANCH  16  19
BRANCH  10  27
ATOM     27  C   UNL     1      -6.706  12.523  20.843  0.00  0.00    +0.000 C 
ATOM     28  O   UNL     1      -7.042  11.440  21.331  0.00  0.00    +0.000 OA
BRANCH  27  29
ATOM     29  O   UNL     1      -7.626  13.364  20.336  0.00  0.00    +0.000 OA
ATOM     30  H   UNL     1      -8.210  13.679  21.029  0.00  0.00    +0.000 HD
ENDBRANCH  27  29
ENDBRANCH  10  27
BRANCH  11  31
ATOM     31  C   UNL     1      -5.464  13.809  22.863  0.00  0.00    +0.000 C 
ATOM     32  O   UNL     1      -6.133  14.710  22.397  0.00  0.00    +0.000 OA
BRANCH  31  33
ATOM     33  O   UNL     1      -5.605  13.522  24.171  0.00  0.00    +0.000 OA
ATOM     34  H   UNL     1      -4.763  13.344  24.630  0.00  0.00    +0.000 HD
ENDBRANCH  31  33
ENDBRANCH  11  31
TORSDOF 5
ENDMDL
MODEL 4
REMARK VINA RESULT:      -7.8      2.473      4.723
REMARK  Name = 
REMARK  5 active torsions:
REMARK  status: ('A' for Active; 'I' for Inactive)
REMARK    1  A    between atoms: C_10  and  C_11
REMARK    2  A    between atoms: C_11  and  O_13
REMARK    3  A    between atoms: C_14  and  C_15
REMARK    4  A    between atoms: C_15  and  O_17
REMARK    5  A    between atoms: C_22  and  C_23
REMARK                            x       y       z     vdW  Elec       q    Type
REMARK                         _______ _______ _______ _____ _____    ______ ____
ROOT
ATOM      1  O   UNL     1       5.383   8.104  17.371  0.00  0.00    +0.000 OA
ATOM      2  C   UNL     1       4.481   7.326  17.679  0.00  0.00    +0.000 C 
ATOM      3  C   UNL     1       4.572   5.902  17.205  0.00  0.00    +0.000 A 
ATOM      4  C   UNL     1       4.796   5.881  15.805  0.00  0.00    +0.000 A 
ATOM      5  C   UNL     1       4.998   4.696  15.122  0.00  0.00    +0.000 A 
ATOM      6  C   UNL     1       5.091   3.524  15.851  0.00  0.00    +0.000 A 
ATOM      7  C   UNL     1       4.898   3.529  17.247  0.00  0.00    +0.000 A 
ATOM      8  C   UNL     1       4.496   4.676  17.981  0.00  0.00    +0.000 A 
ATOM      9  C   UNL     1       3.797   4.512  19.663  0.00  0.00    +0.000 C 
ATOM     10  C   UNL     1       2.006   4.072  20.268  0.00  0.00    +0.000 C 
ATOM     11  C   UNL     1       1.940   4.267  18.767  0.00  0.00    +0.000 C 
ATOM     12  C   UNL     1       2.864   5.642  19.568  0.00  0.00    +0.000 C 
ATOM     13  C   UNL     1       2.564   7.057  19.170  0.00  0.00    +0.000 A 
ATOM     14  C   UNL     1       1.498   7.642  19.888  0.00  0.00    +0.000 A 
ATOM     15  C   UNL     1       1.090   8.940  19.699  0.00  0.00    +0.000 A 
ATOM     16  C   UNL     1       1.751   9.766  18.794  0.00  0.00    +0.000 A 
ATOM     17  C   UNL     1       2.903   9.232  18.167  0.00  0.00    +0.000 A 
ATOM     18  C   UNL     1       3.287   7.879  18.337  0.00  0.00    +0.000 A 
ENDROOT
BRANCH  16  19
ATOM     19  C   UNL     1       1.156  11.100  18.536  0.00  0.00    +0.000 A 
ATOM     20  C   UNL     1       2.011  12.234  18.529  0.00  0.00    +0.000 A 
ATOM     21  C   UNL     1       1.518  13.540  18.526  0.00  0.00    +0.000 A 
ATOM     22  C   UNL     1       0.149  13.746  18.462  0.00  0.00    +0.000 A 
ATOM     23 CL   UNL     1      -0.474  15.346  18.475  0.00  0.00    +0.000 Cl
ATOM     24  C   UNL     1      -0.721  12.661  18.417  0.00  0.00    +0.000 A 
ATOM     25  C   UNL     1      -0.228  11.351  18.475  0.00  0.00    +0.000 A 
ATOM     26 CL   UNL     1      -1.429  10.107  18.596  0.00  0.00    +0.000 Cl
ENDBRANCH  16  19
BRANCH  10  27
ATOM     27  C   UNL     1       1.181   2.921  20.790  0.00  0.00    +0.000 C 
ATOM     28  O   UNL     1       1.475   2.382  21.860  0.00  0.00    +0.000 OA
BRANCH  27  29
ATOM     29  O   UNL     1       0.193   2.430  20.020  0.00  0.00    +0.000 OA
ATOM     30  H   UNL     1      -0.425   3.125  19.783  0.00  0.00    +0.000 HD
ENDBRANCH  27  29
ENDBRANCH  10  27
BRANCH  11  31
ATOM     31  C   UNL     1       2.545   2.608  18.484  0.00  0.00    +0.000 C 
ATOM     32  O   UNL     1       3.285   1.974  19.210  0.00  0.00    +0.000 OA
BRANCH  31  33
ATOM     33  O   UNL     1       2.001   1.982  17.424  0.00  0.00    +0.000 OA
ATOM     34  H   UNL     1       1.449   2.558  16.864  0.00  0.00    +0.000 HD
ENDBRANCH  31  33
ENDBRANCH  11  31
TORSDOF 5
ENDMDL
MODEL 5
REMARK VINA RESULT:      -7.6      1.116      1.514
REMARK  Name = 
REMARK  5 active torsions:
REMARK  status: ('A' for Active; 'I' for Inactive)
REMARK    1  A    between atoms: C_10  and  C_11
REMARK    2  A    between atoms: C_11  and  O_13
REMARK    3  A    between atoms: C_14  and  C_15
REMARK    4  A    between atoms: C_15  and  O_17
REMARK    5  A    between atoms: C_22  and  C_23
REMARK                            x       y       z     vdW  Elec       q    Type
REMARK                         _______ _______ _______ _____ _____    ______ ____
ROOT
ATOM      1  O   UNL     1       0.510   4.832  20.126  0.00  0.00    +0.000 OA
ATOM      2  C   UNL     1       1.600   5.186  19.679  0.00  0.00    +0.000 C 
ATOM      3  C   UNL     1       2.726   4.190  19.669  0.00  0.00    +0.000 A 
ATOM      4  C   UNL     1       2.874   3.627  20.961  0.00  0.00    +0.000 A 
ATOM      5  C   UNL     1       3.790   2.622  21.212  0.00  0.00    +0.000 A 
ATOM      6  C   UNL     1       4.491   2.088  20.146  0.00  0.00    +0.000 A 
ATOM      7  C   UNL     1       4.337   2.617  18.849  0.00  0.00    +0.000 A 
ATOM      8  C   UNL     1       3.563   3.772  18.557  0.00  0.00    +0.000 A 
ATOM      9  C   UNL     1       3.795   4.679  16.987  0.00  0.00    +0.000 C 
ATOM     10  C   UNL     1       5.113   5.999  16.452  0.00  0.00    +0.000 C 
ATOM     11  C   UNL     1       5.293   5.757  17.937  0.00  0.00    +0.000 C 
ATOM     12  C   UNL     1       3.519   6.018  17.523  0.00  0.00    +0.000 C 
ATOM     13  C   UNL     1       2.695   6.938  18.374  0.00  0.00    +0.000 A 
ATOM     14  C   UNL     1       2.762   8.294  17.987  0.00  0.00    +0.000 A 
ATOM     15  C   UNL     1       2.054   9.290  18.613  0.00  0.00    +0.000 A 
ATOM     16  C   UNL     1       1.190   8.991  19.664  0.00  0.00    +0.000 A 
ATOM     17  C   UNL     1       1.013   7.621  19.974  0.00  0.00    +0.000 A 
ATOM     18  C   UNL     1       1.782   6.608  19.349  0.00  0.00    +0.000 A 
ENDROOT
BRANCH  16  19
ATOM     19  C   UNL     1       0.582  10.135  20.386  0.00  0.00    +0.000 A 
ATOM     20  C   UNL     1       0.918  11.452  19.974  0.00  0.00    +0.000 A 
ATOM     21  C   UNL     1       0.584  12.578  20.728  0.00  0.00    +0.000 A 
ATOM     22  C   UNL     1      -0.159  12.419  21.887  0.00  0.00    +0.000 A 
ATOM     23 CL   UNL     1      -0.565  13.793  22.835  0.00  0.00    +0.000 Cl
ATOM     24  C   UNL     1      -0.552  11.150  22.298  0.00  0.00    +0.000 A 
ATOM     25  C   UNL     1      -0.169  10.016  21.570  0.00  0.00    +0.000 A 
ATOM     26 CL   UNL     1      -0.569   8.494  22.296  0.00  0.00    +0.000 Cl
ENDBRANCH  16  19
BRANCH  10  27
ATOM     27  C   UNL     1       6.400   6.142  15.677  0.00  0.00    +0.000 C 
ATOM     28  O   UNL     1       6.483   5.709  14.525  0.00  0.00    +0.000 OA
BRANCH  27  29
ATOM     29  O   UNL     1       7.480   6.650  16.301  0.00  0.00    +0.000 OA
ATOM     30  H   UNL     1       8.265   6.528  15.763  0.00  0.00    +0.000 HD
ENDBRANCH  27  29
ENDBRANCH  10  27
BRANCH  11  31
ATOM     31  C   UNL     1       6.247   4.278  17.622  0.00  0.00    +0.000 C 
ATOM     32  O   UNL     1       6.075   3.483  16.718  0.00  0.00    +0.000 OA
BRANCH  31  33
ATOM     33  O   UNL     1       7.338   4.134  18.398  0.00  0.00    +0.000 OA
ATOM     34  H   UNL     1       8.065   3.645  17.971  0.00  0.00    +0.000 HD
ENDBRANCH  31  33
ENDBRANCH  11  31
TORSDOF 5
ENDMDL
MODEL 6
REMARK VINA RESULT:      -7.4      4.637      9.387
REMARK  Name = 
REMARK  5 active torsions:
REMARK  status: ('A' for Active; 'I' for Inactive)
REMARK    1  A    between atoms: C_10  and  C_11
REMARK    2  A    between atoms: C_11  and  O_13
REMARK    3  A    between atoms: C_14  and  C_15
REMARK    4  A    between atoms: C_15  and  O_17
REMARK    5  A    between atoms: C_22  and  C_23
REMARK                            x       y       z     vdW  Elec       q    Type
REMARK                         _______ _______ _______ _____ _____    ______ ____
ROOT
ATOM      1  O   UNL     1       1.344  11.501  21.579  0.00  0.00    +0.000 OA
ATOM      2  C   UNL     1       0.368  11.205  20.890  0.00  0.00    +0.000 C 
ATOM      3  C   UNL     1      -0.993  11.650  21.350  0.00  0.00    +0.000 A 
ATOM      4  C   UNL     1      -1.191  11.255  22.698  0.00  0.00    +0.000 A 
ATOM      5  C   UNL     1      -2.332  11.607  23.395  0.00  0.00    +0.000 A 
ATOM      6  C   UNL     1      -3.239  12.456  22.787  0.00  0.00    +0.000 A 
ATOM      7  C   UNL     1      -3.045  12.881  21.457  0.00  0.00    +0.000 A 
ATOM      8  C   UNL     1      -2.000  12.402  20.623  0.00  0.00    +0.000 A 
ATOM      9  C   UNL     1      -2.089  12.601  18.807  0.00  0.00    +0.000 C 
ATOM     10  C   UNL     1      -3.015  11.569  17.449  0.00  0.00    +0.000 C 
ATOM     11  C   UNL     1      -3.136  10.809  18.754  0.00  0.00    +0.000 C 
ATOM     12  C   UNL     1      -1.401  11.349  18.467  0.00  0.00    +0.000 C 
ATOM     13  C   UNL     1      -0.283  10.373  18.687  0.00  0.00    +0.000 A 
ATOM     14  C   UNL     1       0.008   9.570  17.563  0.00  0.00    +0.000 A 
ATOM     15  C   UNL     1       1.018   8.640  17.546  0.00  0.00    +0.000 A 
ATOM     16  C   UNL     1       1.843   8.470  18.656  0.00  0.00    +0.000 A 
ATOM     17  C   UNL     1       1.646   9.360  19.739  0.00  0.00    +0.000 A 
ATOM     18  C   UNL     1       0.572  10.285  19.760  0.00  0.00    +0.000 A 
ENDROOT
BRANCH  16  19
ATOM     19  C   UNL     1       2.808   7.344  18.615  0.00  0.00    +0.000 A 
ATOM     20  C   UNL     1       3.756   7.302  17.560  0.00  0.00    +0.000 A 
ATOM     21  C   UNL     1       4.543   6.177  17.308  0.00  0.00    +0.000 A 
ATOM     22  C   UNL     1       4.448   5.083  18.153  0.00  0.00    +0.000 A 
ATOM     23 CL   UNL     1       5.397   3.685  17.848  0.00  0.00    +0.000 Cl
ATOM     24  C   UNL     1       3.567   5.104  19.229  0.00  0.00    +0.000 A 
ATOM     25  C   UNL     1       2.738   6.212  19.448  0.00  0.00    +0.000 A 
ATOM     26 CL   UNL     1       1.564   6.026  20.710  0.00  0.00    +0.000 Cl
ENDBRANCH  16  19
BRANCH  10  27
ATOM     27  C   UNL     1      -4.265  11.575  16.605  0.00  0.00    +0.000 C 
ATOM     28  O   UNL     1      -4.470  10.671  15.790  0.00  0.00    +0.000 OA
BRANCH  27  29
ATOM     29  O   UNL     1      -5.094  12.633  16.681  0.00  0.00    +0.000 OA
ATOM     30  H   UNL     1      -4.825  13.219  17.392  0.00  0.00    +0.000 HD
ENDBRANCH  27  29
ENDBRANCH  10  27
BRANCH  11  31
ATOM     31  C   UNL     1      -4.495  11.847  19.279  0.00  0.00    +0.000 C 
ATOM     32  O   UNL     1      -4.517  13.062  19.286  0.00  0.00    +0.000 OA
BRANCH  31  33
ATOM     33  O   UNL     1      -5.634  11.187  19.558  0.00  0.00    +0.000 OA
ATOM     34  H   UNL     1      -6.068  11.478  20.381  0.00  0.00    +0.000 HD
ENDBRANCH  31  33
ENDBRANCH  11  31
TORSDOF 5
ENDMDL
MODEL 7
REMARK VINA RESULT:      -7.3      5.537     11.249
REMARK  Name = 
REMARK  5 active torsions:
REMARK  status: ('A' for Active; 'I' for Inactive)
REMARK    1  A    between atoms: C_10  and  C_11
REMARK    2  A    between atoms: C_11  and  O_13
REMARK    3  A    between atoms: C_14  and  C_15
REMARK    4  A    between atoms: C_15  and  O_17
REMARK    5  A    between atoms: C_22  and  C_23
REMARK                            x       y       z     vdW  Elec       q    Type
REMARK                         _______ _______ _______ _____ _____    ______ ____
ROOT
ATOM      1  O   UNL     1       1.035  14.822  20.040  0.00  0.00    +0.000 OA
ATOM      2  C   UNL     1       0.028  14.353  20.570  0.00  0.00    +0.000 C 
ATOM      3  C   UNL     1      -0.652  15.154  21.645  0.00  0.00    +0.000 A 
ATOM      4  C   UNL     1       0.298  15.538  22.625  0.00  0.00    +0.000 A 
ATOM      5  C   UNL     1      -0.047  16.352  23.688  0.00  0.00    +0.000 A 
ATOM      6  C   UNL     1      -1.323  16.886  23.722  0.00  0.00    +0.000 A 
ATOM      7  C   UNL     1      -2.273  16.537  22.742  0.00  0.00    +0.000 A 
ATOM      8  C   UNL     1      -2.045  15.558  21.738  0.00  0.00    +0.000 A 
ATOM      9  C   UNL     1      -3.443  14.808  20.829  0.00  0.00    +0.000 C 
ATOM     10  C   UNL     1      -4.652  13.366  21.302  0.00  0.00    +0.000 C 
ATOM     11  C   UNL     1      -3.565  13.408  22.357  0.00  0.00    +0.000 C 
ATOM     12  C   UNL     1      -2.844  13.478  20.666  0.00  0.00    +0.000 C 
ATOM     13  C   UNL     1      -1.667  12.609  20.334  0.00  0.00    +0.000 A 
ATOM     14  C   UNL     1      -2.014  11.311  19.899  0.00  0.00    +0.000 A 
ATOM     15  C   UNL     1      -1.087  10.375  19.514  0.00  0.00    +0.000 A 
ATOM     16  C   UNL     1       0.271  10.686  19.502  0.00  0.00    +0.000 A 
ATOM     17  C   UNL     1       0.622  12.023  19.809  0.00  0.00    +0.000 A 
ATOM     18  C   UNL     1      -0.341  12.966  20.247  0.00  0.00    +0.000 A 
ENDROOT
BRANCH  16  19
ATOM     19  C   UNL     1       1.216   9.577  19.223  0.00  0.00    +0.000 A 
ATOM     20  C   UNL     1       1.773   9.474  17.921  0.00  0.00    +0.000 A 
ATOM     21  C   UNL     1       2.482   8.347  17.500  0.00  0.00    +0.000 A 
ATOM     22  C   UNL     1       2.711   7.318  18.399  0.00  0.00    +0.000 A 
ATOM     23 CL   UNL     1       3.566   5.918  17.892  0.00  0.00    +0.000 Cl
ATOM     24  C   UNL     1       2.225   7.403  19.699  0.00  0.00    +0.000 A 
ATOM     25  C   UNL     1       1.467   8.509  20.104  0.00  0.00    +0.000 A 
ATOM     26 CL   UNL     1       0.772   8.398  21.689  0.00  0.00    +0.000 Cl
ENDBRANCH  16  19
BRANCH  10  27
ATOM     27  C   UNL     1      -6.040  13.111  21.838  0.00  0.00    +0.000 C 
ATOM     28  O   UNL     1      -6.243  12.179  22.621  0.00  0.00    +0.000 OA
BRANCH  27  29
ATOM     29  O   UNL     1      -7.062  13.848  21.365  0.00  0.00    +0.000 OA
ATOM     30  H   UNL     1      -7.033  14.734  21.730  0.00  0.00    +0.000 HD
ENDBRANCH  27  29
ENDBRANCH  10  27
BRANCH  11  31
ATOM     31  C   UNL     1      -4.390  14.744  23.212  0.00  0.00    +0.000 C 
ATOM     32  O   UNL     1      -5.115  15.584  22.715  0.00  0.00    +0.000 OA
BRANCH  31  33
ATOM     33  O   UNL     1      -4.286  14.706  24.553  0.00  0.00    +0.000 OA
ATOM     34  H   UNL     1      -3.368  14.725  24.879  0.00  0.00    +0.000 HD
ENDBRANCH  31  33
ENDBRANCH  11  31
TORSDOF 5
ENDMDL
MODEL 8
REMARK VINA RESULT:      -7.2      1.146      1.252
REMARK  Name = 
REMARK  5 active torsions:
REMARK  status: ('A' for Active; 'I' for Inactive)
REMARK    1  A    between atoms: C_10  and  C_11
REMARK    2  A    between atoms: C_11  and  O_13
REMARK    3  A    between atoms: C_14  and  C_15
REMARK    4  A    between atoms: C_15  and  O_17
REMARK    5  A    between atoms: C_22  and  C_23
REMARK                            x       y       z     vdW  Elec       q    Type
REMARK                         _______ _______ _______ _____ _____    ______ ____
ROOT
ATOM      1  O   UNL     1       0.642   4.824  19.374  0.00  0.00    +0.000 OA
ATOM      2  C   UNL     1       1.780   5.231  19.138  0.00  0.00    +0.000 C 
ATOM      3  C   UNL     1       2.931   4.283  19.330  0.00  0.00    +0.000 A 
ATOM      4  C   UNL     1       2.863   3.709  20.624  0.00  0.00    +0.000 A 
ATOM      5  C   UNL     1       3.759   2.740  21.035  0.00  0.00    +0.000 A 
ATOM      6  C   UNL     1       4.668   2.251  20.113  0.00  0.00    +0.000 A 
ATOM      7  C   UNL     1       4.733   2.792  18.813  0.00  0.00    +0.000 A 
ATOM      8  C   UNL     1       3.977   3.916  18.390  0.00  0.00    +0.000 A 
ATOM      9  C   UNL     1       4.454   4.855  16.895  0.00  0.00    +0.000 C 
ATOM     10  C   UNL     1       5.789   6.237  16.622  0.00  0.00    +0.000 C 
ATOM     11  C   UNL     1       5.702   5.982  18.113  0.00  0.00    +0.000 C 
ATOM     12  C   UNL     1       4.025   6.173  17.380  0.00  0.00    +0.000 C 
ATOM     13  C   UNL     1       3.018   7.046  18.069  0.00  0.00    +0.000 A 
ATOM     14  C   UNL     1       3.096   8.409  17.709  0.00  0.00    +0.000 A 
ATOM     15  C   UNL     1       2.242   9.365  18.200  0.00  0.00    +0.000 A 
ATOM     16  C   UNL     1       1.212   9.015  19.070  0.00  0.00    +0.000 A 
ATOM     17  C   UNL     1       1.042   7.635  19.334  0.00  0.00    +0.000 A 
ATOM     18  C   UNL     1       1.957   6.664  18.856  0.00  0.00    +0.000 A 
ENDROOT
BRANCH  16  19
ATOM     19  C   UNL     1       0.432  10.122  19.674  0.00  0.00    +0.000 A 
ATOM     20  C   UNL     1       0.784  10.569  20.975  0.00  0.00    +0.000 A 
ATOM     21  C   UNL     1      -0.025  11.437  21.711  0.00  0.00    +0.000 A 
ATOM     22  C   UNL     1      -1.182  11.935  21.133  0.00  0.00    +0.000 A 
ATOM     23 CL   UNL     1      -2.197  12.990  22.031  0.00  0.00    +0.000 Cl
ATOM     24  C   UNL     1      -1.537  11.561  19.841  0.00  0.00    +0.000 A 
ATOM     25  C   UNL     1      -0.753  10.648  19.124  0.00  0.00    +0.000 A 
ATOM     26 CL   UNL     1      -1.410  10.133  17.605  0.00  0.00    +0.000 Cl
ENDBRANCH  16  19
BRANCH  10  27
ATOM     27  C   UNL     1       7.190   6.445  16.100  0.00  0.00    +0.000 C 
ATOM     28  O   UNL     1       7.923   7.297  16.608  0.00  0.00    +0.000 OA
BRANCH  27  29
ATOM     29  O   UNL     1       7.582   5.761  15.008  0.00  0.00    +0.000 OA
ATOM     30  H   UNL     1       6.915   5.119  14.758  0.00  0.00    +0.000 HD
ENDBRANCH  27  29
ENDBRANCH  10  27
BRANCH  11  31
ATOM     31  C   UNL     1       6.762   4.549  17.971  0.00  0.00    +0.000 C 
ATOM     32  O   UNL     1       6.884   3.831  16.997  0.00  0.00    +0.000 OA
BRANCH  31  33
ATOM     33  O   UNL     1       7.592   4.355  19.013  0.00  0.00    +0.000 OA
ATOM     34  H   UNL     1       8.536   4.463  18.793  0.00  0.00    +0.000 HD
ENDBRANCH  31  33
ENDBRANCH  11  31
TORSDOF 5
ENDMDL
MODEL 9
REMARK VINA RESULT:      -7.0      4.912     10.182
REMARK  Name = 
REMARK  5 active torsions:
REMARK  status: ('A' for Active; 'I' for Inactive)
REMARK    1  A    between atoms: C_10  and  C_11
REMARK    2  A    between atoms: C_11  and  O_13
REMARK    3  A    between atoms: C_14  and  C_15
REMARK    4  A    between atoms: C_15  and  O_17
REMARK    5  A    between atoms: C_22  and  C_23
REMARK                            x       y       z     vdW  Elec       q    Type
REMARK                         _______ _______ _______ _____ _____    ______ ____
ROOT
ATOM      1  O   UNL     1       2.144  13.197  17.853  0.00  0.00    +0.000 OA
ATOM      2  C   UNL     1       1.484  12.972  18.867  0.00  0.00    +0.000 C 
ATOM      3  C   UNL     1       1.227  14.106  19.820  0.00  0.00    +0.000 A 
ATOM      4  C   UNL     1       2.454  14.736  20.150  0.00  0.00    +0.000 A 
ATOM      5  C   UNL     1       2.497  15.862  20.951  0.00  0.00    +0.000 A 
ATOM      6  C   UNL     1       1.301  16.440  21.339  0.00  0.00    +0.000 A 
ATOM      7  C   UNL     1       0.071  15.843  20.998  0.00  0.00    +0.000 A 
ATOM      8  C   UNL     1      -0.039  14.586  20.347  0.00  0.00    +0.000 A 
ATOM      9  C   UNL     1      -1.612  13.653  20.375  0.00  0.00    +0.000 C 
ATOM     10  C   UNL     1      -2.392  12.498  21.725  0.00  0.00    +0.000 C 
ATOM     11  C   UNL     1      -0.980  12.821  22.169  0.00  0.00    +0.000 C 
ATOM     12  C   UNL     1      -1.013  12.313  20.401  0.00  0.00    +0.000 C 
ATOM     13  C   UNL     1       0.002  11.328  19.902  0.00  0.00    +0.000 A 
ATOM     14  C   UNL     1      -0.374   9.977  20.074  0.00  0.00    +0.000 A 
ATOM     15  C   UNL     1       0.398   8.924  19.653  0.00  0.00    +0.000 A 
ATOM     16  C   UNL     1       1.602   9.148  18.988  0.00  0.00    +0.000 A 
ATOM     17  C   UNL     1       1.925  10.495  18.693  0.00  0.00    +0.000 A 
ATOM     18  C   UNL     1       1.141  11.574  19.172  0.00  0.00    +0.000 A 
ENDROOT
BRANCH  16  19
ATOM     19  C   UNL     1       2.448   7.964  18.704  0.00  0.00    +0.000 A 
ATOM     20  C   UNL     1       3.215   7.951  17.509  0.00  0.00    +0.000 A 
ATOM     21  C   UNL     1       3.855   6.800  17.046  0.00  0.00    +0.000 A 
ATOM     22  C   UNL     1       3.798   5.642  17.806  0.00  0.00    +0.000 A 
ATOM     23 CL   UNL     1       4.565   4.213  17.242  0.00  0.00    +0.000 Cl
ATOM     24  C   UNL     1       3.098   5.628  19.008  0.00  0.00    +0.000 A 
ATOM     25  C   UNL     1       2.411   6.768  19.445  0.00  0.00    +0.000 A 
ATOM     26 CL   UNL     1       1.434   6.553  20.860  0.00  0.00    +0.000 Cl
ENDBRANCH  16  19
BRANCH  10  27
ATOM     27  C   UNL     1      -3.416  12.495  22.834  0.00  0.00    +0.000 C 
ATOM     28  O   UNL     1      -3.244  11.798  23.837  0.00  0.00    +0.000 OA
BRANCH  27  29
ATOM     29  O   UNL     1      -4.563  13.178  22.659  0.00  0.00    +0.000 OA
ATOM     30  H   UNL     1      -5.107  12.754  21.992  0.00  0.00    +0.000 HD
ENDBRANCH  27  29
ENDBRANCH  10  27
BRANCH  11  31
ATOM     31  C   UNL     1      -1.506  14.399  22.827  0.00  0.00    +0.000 C 
ATOM     32  O   UNL     1      -2.452  15.063  22.449  0.00  0.00    +0.000 OA
BRANCH  31  33
ATOM     33  O   UNL     1      -0.851  14.796  23.934  0.00  0.00    +0.000 OA
ATOM     34  H   UNL     1      -1.431  14.957  24.700  0.00  0.00    +0.000 HD
ENDBRANCH  31  33
ENDBRANCH  11  31
TORSDOF 5
ENDMDL
