MODEL 1
REMARK VINA RESULT:      -8.6      0.000      0.000
REMARK  Name = 
REMARK  11 active torsions:
REMARK  status: ('A' for Active; 'I' for Inactive)
REMARK    1  A    between atoms: C_1  and  C_2
REMARK    2  A    between atoms: C_2  and  O_3
REMARK    3  A    between atoms: O_3  and  C_4
REMARK    4  A    between atoms: C_4  and  C_5
REMARK    5  A    between atoms: C_5  and  S_6
REMARK    6  A    between atoms: C_5  and  C_13
REMARK    7  A    between atoms: S_6  and  C_7
REMARK    8  A    between atoms: N_11  and  C_12
REMARK    9  A    between atoms: C_17  and  N_18
REMARK   10  A    between atoms: C_19  and  C_21
REMARK   11  A    between atoms: C_25  and  C_26
REMARK                            x       y       z     vdW  Elec       q    Type
REMARK                         _______ _______ _______ _____ _____    ______ ____
ROOT
ATOM      1  C   UNL     1       4.412   5.025  17.108  0.00  0.00    +0.000 A 
ATOM      2  C   UNL     1       3.648   3.847  17.066  0.00  0.00    +0.000 A 
ATOM      3  C   UNL     1       2.395   3.783  17.661  0.00  0.00    +0.000 A 
ATOM      4  C   UNL     1       1.869   4.899  18.303  0.00  0.00    +0.000 A 
ATOM      5  C   UNL     1       2.592   6.092  18.375  0.00  0.00    +0.000 A 
ATOM      6  C   UNL     1       3.865   6.146  17.779  0.00  0.00    +0.000 A 
ENDROOT
BRANCH   5   7
ATOM      7  N   UNL     1       2.070   7.248  19.004  0.00  0.00    +0.000 N 
ATOM      8  C   UNL     1       1.954   8.508  18.433  0.00  0.00    +0.000 C 
ATOM      9  O   UNL     1       2.249   8.820  17.277  0.00  0.00    +0.000 OA
ATOM     10  H   UNL     1       1.696   7.158  19.946  0.00  0.00    +0.000 HD
BRANCH   8  11
ATOM     11  C   UNL     1       1.363   9.563  19.308  0.00  0.00    +0.000 A 
ATOM     12  C   UNL     1       1.182  10.848  18.802  0.00  0.00    +0.000 A 
ATOM     13  C   UNL     1       0.543  11.791  19.594  0.00  0.00    +0.000 A 
ATOM     14  C   UNL     1       0.107  11.424  20.865  0.00  0.00    +0.000 A 
ATOM     15  C   UNL     1       0.333  10.119  21.318  0.00  0.00    +0.000 A 
ATOM     16  N   UNL     1       0.971   9.181  20.553  0.00  0.00    +0.000 NA
BRANCH  15  17
ATOM     17  C   UNL     1      -0.178   9.700  22.690  0.00  0.00    +0.000 C 
ATOM     18  F   UNL     1      -0.967   8.588  22.665  0.00  0.00    +0.000 F 
ATOM     19  F   UNL     1       0.836   9.409  23.557  0.00  0.00    +0.000 F 
ATOM     20  F   UNL     1      -0.924  10.668  23.295  0.00  0.00    +0.000 F 
ENDBRANCH  15  17
ENDBRANCH   8  11
ENDBRANCH   5   7
BRANCH   1  21
ATOM     21  C   UNL     1       5.771   5.110  16.407  0.00  0.00    +0.000 C 
BRANCH  21  22
ATOM     22  C   UNL     1       6.981   5.293  17.357  0.00  0.00    +0.000 C 
BRANCH  22  23
ATOM     23  O   UNL     1       7.470   6.641  17.368  0.00  0.00    +0.000 OA
BRANCH  23  25
ATOM     24  C   UNL     1       7.864   5.784  19.568  0.00  0.00    +0.000 C 
ATOM     25  C   UNL     1       8.098   6.939  18.619  0.00  0.00    +0.000 C 
ENDBRANCH  23  25
ENDBRANCH  22  23
ENDBRANCH  21  22
BRANCH  21  26
ATOM     26  S   UNL     1       5.993   3.722  15.209  0.00  0.00    +0.000 S 
BRANCH  26  27
ATOM     27  C   UNL     1       6.810   4.468  13.884  0.00  0.00    +0.000 A 
ATOM     28  N   UNL     1       7.637   5.488  13.923  0.00  0.00    +0.000 NA
ATOM     29  N   UNL     1       8.120   5.696  12.652  0.00  0.00    +0.000 NA
ATOM     30  C   UNL     1       7.552   4.808  11.868  0.00  0.00    +0.000 A 
ATOM     31  N   UNL     1       6.675   4.055  12.591  0.00  0.00    +0.000 N 
ATOM     32  C   UNL     1       5.787   3.057  12.060  0.00  0.00    +0.000 C 
ENDBRANCH  26  27
ENDBRANCH  21  26
ENDBRANCH   1  21
TORSDOF 9
ENDMDL
MODEL 2
REMARK VINA RESULT:      -7.9      2.090      2.533
REMARK  Name = 
REMARK  11 active torsions:
REMARK  status: ('A' for Active; 'I' for Inactive)
REMARK    1  A    between atoms: C_1  and  C_2
REMARK    2  A    between atoms: C_2  and  O_3
REMARK    3  A    between atoms: O_3  and  C_4
REMARK    4  A    between atoms: C_4  and  C_5
REMARK    5  A    between atoms: C_5  and  S_6
REMARK    6  A    between atoms: C_5  and  C_13
REMARK    7  A    between atoms: S_6  and  C_7
REMARK    8  A    between atoms: N_11  and  C_12
REMARK    9  A    between atoms: C_17  and  N_18
REMARK   10  A    between atoms: C_19  and  C_21
REMARK   11  A    between atoms: C_25  and  C_26
REMARK                            x       y       z     vdW  Elec       q    Type
REMARK                         _______ _______ _______ _____ _____    ______ ____
ROOT
ATOM      1  C   UNL     1       4.478   5.012  17.267  0.00  0.00    +0.000 A 
ATOM      2  C   UNL     1       3.776   3.806  17.419  0.00  0.00    +0.000 A 
ATOM      3  C   UNL     1       2.574   3.758  18.114  0.00  0.00    +0.000 A 
ATOM      4  C   UNL     1       2.039   4.918  18.664  0.00  0.00    +0.000 A 
ATOM      5  C   UNL     1       2.703   6.141  18.543  0.00  0.00    +0.000 A 
ATOM      6  C   UNL     1       3.925   6.180  17.847  0.00  0.00    +0.000 A 
ENDROOT
BRANCH   5   7
ATOM      7  N   UNL     1       2.168   7.339  19.075  0.00  0.00    +0.000 N 
ATOM      8  C   UNL     1       1.964   8.523  18.380  0.00  0.00    +0.000 C 
ATOM      9  O   UNL     1       2.177   8.716  17.181  0.00  0.00    +0.000 OA
ATOM     10  H   UNL     1       1.855   7.340  20.043  0.00  0.00    +0.000 HD
BRANCH   8  11
ATOM     11  C   UNL     1       1.380   9.646  19.172  0.00  0.00    +0.000 A 
ATOM     12  C   UNL     1       0.972   9.417  20.484  0.00  0.00    +0.000 A 
ATOM     13  C   UNL     1       0.523  10.492  21.238  0.00  0.00    +0.000 A 
ATOM     14  C   UNL     1       0.494  11.759  20.660  0.00  0.00    +0.000 A 
ATOM     15  C   UNL     1       0.905  11.917  19.332  0.00  0.00    +0.000 A 
ATOM     16  N   UNL     1       1.341  10.866  18.572  0.00  0.00    +0.000 NA
BRANCH  15  17
ATOM     17  C   UNL     1       0.914  13.306  18.708  0.00  0.00    +0.000 C 
ATOM     18  F   UNL     1       1.010  14.316  19.620  0.00  0.00    +0.000 F 
ATOM     19  F   UNL     1       1.962  13.487  17.852  0.00  0.00    +0.000 F 
ATOM     20  F   UNL     1      -0.211  13.569  17.984  0.00  0.00    +0.000 F 
ENDBRANCH  15  17
ENDBRANCH   8  11
ENDBRANCH   5   7
BRANCH   1  21
ATOM     21  C   UNL     1       5.777   5.073  16.457  0.00  0.00    +0.000 C 
BRANCH  21  22
ATOM     22  C   UNL     1       7.069   5.166  17.307  0.00  0.00    +0.000 C 
BRANCH  22  23
ATOM     23  O   UNL     1       6.885   4.676  18.641  0.00  0.00    +0.000 OA
BRANCH  23  25
ATOM     24  C   UNL     1       8.117   6.717  18.854  0.00  0.00    +0.000 C 
ATOM     25  C   UNL     1       7.413   5.602  19.596  0.00  0.00    +0.000 C 
ENDBRANCH  23  25
ENDBRANCH  22  23
ENDBRANCH  21  22
BRANCH  21  26
ATOM     26  S   UNL     1       5.838   3.730  15.190  0.00  0.00    +0.000 S 
BRANCH  26  27
ATOM     27  C   UNL     1       6.715   4.451  13.889  0.00  0.00    +0.000 A 
ATOM     28  N   UNL     1       7.536   5.475  13.946  0.00  0.00    +0.000 NA
ATOM     29  N   UNL     1       8.079   5.657  12.695  0.00  0.00    +0.000 NA
ATOM     30  C   UNL     1       7.551   4.751  11.904  0.00  0.00    +0.000 A 
ATOM     31  N   UNL     1       6.642   4.010  12.600  0.00  0.00    +0.000 N 
ATOM     32  C   UNL     1       5.783   2.998  12.049  0.00  0.00    +0.000 C 
ENDBRANCH  26  27
ENDBRANCH  21  26
ENDBRANCH   1  21
TORSDOF 9
ENDMDL
MODEL 3
REMARK VINA RESULT:      -7.9      1.354      1.700
REMARK  Name = 
REMARK  11 active torsions:
REMARK  status: ('A' for Active; 'I' for Inactive)
REMARK    1  A    between atoms: C_1  and  C_2
REMARK    2  A    between atoms: C_2  and  O_3
REMARK    3  A    between atoms: O_3  and  C_4
REMARK    4  A    between atoms: C_4  and  C_5
REMARK    5  A    between atoms: C_5  and  S_6
REMARK    6  A    between atoms: C_5  and  C_13
REMARK    7  A    between atoms: S_6  and  C_7
REMARK    8  A    between atoms: N_11  and  C_12
REMARK    9  A    between atoms: C_17  and  N_18
REMARK   10  A    between atoms: C_19  and  C_21
REMARK   11  A    between atoms: C_25  and  C_26
REMARK                            x       y       z     vdW  Elec       q    Type
REMARK                         _______ _______ _______ _____ _____    ______ ____
ROOT
ATOM      1  C   UNL     1       4.510   4.985  17.894  0.00  0.00    +0.000 A 
ATOM      2  C   UNL     1       3.869   3.830  18.370  0.00  0.00    +0.000 A 
ATOM      3  C   UNL     1       2.671   3.912  19.070  0.00  0.00    +0.000 A 
ATOM      4  C   UNL     1       2.081   5.149  19.301  0.00  0.00    +0.000 A 
ATOM      5  C   UNL     1       2.683   6.327  18.851  0.00  0.00    +0.000 A 
ATOM      6  C   UNL     1       3.901   6.237  18.152  0.00  0.00    +0.000 A 
ENDROOT
BRANCH   5   7
ATOM      7  N   UNL     1       2.091   7.596  19.054  0.00  0.00    +0.000 N 
ATOM      8  C   UNL     1       1.490   8.041  20.224  0.00  0.00    +0.000 C 
ATOM      9  O   UNL     1       1.406   7.422  21.287  0.00  0.00    +0.000 OA
ATOM     10  H   UNL     1       2.141   8.279  18.302  0.00  0.00    +0.000 HD
BRANCH   8  11
ATOM     11  C   UNL     1       0.943   9.429  20.183  0.00  0.00    +0.000 A 
ATOM     12  C   UNL     1       1.108  10.195  19.031  0.00  0.00    +0.000 A 
ATOM     13  C   UNL     1       0.510  11.446  18.973  0.00  0.00    +0.000 A 
ATOM     14  C   UNL     1      -0.232  11.893  20.064  0.00  0.00    +0.000 A 
ATOM     15  C   UNL     1      -0.346  11.078  21.197  0.00  0.00    +0.000 A 
ATOM     16  N   UNL     1       0.246   9.848  21.273  0.00  0.00    +0.000 NA
BRANCH  15  17
ATOM     17  C   UNL     1      -1.189  11.545  22.376  0.00  0.00    +0.000 C 
ATOM     18  F   UNL     1      -0.644  12.592  23.059  0.00  0.00    +0.000 F 
ATOM     19  F   UNL     1      -2.432  11.964  21.995  0.00  0.00    +0.000 F 
ATOM     20  F   UNL     1      -1.392  10.565  23.303  0.00  0.00    +0.000 F 
ENDBRANCH  15  17
ENDBRANCH   8  11
ENDBRANCH   5   7
BRANCH   1  21
ATOM     21  C   UNL     1       5.803   4.890  17.079  0.00  0.00    +0.000 C 
BRANCH  21  22
ATOM     22  C   UNL     1       7.064   4.517  17.900  0.00  0.00    +0.000 C 
BRANCH  22  23
ATOM     23  O   UNL     1       8.094   5.510  17.803  0.00  0.00    +0.000 OA
BRANCH  23  25
ATOM     24  C   UNL     1       7.786   7.874  17.589  0.00  0.00    +0.000 C 
ATOM     25  C   UNL     1       7.727   6.689  18.527  0.00  0.00    +0.000 C 
ENDBRANCH  23  25
ENDBRANCH  22  23
ENDBRANCH  21  22
BRANCH  21  26
ATOM     26  S   UNL     1       5.574   3.831  15.582  0.00  0.00    +0.000 S 
BRANCH  26  27
ATOM     27  C   UNL     1       6.640   4.543  14.426  0.00  0.00    +0.000 A 
ATOM     28  N   UNL     1       7.549   5.467  14.635  0.00  0.00    +0.000 NA
ATOM     29  N   UNL     1       8.225   5.676  13.455  0.00  0.00    +0.000 NA
ATOM     30  C   UNL     1       7.689   4.888  12.552  0.00  0.00    +0.000 A 
ATOM     31  N   UNL     1       6.648   4.202  13.105  0.00  0.00    +0.000 N 
ATOM     32  C   UNL     1       5.750   3.327  12.402  0.00  0.00    +0.000 C 
ENDBRANCH  26  27
ENDBRANCH  21  26
ENDBRANCH   1  21
TORSDOF 9
ENDMDL
MODEL 4
REMARK VINA RESULT:      -7.7      2.516      2.996
REMARK  Name = 
REMARK  11 active torsions:
REMARK  status: ('A' for Active; 'I' for Inactive)
REMARK    1  A    between atoms: C_1  and  C_2
REMARK    2  A    between atoms: C_2  and  O_3
REMARK    3  A    between atoms: O_3  and  C_4
REMARK    4  A    between atoms: C_4  and  C_5
REMARK    5  A    between atoms: C_5  and  S_6
REMARK    6  A    between atoms: C_5  and  C_13
REMARK    7  A    between atoms: S_6  and  C_7
REMARK    8  A    between atoms: N_11  and  C_12
REMARK    9  A    between atoms: C_17  and  N_18
REMARK   10  A    between atoms: C_19  and  C_21
REMARK   11  A    between atoms: C_25  and  C_26
REMARK                            x       y       z     vdW  Elec       q    Type
REMARK                         _______ _______ _______ _____ _____    ______ ____
ROOT
ATOM      1  C   UNL     1       4.638   5.958  17.380  0.00  0.00    +0.000 A 
ATOM      2  C   UNL     1       4.100   4.856  18.065  0.00  0.00    +0.000 A 
ATOM      3  C   UNL     1       2.882   4.948  18.727  0.00  0.00    +0.000 A 
ATOM      4  C   UNL     1       2.167   6.140  18.712  0.00  0.00    +0.000 A 
ATOM      5  C   UNL     1       2.662   7.265  18.048  0.00  0.00    +0.000 A 
ATOM      6  C   UNL     1       3.901   7.167  17.388  0.00  0.00    +0.000 A 
ENDROOT
BRANCH   5   7
ATOM      7  N   UNL     1       1.943   8.483  17.999  0.00  0.00    +0.000 N 
ATOM      8  C   UNL     1       1.360   9.132  19.078  0.00  0.00    +0.000 C 
ATOM      9  O   UNL     1       1.402   8.779  20.258  0.00  0.00    +0.000 OA
ATOM     10  H   UNL     1       1.876   8.969  17.108  0.00  0.00    +0.000 HD
BRANCH   8  11
ATOM     11  C   UNL     1       0.659  10.412  18.761  0.00  0.00    +0.000 A 
ATOM     12  C   UNL     1      -0.714  10.399  18.522  0.00  0.00    +0.000 A 
ATOM     13  C   UNL     1      -1.367  11.607  18.326  0.00  0.00    +0.000 A 
ATOM     14  C   UNL     1      -0.631  12.789  18.373  0.00  0.00    +0.000 A 
ATOM     15  C   UNL     1       0.748  12.731  18.604  0.00  0.00    +0.000 A 
ATOM     16  N   UNL     1       1.408  11.547  18.789  0.00  0.00    +0.000 NA
BRANCH  15  17
ATOM     17  C   UNL     1       1.550  14.022  18.697  0.00  0.00    +0.000 C 
ATOM     18  F   UNL     1       2.160  14.203  19.903  0.00  0.00    +0.000 F 
ATOM     19  F   UNL     1       2.549  14.083  17.769  0.00  0.00    +0.000 F 
ATOM     20  F   UNL     1       0.787  15.135  18.499  0.00  0.00    +0.000 F 
ENDBRANCH  15  17
ENDBRANCH   8  11
ENDBRANCH   5   7
BRANCH   1  21
ATOM     21  C   UNL     1       5.955   5.841  16.608  0.00  0.00    +0.000 C 
BRANCH  21  22
ATOM     22  C   UNL     1       7.227   6.122  17.447  0.00  0.00    +0.000 C 
BRANCH  22  23
ATOM     23  O   UNL     1       7.950   7.268  16.978  0.00  0.00    +0.000 OA
BRANCH  23  25
ATOM     24  C   UNL     1       8.536   9.181  18.293  0.00  0.00    +0.000 C 
ATOM     25  C   UNL     1       7.424   8.467  17.555  0.00  0.00    +0.000 C 
ENDBRANCH  23  25
ENDBRANCH  22  23
ENDBRANCH  21  22
BRANCH  21  26
ATOM     26  S   UNL     1       6.042   4.252  15.670  0.00  0.00    +0.000 S 
BRANCH  26  27
ATOM     27  C   UNL     1       6.847   4.696  14.210  0.00  0.00    +0.000 A 
ATOM     28  N   UNL     1       7.840   5.544  14.067  0.00  0.00    +0.000 NA
ATOM     29  N   UNL     1       8.229   5.528  12.748  0.00  0.00    +0.000 NA
ATOM     30  C   UNL     1       7.442   4.687  12.118  0.00  0.00    +0.000 A 
ATOM     31  N   UNL     1       6.519   4.186  12.987  0.00  0.00    +0.000 N 
ATOM     32  C   UNL     1       5.423   3.322  12.645  0.00  0.00    +0.000 C 
ENDBRANCH  26  27
ENDBRANCH  21  26
ENDBRANCH   1  21
TORSDOF 9
ENDMDL
MODEL 5
REMARK VINA RESULT:      -7.6      3.537      5.160
REMARK  Name = 
REMARK  11 active torsions:
REMARK  status: ('A' for Active; 'I' for Inactive)
REMARK    1  A    between atoms: C_1  and  C_2
REMARK    2  A    between atoms: C_2  and  O_3
REMARK    3  A    between atoms: O_3  and  C_4
REMARK    4  A    between atoms: C_4  and  C_5
REMARK    5  A    between atoms: C_5  and  S_6
REMARK    6  A    between atoms: C_5  and  C_13
REMARK    7  A    between atoms: S_6  and  C_7
REMARK    8  A    between atoms: N_11  and  C_12
REMARK    9  A    between atoms: C_17  and  N_18
REMARK   10  A    between atoms: C_19  and  C_21
REMARK   11  A    between atoms: C_25  and  C_26
REMARK                            x       y       z     vdW  Elec       q    Type
REMARK                         _______ _______ _______ _____ _____    ______ ____
ROOT
ATOM      1  C   UNL     1       2.621   6.867  19.354  0.00  0.00    +0.000 A 
ATOM      2  C   UNL     1       2.911   7.242  18.033  0.00  0.00    +0.000 A 
ATOM      3  C   UNL     1       2.449   8.444  17.510  0.00  0.00    +0.000 A 
ATOM      4  C   UNL     1       1.695   9.305  18.299  0.00  0.00    +0.000 A 
ATOM      5  C   UNL     1       1.376   8.974  19.619  0.00  0.00    +0.000 A 
ATOM      6  C   UNL     1       1.839   7.751  20.138  0.00  0.00    +0.000 A 
ENDROOT
BRANCH   5   7
ATOM      7  N   UNL     1       0.629   9.843  20.450  0.00  0.00    +0.000 N 
ATOM      8  C   UNL     1       0.775  11.220  20.534  0.00  0.00    +0.000 C 
ATOM      9  O   UNL     1       1.549  11.918  19.876  0.00  0.00    +0.000 OA
ATOM     10  H   UNL     1      -0.122   9.447  21.011  0.00  0.00    +0.000 HD
BRANCH   8  11
ATOM     11  C   UNL     1      -0.143  11.911  21.488  0.00  0.00    +0.000 A 
ATOM     12  C   UNL     1      -0.972  11.151  22.311  0.00  0.00    +0.000 A 
ATOM     13  C   UNL     1      -1.747  11.804  23.258  0.00  0.00    +0.000 A 
ATOM     14  C   UNL     1      -1.672  13.192  23.355  0.00  0.00    +0.000 A 
ATOM     15  C   UNL     1      -0.829  13.896  22.488  0.00  0.00    +0.000 A 
ATOM     16  N   UNL     1      -0.066  13.268  21.541  0.00  0.00    +0.000 NA
BRANCH  15  17
ATOM     17  C   UNL     1      -0.712  15.409  22.616  0.00  0.00    +0.000 C 
ATOM     18  F   UNL     1      -1.840  16.006  23.097  0.00  0.00    +0.000 F 
ATOM     19  F   UNL     1       0.290  15.784  23.464  0.00  0.00    +0.000 F 
ATOM     20  F   UNL     1      -0.448  16.023  21.427  0.00  0.00    +0.000 F 
ENDBRANCH  15  17
ENDBRANCH   8  11
ENDBRANCH   5   7
BRANCH   1  21
ATOM     21  C   UNL     1       3.174   5.567  19.945  0.00  0.00    +0.000 C 
BRANCH  21  22
ATOM     22  C   UNL     1       2.223   4.846  20.934  0.00  0.00    +0.000 C 
BRANCH  22  23
ATOM     23  O   UNL     1       1.032   4.367  20.298  0.00  0.00    +0.000 OA
BRANCH  23  25
ATOM     24  C   UNL     1       1.594   2.501  21.689  0.00  0.00    +0.000 C 
ATOM     25  C   UNL     1       0.949   2.941  20.392  0.00  0.00    +0.000 C 
ENDBRANCH  23  25
ENDBRANCH  22  23
ENDBRANCH  21  22
BRANCH  21  26
ATOM     26  S   UNL     1       3.823   4.454  18.622  0.00  0.00    +0.000 S 
BRANCH  26  27
ATOM     27  C   UNL     1       5.521   4.764  18.640  0.00  0.00    +0.000 A 
ATOM     28  N   UNL     1       6.245   5.206  19.642  0.00  0.00    +0.000 NA
ATOM     29  N   UNL     1       7.562   5.224  19.243  0.00  0.00    +0.000 NA
ATOM     30  C   UNL     1       7.598   4.814  17.996  0.00  0.00    +0.000 A 
ATOM     31  N   UNL     1       6.330   4.572  17.558  0.00  0.00    +0.000 N 
ATOM     32  C   UNL     1       5.958   4.215  16.216  0.00  0.00    +0.000 C 
ENDBRANCH  26  27
ENDBRANCH  21  26
ENDBRANCH   1  21
TORSDOF 9
ENDMDL
MODEL 6
REMARK VINA RESULT:      -7.6      4.777      9.708
REMARK  Name = 
REMARK  11 active torsions:
REMARK  status: ('A' for Active; 'I' for Inactive)
REMARK    1  A    between atoms: C_1  and  C_2
REMARK    2  A    between atoms: C_2  and  O_3
REMARK    3  A    between atoms: O_3  and  C_4
REMARK    4  A    between atoms: C_4  and  C_5
REMARK    5  A    between atoms: C_5  and  S_6
REMARK    6  A    between atoms: C_5  and  C_13
REMARK    7  A    between atoms: S_6  and  C_7
REMARK    8  A    between atoms: N_11  and  C_12
REMARK    9  A    between atoms: C_17  and  N_18
REMARK   10  A    between atoms: C_19  and  C_21
REMARK   11  A    between atoms: C_25  and  C_26
REMARK                            x       y       z     vdW  Elec       q    Type
REMARK                         _______ _______ _______ _____ _____    ______ ____
ROOT
ATOM      1  C   UNL     1      -0.228  10.273  20.577  0.00  0.00    +0.000 A 
ATOM      2  C   UNL     1      -0.206  10.267  21.982  0.00  0.00    +0.000 A 
ATOM      3  C   UNL     1       0.603   9.381  22.682  0.00  0.00    +0.000 A 
ATOM      4  C   UNL     1       1.417   8.487  21.996  0.00  0.00    +0.000 A 
ATOM      5  C   UNL     1       1.427   8.452  20.600  0.00  0.00    +0.000 A 
ATOM      6  C   UNL     1       0.598   9.345  19.897  0.00  0.00    +0.000 A 
ENDROOT
BRANCH   5   7
ATOM      7  N   UNL     1       2.263   7.566  19.878  0.00  0.00    +0.000 N 
ATOM      8  C   UNL     1       2.249   6.181  19.958  0.00  0.00    +0.000 C 
ATOM      9  O   UNL     1       1.486   5.492  20.638  0.00  0.00    +0.000 OA
ATOM     10  H   UNL     1       2.909   7.959  19.198  0.00  0.00    +0.000 HD
BRANCH   8  11
ATOM     11  C   UNL     1       3.233   5.472  19.086  0.00  0.00    +0.000 A 
ATOM     12  C   UNL     1       2.770   4.666  18.049  0.00  0.00    +0.000 A 
ATOM     13  C   UNL     1       3.696   4.093  17.189  0.00  0.00    +0.000 A 
ATOM     14  C   UNL     1       5.051   4.341  17.389  0.00  0.00    +0.000 A 
ATOM     15  C   UNL     1       5.449   5.151  18.460  0.00  0.00    +0.000 A 
ATOM     16  N   UNL     1       4.550   5.714  19.323  0.00  0.00    +0.000 NA
BRANCH  15  17
ATOM     17  C   UNL     1       6.927   5.459  18.660  0.00  0.00    +0.000 C 
ATOM     18  F   UNL     1       7.326   6.628  18.082  0.00  0.00    +0.000 F 
ATOM     19  F   UNL     1       7.263   5.570  19.978  0.00  0.00    +0.000 F 
ATOM     20  F   UNL     1       7.744   4.496  18.145  0.00  0.00    +0.000 F 
ENDBRANCH  15  17
ENDBRANCH   8  11
ENDBRANCH   5   7
BRANCH   1  21
ATOM     21  C   UNL     1      -1.081  11.284  19.806  0.00  0.00    +0.000 C 
BRANCH  21  22
ATOM     22  C   UNL     1      -0.569  12.746  19.866  0.00  0.00    +0.000 C 
BRANCH  22  23
ATOM     23  O   UNL     1      -1.609  13.677  20.193  0.00  0.00    +0.000 OA
BRANCH  23  25
ATOM     24  C   UNL     1      -1.512  14.114  22.545  0.00  0.00    +0.000 C 
ATOM     25  C   UNL     1      -2.211  13.341  21.447  0.00  0.00    +0.000 C 
ENDBRANCH  23  25
ENDBRANCH  22  23
ENDBRANCH  21  22
BRANCH  21  26
ATOM     26  S   UNL     1      -1.415  10.703  18.085  0.00  0.00    +0.000 S 
BRANCH  26  27
ATOM     27  C   UNL     1      -3.043  11.206  17.805  0.00  0.00    +0.000 A 
ATOM     28  N   UNL     1      -3.905  11.657  18.686  0.00  0.00    +0.000 NA
ATOM     29  N   UNL     1      -5.050  12.020  18.016  0.00  0.00    +0.000 NA
ATOM     30  C   UNL     1      -4.860  11.755  16.744  0.00  0.00    +0.000 A 
ATOM     31  N   UNL     1      -3.633  11.185  16.575  0.00  0.00    +0.000 N 
ATOM     32  C   UNL     1      -3.113  10.657  15.343  0.00  0.00    +0.000 C 
ENDBRANCH  26  27
ENDBRANCH  21  26
ENDBRANCH   1  21
TORSDOF 9
ENDMDL
MODEL 7
REMARK VINA RESULT:      -7.5      2.016      2.447
REMARK  Name = 
REMARK  11 active torsions:
REMARK  status: ('A' for Active; 'I' for Inactive)
REMARK    1  A    between atoms: C_1  and  C_2
REMARK    2  A    between atoms: C_2  and  O_3
REMARK    3  A    between atoms: O_3  and  C_4
REMARK    4  A    between atoms: C_4  and  C_5
REMARK    5  A    between atoms: C_5  and  S_6
REMARK    6  A    between atoms: C_5  and  C_13
REMARK    7  A    between atoms: S_6  and  C_7
REMARK    8  A    between atoms: N_11  and  C_12
REMARK    9  A    between atoms: C_17  and  N_18
REMARK   10  A    between atoms: C_19  and  C_21
REMARK   11  A    between atoms: C_25  and  C_26
REMARK                            x       y       z     vdW  Elec       q    Type
REMARK                         _______ _______ _______ _____ _____    ______ ____
ROOT
ATOM      1  C   UNL     1       4.299   5.705  17.106  0.00  0.00    +0.000 A 
ATOM      2  C   UNL     1       3.655   4.462  17.219  0.00  0.00    +0.000 A 
ATOM      3  C   UNL     1       2.501   4.318  17.979  0.00  0.00    +0.000 A 
ATOM      4  C   UNL     1       1.956   5.416  18.635  0.00  0.00    +0.000 A 
ATOM      5  C   UNL     1       2.562   6.672  18.556  0.00  0.00    +0.000 A 
ATOM      6  C   UNL     1       3.736   6.808  17.793  0.00  0.00    +0.000 A 
ENDROOT
BRANCH   5   7
ATOM      7  N   UNL     1       2.015   7.810  19.196  0.00  0.00    +0.000 N 
ATOM      8  C   UNL     1       1.563   8.963  18.569  0.00  0.00    +0.000 C 
ATOM      9  O   UNL     1       1.527   9.173  17.355  0.00  0.00    +0.000 OA
ATOM     10  H   UNL     1       1.889   7.782  20.205  0.00  0.00    +0.000 HD
BRANCH   8  11
ATOM     11  C   UNL     1       1.023  10.022  19.474  0.00  0.00    +0.000 A 
ATOM     12  C   UNL     1       0.316   9.651  20.615  0.00  0.00    +0.000 A 
ATOM     13  C   UNL     1      -0.094  10.643  21.495  0.00  0.00    +0.000 A 
ATOM     14  C   UNL     1       0.213  11.971  21.209  0.00  0.00    +0.000 A 
ATOM     15  C   UNL     1       0.915  12.276  20.037  0.00  0.00    +0.000 A 
ATOM     16  N   UNL     1       1.317  11.311  19.154  0.00  0.00    +0.000 NA
BRANCH  15  17
ATOM     17  C   UNL     1       1.288  13.722  19.739  0.00  0.00    +0.000 C 
ATOM     18  F   UNL     1       1.178  14.056  18.422  0.00  0.00    +0.000 F 
ATOM     19  F   UNL     1       0.500  14.612  20.409  0.00  0.00    +0.000 F 
ATOM     20  F   UNL     1       2.572  14.020  20.089  0.00  0.00    +0.000 F 
ENDBRANCH  15  17
ENDBRANCH   8  11
ENDBRANCH   5   7
BRANCH   1  21
ATOM     21  C   UNL     1       5.541   5.872  16.227  0.00  0.00    +0.000 C 
BRANCH  21  22
ATOM     22  C   UNL     1       6.684   6.701  16.867  0.00  0.00    +0.000 C 
BRANCH  22  23
ATOM     23  O   UNL     1       7.725   5.876  17.405  0.00  0.00    +0.000 OA
BRANCH  23  25
ATOM     24  C   UNL     1       6.891   5.390  19.596  0.00  0.00    +0.000 C 
ATOM     25  C   UNL     1       7.922   6.155  18.795  0.00  0.00    +0.000 C 
ENDBRANCH  23  25
ENDBRANCH  22  23
ENDBRANCH  21  22
BRANCH  21  26
ATOM     26  S   UNL     1       6.112   4.248  15.557  0.00  0.00    +0.000 S 
BRANCH  26  27
ATOM     27  C   UNL     1       6.912   4.682  14.091  0.00  0.00    +0.000 A 
ATOM     28  N   UNL     1       7.896   5.538  13.937  0.00  0.00    +0.000 NA
ATOM     29  N   UNL     1       8.285   5.510  12.618  0.00  0.00    +0.000 NA
ATOM     30  C   UNL     1       7.506   4.652  11.999  0.00  0.00    +0.000 A 
ATOM     31  N   UNL     1       6.589   4.153  12.875  0.00  0.00    +0.000 N 
ATOM     32  C   UNL     1       5.502   3.273  12.544  0.00  0.00    +0.000 C 
ENDBRANCH  26  27
ENDBRANCH  21  26
ENDBRANCH   1  21
TORSDOF 9
ENDMDL
MODEL 8
REMARK VINA RESULT:      -7.5      2.234      3.914
REMARK  Name = 
REMARK  11 active torsions:
REMARK  status: ('A' for Active; 'I' for Inactive)
REMARK    1  A    between atoms: C_1  and  C_2
REMARK    2  A    between atoms: C_2  and  O_3
REMARK    3  A    between atoms: O_3  and  C_4
REMARK    4  A    between atoms: C_4  and  C_5
REMARK    5  A    between atoms: C_5  and  S_6
REMARK    6  A    between atoms: C_5  and  C_13
REMARK    7  A    between atoms: S_6  and  C_7
REMARK    8  A    between atoms: N_11  and  C_12
REMARK    9  A    between atoms: C_17  and  N_18
REMARK   10  A    between atoms: C_19  and  C_21
REMARK   11  A    between atoms: C_25  and  C_26
REMARK                            x       y       z     vdW  Elec       q    Type
REMARK                         _______ _______ _______ _____ _____    ______ ____
ROOT
ATOM      1  C   UNL     1       4.615   3.958  16.607  0.00  0.00    +0.000 A 
ATOM      2  C   UNL     1       3.863   2.782  16.769  0.00  0.00    +0.000 A 
ATOM      3  C   UNL     1       2.655   2.792  17.455  0.00  0.00    +0.000 A 
ATOM      4  C   UNL     1       2.163   3.980  17.986  0.00  0.00    +0.000 A 
ATOM      5  C   UNL     1       2.876   5.174  17.855  0.00  0.00    +0.000 A 
ATOM      6  C   UNL     1       4.104   5.154  17.168  0.00  0.00    +0.000 A 
ENDROOT
BRANCH   5   7
ATOM      7  N   UNL     1       2.387   6.399  18.367  0.00  0.00    +0.000 N 
ATOM      8  C   UNL     1       2.059   6.660  19.690  0.00  0.00    +0.000 C 
ATOM      9  O   UNL     1       2.174   5.884  20.641  0.00  0.00    +0.000 OA
ATOM     10  H   UNL     1       2.305   7.190  17.732  0.00  0.00    +0.000 HD
BRANCH   8  11
ATOM     11  C   UNL     1       1.567   8.040  19.975  0.00  0.00    +0.000 A 
ATOM     12  C   UNL     1       1.693   9.026  18.999  0.00  0.00    +0.000 A 
ATOM     13  C   UNL     1       1.144  10.277  19.242  0.00  0.00    +0.000 A 
ATOM     14  C   UNL     1       0.488  10.505  20.449  0.00  0.00    +0.000 A 
ATOM     15  C   UNL     1       0.409   9.475  21.393  0.00  0.00    +0.000 A 
ATOM     16  N   UNL     1       0.954   8.239  21.173  0.00  0.00    +0.000 NA
BRANCH  15  17
ATOM     17  C   UNL     1      -0.342   9.706  22.697  0.00  0.00    +0.000 C 
ATOM     18  F   UNL     1       0.473   9.837  23.783  0.00  0.00    +0.000 F 
ATOM     19  F   UNL     1      -1.098  10.843  22.668  0.00  0.00    +0.000 F 
ATOM     20  F   UNL     1      -1.202   8.692  23.001  0.00  0.00    +0.000 F 
ENDBRANCH  15  17
ENDBRANCH   8  11
ENDBRANCH   5   7
BRANCH   1  21
ATOM     21  C   UNL     1       5.921   3.955  15.807  0.00  0.00    +0.000 C 
BRANCH  21  22
ATOM     22  C   UNL     1       5.796   3.413  14.361  0.00  0.00    +0.000 C 
BRANCH  22  23
ATOM     23  O   UNL     1       6.378   4.296  13.393  0.00  0.00    +0.000 OA
BRANCH  23  25
ATOM     24  C   UNL     1       5.536   2.733  11.786  0.00  0.00    +0.000 C 
ATOM     25  C   UNL     1       6.719   3.581  12.200  0.00  0.00    +0.000 C 
ENDBRANCH  23  25
ENDBRANCH  22  23
ENDBRANCH  21  22
BRANCH  21  26
ATOM     26  S   UNL     1       6.763   5.596  15.896  0.00  0.00    +0.000 S 
BRANCH  26  27
ATOM     27  C   UNL     1       7.364   5.646  17.514  0.00  0.00    +0.000 A 
ATOM     28  N   UNL     1       7.531   4.638  18.340  0.00  0.00    +0.000 NA
ATOM     29  N   UNL     1       8.113   5.120  19.489  0.00  0.00    +0.000 NA
ATOM     30  C   UNL     1       8.262   6.416  19.339  0.00  0.00    +0.000 A 
ATOM     31  N   UNL     1       7.749   6.798  18.136  0.00  0.00    +0.000 N 
ATOM     32  C   UNL     1       7.630   8.151  17.664  0.00  0.00    +0.000 C 
ENDBRANCH  26  27
ENDBRANCH  21  26
ENDBRANCH   1  21
TORSDOF 9
ENDMDL
MODEL 9
REMARK VINA RESULT:      -7.4      3.508      5.009
REMARK  Name = 
REMARK  11 active torsions:
REMARK  status: ('A' for Active; 'I' for Inactive)
REMARK    1  A    between atoms: C_1  and  C_2
REMARK    2  A    between atoms: C_2  and  O_3
REMARK    3  A    between atoms: O_3  and  C_4
REMARK    4  A    between atoms: C_4  and  C_5
REMARK    5  A    between atoms: C_5  and  S_6
REMARK    6  A    between atoms: C_5  and  C_13
REMARK    7  A    between atoms: S_6  and  C_7
REMARK    8  A    between atoms: N_11  and  C_12
REMARK    9  A    between atoms: C_17  and  N_18
REMARK   10  A    between atoms: C_19  and  C_21
REMARK   11  A    between atoms: C_25  and  C_26
REMARK                            x       y       z     vdW  Elec       q    Type
REMARK                         _______ _______ _______ _____ _____    ______ ____
ROOT
ATOM      1  C   UNL     1       2.860   6.606  19.261  0.00  0.00    +0.000 A 
ATOM      2  C   UNL     1       3.224   6.794  17.917  0.00  0.00    +0.000 A 
ATOM      3  C   UNL     1       2.836   7.933  17.222  0.00  0.00    +0.000 A 
ATOM      4  C   UNL     1       2.085   8.916  17.856  0.00  0.00    +0.000 A 
ATOM      5  C   UNL     1       1.695   8.772  19.190  0.00  0.00    +0.000 A 
ATOM      6  C   UNL     1       2.083   7.612  19.884  0.00  0.00    +0.000 A 
ENDROOT
BRANCH   5   7
ATOM      7  N   UNL     1       0.949   9.768  19.864  0.00  0.00    +0.000 N 
ATOM      8  C   UNL     1       0.118   9.568  20.957  0.00  0.00    +0.000 C 
ATOM      9  O   UNL     1      -0.079   8.502  21.544  0.00  0.00    +0.000 OA
ATOM     10  H   UNL     1       1.054  10.735  19.566  0.00  0.00    +0.000 HD
BRANCH   8  11
ATOM     11  C   UNL     1      -0.556  10.789  21.491  0.00  0.00    +0.000 A 
ATOM     12  C   UNL     1      -1.105  10.763  22.771  0.00  0.00    +0.000 A 
ATOM     13  C   UNL     1      -1.641  11.933  23.289  0.00  0.00    +0.000 A 
ATOM     14  C   UNL     1      -1.612  13.091  22.515  0.00  0.00    +0.000 A 
ATOM     15  C   UNL     1      -1.058  13.045  21.231  0.00  0.00    +0.000 A 
ATOM     16  N   UNL     1      -0.535  11.897  20.702  0.00  0.00    +0.000 NA
BRANCH  15  17
ATOM     17  C   UNL     1      -0.987  14.317  20.396  0.00  0.00    +0.000 C 
ATOM     18  F   UNL     1      -0.841  14.088  19.060  0.00  0.00    +0.000 F 
ATOM     19  F   UNL     1      -2.112  15.082  20.516  0.00  0.00    +0.000 F 
ATOM     20  F   UNL     1       0.054  15.125  20.748  0.00  0.00    +0.000 F 
ENDBRANCH  15  17
ENDBRANCH   8  11
ENDBRANCH   5   7
BRANCH   1  21
ATOM     21  C   UNL     1       3.331   5.375  20.040  0.00  0.00    +0.000 C 
BRANCH  21  22
ATOM     22  C   UNL     1       2.292   4.798  21.035  0.00  0.00    +0.000 C 
BRANCH  22  23
ATOM     23  O   UNL     1       2.536   3.419  21.344  0.00  0.00    +0.000 OA
BRANCH  23  25
ATOM     24  C   UNL     1       0.719   2.891  19.877  0.00  0.00    +0.000 C 
ATOM     25  C   UNL     1       1.328   2.659  21.243  0.00  0.00    +0.000 C 
ENDBRANCH  23  25
ENDBRANCH  22  23
ENDBRANCH  21  22
BRANCH  21  26
ATOM     26  S   UNL     1       4.039   4.097  18.910  0.00  0.00    +0.000 S 
BRANCH  26  27
ATOM     27  C   UNL     1       5.693   4.572  18.761  0.00  0.00    +0.000 A 
ATOM     28  N   UNL     1       6.487   5.020  19.707  0.00  0.00    +0.000 NA
ATOM     29  N   UNL     1       7.740   5.192  19.165  0.00  0.00    +0.000 NA
ATOM     30  C   UNL     1       7.666   4.866  17.896  0.00  0.00    +0.000 A 
ATOM     31  N   UNL     1       6.382   4.528  17.585  0.00  0.00    +0.000 N 
ATOM     32  C   UNL     1       5.889   4.220  16.270  0.00  0.00    +0.000 C 
ENDBRANCH  26  27
ENDBRANCH  21  26
ENDBRANCH   1  21
TORSDOF 9
ENDMDL
