MODEL 1
REMARK VINA RESULT:      -8.6      0.000      0.000
REMARK  Name = 
REMARK  6 active torsions:
REMARK  status: ('A' for Active; 'I' for Inactive)
REMARK    1  A    between atoms: C_1  and  C_2
REMARK    2  A    between atoms: C_5  and  N_6
REMARK    3  A    between atoms: C_8  and  C_9
REMARK    4  A    between atoms: N_10  and  N_11
REMARK    5  A    between atoms: N_11  and  C_12
REMARK    6  A    between atoms: C_18  and  C_19
REMARK                            x       y       z     vdW  Elec       q    Type
REMARK                         _______ _______ _______ _____ _____    ______ ____
ROOT
ATOM      1  N   UNL     1       1.228   8.351  20.546  0.00  0.00    +0.000 N 
ATOM      2  C   UNL     1       1.968   8.385  19.391  0.00  0.00    +0.000 A 
ATOM      3  C   UNL     1       2.383   7.103  19.130  0.00  0.00    +0.000 A 
ATOM      4  C   UNL     1       1.787   6.309  20.150  0.00  0.00    +0.000 A 
ATOM      5  N   UNL     1       1.135   7.083  21.031  0.00  0.00    +0.000 NA
ENDROOT
BRANCH   1  10
ATOM      6  C   UNL     1      -1.407  12.754  23.124  0.00  0.00    +0.000 C 
ATOM      7  C   UNL     1      -0.692  11.612  22.463  0.00  0.00    +0.000 A 
ATOM      8  C   UNL     1       0.034  11.813  21.287  0.00  0.00    +0.000 A 
ATOM      9  C   UNL     1       0.682  10.745  20.660  0.00  0.00    +0.000 A 
ATOM     10  C   UNL     1       0.606   9.453  21.201  0.00  0.00    +0.000 A 
ATOM     11  C   UNL     1      -0.104   9.253  22.392  0.00  0.00    +0.000 A 
ATOM     12  C   UNL     1      -0.745  10.328  23.019  0.00  0.00    +0.000 A 
ENDBRANCH   1  10
BRANCH   4  13
ATOM     13  C   UNL     1       1.834   4.847  20.280  0.00  0.00    +0.000 A 
ATOM     14  C   UNL     1       1.286   4.018  19.293  0.00  0.00    +0.000 A 
ATOM     15  C   UNL     1       1.260   2.631  19.469  0.00  0.00    +0.000 A 
ATOM     16  C   UNL     1       1.778   2.058  20.630  0.00  0.00    +0.000 A 
ATOM     17  C   UNL     1       2.363   2.866  21.601  0.00  0.00    +0.000 A 
ATOM     18  C   UNL     1       2.409   4.248  21.414  0.00  0.00    +0.000 A 
ENDBRANCH   4  13
BRANCH   3  19
ATOM     19  C   UNL     1       3.239   6.684  18.049  0.00  0.00    +0.000 C 
ATOM     20  N   UNL     1       3.872   7.579  17.362  0.00  0.00    +0.000 NA
BRANCH  20  21
ATOM     21  N   UNL     1       4.611   7.083  16.333  0.00  0.00    +0.000 N 
ATOM     22  H   UNL     1       4.800   7.657  15.513  0.00  0.00    +0.000 HD
BRANCH  21  23
ATOM     23  C   UNL     1       5.639   6.164  16.632  0.00  0.00    +0.000 A 
ATOM     24  C   UNL     1       5.881   5.033  15.851  0.00  0.00    +0.000 A 
ATOM     25  C   UNL     1       6.970   4.232  16.152  0.00  0.00    +0.000 A 
ATOM     26  N   UNL     1       7.836   4.485  17.155  0.00  0.00    +0.000 NA
ATOM     27  C   UNL     1       7.601   5.595  17.884  0.00  0.00    +0.000 A 
ATOM     28  C   UNL     1       6.535   6.453  17.663  0.00  0.00    +0.000 A 
ENDBRANCH  21  23
ENDBRANCH  20  21
ENDBRANCH   3  19
TORSDOF 5
ENDMDL
MODEL 2
REMARK VINA RESULT:      -8.5      0.819      1.015
REMARK  Name = 
REMARK  6 active torsions:
REMARK  status: ('A' for Active; 'I' for Inactive)
REMARK    1  A    between atoms: C_1  and  C_2
REMARK    2  A    between atoms: C_5  and  N_6
REMARK    3  A    between atoms: C_8  and  C_9
REMARK    4  A    between atoms: N_10  and  N_11
REMARK    5  A    between atoms: N_11  and  C_12
REMARK    6  A    between atoms: C_18  and  C_19
REMARK                            x       y       z     vdW  Elec       q    Type
REMARK                         _______ _______ _______ _____ _____    ______ ____
ROOT
ATOM      1  N   UNL     1       1.043   8.934  20.541  0.00  0.00    +0.000 N 
ATOM      2  C   UNL     1       1.555   9.010  19.270  0.00  0.00    +0.000 A 
ATOM      3  C   UNL     1       2.084   7.781  18.964  0.00  0.00    +0.000 A 
ATOM      4  C   UNL     1       1.788   6.963  20.091  0.00  0.00    +0.000 A 
ATOM      5  N   UNL     1       1.206   7.687  21.060  0.00  0.00    +0.000 NA
ENDROOT
BRANCH   1  10
ATOM      6  C   UNL     1      -1.646  13.106  23.427  0.00  0.00    +0.000 C 
ATOM      7  C   UNL     1      -0.918  12.022  22.688  0.00  0.00    +0.000 A 
ATOM      8  C   UNL     1      -0.119  12.328  21.584  0.00  0.00    +0.000 A 
ATOM      9  C   UNL     1       0.542  11.316  20.882  0.00  0.00    +0.000 A 
ATOM     10  C   UNL     1       0.407   9.976  21.275  0.00  0.00    +0.000 A 
ATOM     11  C   UNL     1      -0.377   9.669  22.395  0.00  0.00    +0.000 A 
ATOM     12  C   UNL     1      -1.031  10.688  23.097  0.00  0.00    +0.000 A 
ENDBRANCH   1  10
BRANCH   4  13
ATOM     13  C   UNL     1       2.050   5.526  20.240  0.00  0.00    +0.000 A 
ATOM     14  C   UNL     1       3.336   5.005  20.057  0.00  0.00    +0.000 A 
ATOM     15  C   UNL     1       3.556   3.625  20.117  0.00  0.00    +0.000 A 
ATOM     16  C   UNL     1       2.495   2.753  20.358  0.00  0.00    +0.000 A 
ATOM     17  C   UNL     1       1.218   3.259  20.584  0.00  0.00    +0.000 A 
ATOM     18  C   UNL     1       1.005   4.637  20.547  0.00  0.00    +0.000 A 
ENDBRANCH   4  13
BRANCH   3  19
ATOM     19  C   UNL     1       2.782   7.427  17.755  0.00  0.00    +0.000 C 
ATOM     20  N   UNL     1       4.067   7.280  17.787  0.00  0.00    +0.000 NA
BRANCH  20  21
ATOM     21  N   UNL     1       4.633   6.997  16.583  0.00  0.00    +0.000 N 
ATOM     22  H   UNL     1       4.737   7.727  15.880  0.00  0.00    +0.000 HD
BRANCH  21  23
ATOM     23  C   UNL     1       5.647   6.017  16.536  0.00  0.00    +0.000 A 
ATOM     24  C   UNL     1       6.014   5.376  15.352  0.00  0.00    +0.000 A 
ATOM     25  C   UNL     1       7.084   4.497  15.370  0.00  0.00    +0.000 A 
ATOM     26  N   UNL     1       7.818   4.228  16.468  0.00  0.00    +0.000 NA
ATOM     27  C   UNL     1       7.466   4.875  17.598  0.00  0.00    +0.000 A 
ATOM     28  C   UNL     1       6.408   5.765  17.680  0.00  0.00    +0.000 A 
ENDBRANCH  21  23
ENDBRANCH  20  21
ENDBRANCH   3  19
TORSDOF 5
ENDMDL
MODEL 3
REMARK VINA RESULT:      -8.4      0.674      1.477
REMARK  Name = 
REMARK  6 active torsions:
REMARK  status: ('A' for Active; 'I' for Inactive)
REMARK    1  A    between atoms: C_1  and  C_2
REMARK    2  A    between atoms: C_5  and  N_6
REMARK    3  A    between atoms: C_8  and  C_9
REMARK    4  A    between atoms: N_10  and  N_11
REMARK    5  A    between atoms: N_11  and  C_12
REMARK    6  A    between atoms: C_18  and  C_19
REMARK                            x       y       z     vdW  Elec       q    Type
REMARK                         _______ _______ _______ _____ _____    ______ ____
ROOT
ATOM      1  N   UNL     1       1.110   8.513  20.458  0.00  0.00    +0.000 N 
ATOM      2  C   UNL     1       1.707   8.587  19.225  0.00  0.00    +0.000 A 
ATOM      3  C   UNL     1       2.244   7.353  18.952  0.00  0.00    +0.000 A 
ATOM      4  C   UNL     1       1.866   6.536  20.055  0.00  0.00    +0.000 A 
ATOM      5  N   UNL     1       1.227   7.264  20.984  0.00  0.00    +0.000 NA
ENDROOT
BRANCH   1  10
ATOM      6  C   UNL     1      -1.479  12.780  23.297  0.00  0.00    +0.000 C 
ATOM      7  C   UNL     1      -0.830  11.655  22.545  0.00  0.00    +0.000 A 
ATOM      8  C   UNL     1      -0.787  10.369  23.087  0.00  0.00    +0.000 A 
ATOM      9  C   UNL     1      -0.163   9.326  22.397  0.00  0.00    +0.000 A 
ATOM     10  C   UNL     1       0.436   9.560  21.150  0.00  0.00    +0.000 A 
ATOM     11  C   UNL     1       0.376  10.844  20.594  0.00  0.00    +0.000 A 
ATOM     12  C   UNL     1      -0.257  11.883  21.288  0.00  0.00    +0.000 A 
ENDBRANCH   1  10
BRANCH   4  13
ATOM     13  C   UNL     1       2.104   5.097  20.218  0.00  0.00    +0.000 A 
ATOM     14  C   UNL     1       1.110   4.255  20.731  0.00  0.00    +0.000 A 
ATOM     15  C   UNL     1       1.377   2.902  20.962  0.00  0.00    +0.000 A 
ATOM     16  C   UNL     1       2.639   2.377  20.683  0.00  0.00    +0.000 A 
ATOM     17  C   UNL     1       3.624   3.191  20.133  0.00  0.00    +0.000 A 
ATOM     18  C   UNL     1       3.349   4.536  19.883  0.00  0.00    +0.000 A 
ENDBRANCH   4  13
BRANCH   3  19
ATOM     19  C   UNL     1       3.019   6.995  17.791  0.00  0.00    +0.000 C 
ATOM     20  N   UNL     1       4.195   7.509  17.634  0.00  0.00    +0.000 NA
BRANCH  20  21
ATOM     21  N   UNL     1       4.820   7.146  16.481  0.00  0.00    +0.000 N 
ATOM     22  H   UNL     1       4.920   7.814  15.719  0.00  0.00    +0.000 HD
BRANCH  21  23
ATOM     23  C   UNL     1       5.876   6.214  16.559  0.00  0.00    +0.000 A 
ATOM     24  C   UNL     1       6.599   5.999  17.733  0.00  0.00    +0.000 A 
ATOM     25  C   UNL     1       7.556   4.998  17.757  0.00  0.00    +0.000 A 
ATOM     26  N   UNL     1       7.827   4.192  16.710  0.00  0.00    +0.000 NA
ATOM     27  C   UNL     1       7.102   4.396  15.591  0.00  0.00    +0.000 A 
ATOM     28  C   UNL     1       6.129   5.377  15.471  0.00  0.00    +0.000 A 
ENDBRANCH  21  23
ENDBRANCH  20  21
ENDBRANCH   3  19
TORSDOF 5
ENDMDL
MODEL 4
REMARK VINA RESULT:      -8.2      2.352      3.302
REMARK  Name = 
REMARK  6 active torsions:
REMARK  status: ('A' for Active; 'I' for Inactive)
REMARK    1  A    between atoms: C_1  and  C_2
REMARK    2  A    between atoms: C_5  and  N_6
REMARK    3  A    between atoms: C_8  and  C_9
REMARK    4  A    between atoms: N_10  and  N_11
REMARK    5  A    between atoms: N_11  and  C_12
REMARK    6  A    between atoms: C_18  and  C_19
REMARK                            x       y       z     vdW  Elec       q    Type
REMARK                         _______ _______ _______ _____ _____    ______ ____
ROOT
ATOM      1  N   UNL     1       2.454   7.680  18.662  0.00  0.00    +0.000 N 
ATOM      2  C   UNL     1       3.591   7.794  17.902  0.00  0.00    +0.000 A 
ATOM      3  C   UNL     1       4.135   6.539  17.785  0.00  0.00    +0.000 A 
ATOM      4  C   UNL     1       3.219   5.678  18.452  0.00  0.00    +0.000 A 
ATOM      5  N   UNL     1       2.234   6.388  19.024  0.00  0.00    +0.000 NA
ENDROOT
BRANCH   1  10
ATOM      6  C   UNL     1      -0.987  12.002  20.230  0.00  0.00    +0.000 C 
ATOM      7  C   UNL     1      -0.112  10.854  19.820  0.00  0.00    +0.000 A 
ATOM      8  C   UNL     1       0.358   9.944  20.769  0.00  0.00    +0.000 A 
ATOM      9  C   UNL     1       1.191   8.887  20.392  0.00  0.00    +0.000 A 
ATOM     10  C   UNL     1       1.572   8.730  19.051  0.00  0.00    +0.000 A 
ATOM     11  C   UNL     1       1.085   9.629  18.093  0.00  0.00    +0.000 A 
ATOM     12  C   UNL     1       0.245  10.681  18.477  0.00  0.00    +0.000 A 
ENDBRANCH   1  10
BRANCH   4  13
ATOM     13  C   UNL     1       3.277   4.213  18.538  0.00  0.00    +0.000 A 
ATOM     14  C   UNL     1       4.035   3.579  19.530  0.00  0.00    +0.000 A 
ATOM     15  C   UNL     1       4.152   2.186  19.549  0.00  0.00    +0.000 A 
ATOM     16  C   UNL     1       3.516   1.413  18.578  0.00  0.00    +0.000 A 
ATOM     17  C   UNL     1       2.726   2.026  17.611  0.00  0.00    +0.000 A 
ATOM     18  C   UNL     1       2.591   3.415  17.607  0.00  0.00    +0.000 A 
ENDBRANCH   4  13
BRANCH   3  19
ATOM     19  C   UNL     1       5.369   6.201  17.123  0.00  0.00    +0.000 C 
ATOM     20  N   UNL     1       5.436   6.276  15.834  0.00  0.00    +0.000 NA
BRANCH  20  21
ATOM     21  N   UNL     1       6.628   5.886  15.306  0.00  0.00    +0.000 N 
ATOM     22  H   UNL     1       7.445   5.781  15.906  0.00  0.00    +0.000 HD
BRANCH  21  23
ATOM     23  C   UNL     1       6.614   5.002  14.206  0.00  0.00    +0.000 A 
ATOM     24  C   UNL     1       5.597   4.068  14.010  0.00  0.00    +0.000 A 
ATOM     25  C   UNL     1       5.604   3.303  12.855  0.00  0.00    +0.000 A 
ATOM     26  N   UNL     1       6.533   3.416  11.884  0.00  0.00    +0.000 NA
ATOM     27  C   UNL     1       7.494   4.342  12.078  0.00  0.00    +0.000 A 
ATOM     28  C   UNL     1       7.574   5.147  13.203  0.00  0.00    +0.000 A 
ENDBRANCH  21  23
ENDBRANCH  20  21
ENDBRANCH   3  19
TORSDOF 5
ENDMDL
MODEL 5
REMARK VINA RESULT:      -8.1      2.413      3.099
REMARK  Name = 
REMARK  6 active torsions:
REMARK  status: ('A' for Active; 'I' for Inactive)
REMARK    1  A    between atoms: C_1  and  C_2
REMARK    2  A    between atoms: C_5  and  N_6
REMARK    3  A    between atoms: C_8  and  C_9
REMARK    4  A    between atoms: N_10  and  N_11
REMARK    5  A    between atoms: N_11  and  C_12
REMARK    6  A    between atoms: C_18  and  C_19
REMARK                            x       y       z     vdW  Elec       q    Type
REMARK                         _______ _______ _______ _____ _____    ______ ____
ROOT
ATOM      1  N   UNL     1       2.358   7.818  18.654  0.00  0.00    +0.000 N 
ATOM      2  C   UNL     1       3.460   8.001  17.856  0.00  0.00    +0.000 A 
ATOM      3  C   UNL     1       4.059   6.776  17.694  0.00  0.00    +0.000 A 
ATOM      4  C   UNL     1       3.209   5.858  18.375  0.00  0.00    +0.000 A 
ATOM      5  N   UNL     1       2.214   6.509  18.996  0.00  0.00    +0.000 NA
ENDROOT
BRANCH   1  10
ATOM      6  C   UNL     1      -1.441  11.741  20.428  0.00  0.00    +0.000 C 
ATOM      7  C   UNL     1      -0.426  10.736  19.965  0.00  0.00    +0.000 A 
ATOM      8  C   UNL     1      -0.038  10.684  18.625  0.00  0.00    +0.000 A 
ATOM      9  C   UNL     1       0.891   9.735  18.190  0.00  0.00    +0.000 A 
ATOM     10  C   UNL     1       1.442   8.816  19.095  0.00  0.00    +0.000 A 
ATOM     11  C   UNL     1       1.070   8.880  20.444  0.00  0.00    +0.000 A 
ATOM     12  C   UNL     1       0.145   9.838  20.875  0.00  0.00    +0.000 A 
ENDBRANCH   1  10
BRANCH   4  13
ATOM     13  C   UNL     1       3.341   4.397  18.429  0.00  0.00    +0.000 A 
ATOM     14  C   UNL     1       2.675   3.579  17.508  0.00  0.00    +0.000 A 
ATOM     15  C   UNL     1       2.738   2.187  17.622  0.00  0.00    +0.000 A 
ATOM     16  C   UNL     1       3.466   1.598  18.656  0.00  0.00    +0.000 A 
ATOM     17  C   UNL     1       4.167   2.397  19.554  0.00  0.00    +0.000 A 
ATOM     18  C   UNL     1       4.121   3.786  19.425  0.00  0.00    +0.000 A 
ENDBRANCH   4  13
BRANCH   3  19
ATOM     19  C   UNL     1       5.283   6.509  16.982  0.00  0.00    +0.000 C 
ATOM     20  N   UNL     1       5.248   5.770  15.920  0.00  0.00    +0.000 NA
BRANCH  20  21
ATOM     21  N   UNL     1       6.463   5.539  15.354  0.00  0.00    +0.000 N 
ATOM     22  H   UNL     1       7.273   5.343  15.939  0.00  0.00    +0.000 HD
BRANCH  21  23
ATOM     23  C   UNL     1       6.503   4.898  14.098  0.00  0.00    +0.000 A 
ATOM     24  C   UNL     1       7.542   5.098  13.189  0.00  0.00    +0.000 A 
ATOM     25  C   UNL     1       7.560   4.358  12.018  0.00  0.00    +0.000 A 
ATOM     26  N   UNL     1       6.634   3.430  11.701  0.00  0.00    +0.000 NA
ATOM     27  C   UNL     1       5.651   3.231  12.602  0.00  0.00    +0.000 A 
ATOM     28  C   UNL     1       5.545   3.927  13.796  0.00  0.00    +0.000 A 
ENDBRANCH  21  23
ENDBRANCH  20  21
ENDBRANCH   3  19
TORSDOF 5
ENDMDL
MODEL 6
REMARK VINA RESULT:      -8.1      2.285      3.146
REMARK  Name = 
REMARK  6 active torsions:
REMARK  status: ('A' for Active; 'I' for Inactive)
REMARK    1  A    between atoms: C_1  and  C_2
REMARK    2  A    between atoms: C_5  and  N_6
REMARK    3  A    between atoms: C_8  and  C_9
REMARK    4  A    between atoms: N_10  and  N_11
REMARK    5  A    between atoms: N_11  and  C_12
REMARK    6  A    between atoms: C_18  and  C_19
REMARK                            x       y       z     vdW  Elec       q    Type
REMARK                         _______ _______ _______ _____ _____    ______ ____
ROOT
ATOM      1  N   UNL     1       2.407   7.812  18.517  0.00  0.00    +0.000 N 
ATOM      2  C   UNL     1       3.403   8.016  17.596  0.00  0.00    +0.000 A 
ATOM      3  C   UNL     1       4.029   6.811  17.393  0.00  0.00    +0.000 A 
ATOM      4  C   UNL     1       3.300   5.880  18.186  0.00  0.00    +0.000 A 
ATOM      5  N   UNL     1       2.355   6.509  18.902  0.00  0.00    +0.000 NA
ENDROOT
BRANCH   1  10
ATOM      6  C   UNL     1      -1.111  11.834  20.619  0.00  0.00    +0.000 C 
ATOM      7  C   UNL     1      -0.215  10.763  20.069  0.00  0.00    +0.000 A 
ATOM      8  C   UNL     1       0.352   9.808  20.915  0.00  0.00    +0.000 A 
ATOM      9  C   UNL     1       1.204   8.824  20.407  0.00  0.00    +0.000 A 
ATOM     10  C   UNL     1       1.507   8.786  19.038  0.00  0.00    +0.000 A 
ATOM     11  C   UNL     1       0.922   9.730  18.184  0.00  0.00    +0.000 A 
ATOM     12  C   UNL     1       0.064  10.709  18.698  0.00  0.00    +0.000 A 
ENDBRANCH   1  10
BRANCH   4  13
ATOM     13  C   UNL     1       3.495   4.427  18.255  0.00  0.00    +0.000 A 
ATOM     14  C   UNL     1       2.929   3.576  17.298  0.00  0.00    +0.000 A 
ATOM     15  C   UNL     1       3.051   2.189  17.423  0.00  0.00    +0.000 A 
ATOM     16  C   UNL     1       3.736   1.637  18.505  0.00  0.00    +0.000 A 
ATOM     17  C   UNL     1       4.340   2.470  19.442  0.00  0.00    +0.000 A 
ATOM     18  C   UNL     1       4.238   3.855  19.303  0.00  0.00    +0.000 A 
ENDBRANCH   4  13
BRANCH   3  19
ATOM     19  C   UNL     1       5.175   6.573  16.552  0.00  0.00    +0.000 C 
ATOM     20  N   UNL     1       5.990   5.615  16.853  0.00  0.00    +0.000 NA
BRANCH  20  21
ATOM     21  N   UNL     1       7.065   5.508  16.026  0.00  0.00    +0.000 N 
ATOM     22  H   UNL     1       7.988   5.306  16.407  0.00  0.00    +0.000 HD
BRANCH  21  23
ATOM     23  C   UNL     1       6.861   4.991  14.729  0.00  0.00    +0.000 A 
ATOM     24  C   UNL     1       7.682   5.327  13.653  0.00  0.00    +0.000 A 
ATOM     25  C   UNL     1       7.478   4.703  12.434  0.00  0.00    +0.000 A 
ATOM     26  N   UNL     1       6.534   3.763  12.219  0.00  0.00    +0.000 NA
ATOM     27  C   UNL     1       5.766   3.432  13.277  0.00  0.00    +0.000 A 
ATOM     28  C   UNL     1       5.891   4.006  14.532  0.00  0.00    +0.000 A 
ENDBRANCH  21  23
ENDBRANCH  20  21
ENDBRANCH   3  19
TORSDOF 5
ENDMDL
MODEL 7
REMARK VINA RESULT:      -8.0      0.534      1.352
REMARK  Name = 
REMARK  6 active torsions:
REMARK  status: ('A' for Active; 'I' for Inactive)
REMARK    1  A    between atoms: C_1  and  C_2
REMARK    2  A    between atoms: C_5  and  N_6
REMARK    3  A    between atoms: C_8  and  C_9
REMARK    4  A    between atoms: N_10  and  N_11
REMARK    5  A    between atoms: N_11  and  C_12
REMARK    6  A    between atoms: C_18  and  C_19
REMARK                            x       y       z     vdW  Elec       q    Type
REMARK                         _______ _______ _______ _____ _____    ______ ____
ROOT
ATOM      1  N   UNL     1       1.077   8.360  20.725  0.00  0.00    +0.000 N 
ATOM      2  C   UNL     1       1.953   8.407  19.670  0.00  0.00    +0.000 A 
ATOM      3  C   UNL     1       2.380   7.124  19.433  0.00  0.00    +0.000 A 
ATOM      4  C   UNL     1       1.653   6.318  20.354  0.00  0.00    +0.000 A 
ATOM      5  N   UNL     1       0.909   7.085  21.166  0.00  0.00    +0.000 NA
ENDROOT
BRANCH   1  10
ATOM      6  C   UNL     1      -1.803  12.729  23.090  0.00  0.00    +0.000 C 
ATOM      7  C   UNL     1      -1.024  11.600  22.482  0.00  0.00    +0.000 A 
ATOM      8  C   UNL     1      -0.415  11.748  21.234  0.00  0.00    +0.000 A 
ATOM      9  C   UNL     1       0.292  10.689  20.657  0.00  0.00    +0.000 A 
ATOM     10  C   UNL     1       0.394   9.459  21.323  0.00  0.00    +0.000 A 
ATOM     11  C   UNL     1      -0.198   9.314  22.584  0.00  0.00    +0.000 A 
ATOM     12  C   UNL     1      -0.898  10.381  23.160  0.00  0.00    +0.000 A 
ENDBRANCH   1  10
BRANCH   4  13
ATOM     13  C   UNL     1       1.664   4.854  20.456  0.00  0.00    +0.000 A 
ATOM     14  C   UNL     1       2.389   4.206  21.465  0.00  0.00    +0.000 A 
ATOM     15  C   UNL     1       2.461   2.810  21.499  0.00  0.00    +0.000 A 
ATOM     16  C   UNL     1       1.813   2.047  20.528  0.00  0.00    +0.000 A 
ATOM     17  C   UNL     1       1.055   2.675  19.544  0.00  0.00    +0.000 A 
ATOM     18  C   UNL     1       0.965   4.067  19.524  0.00  0.00    +0.000 A 
ENDBRANCH   4  13
BRANCH   3  19
ATOM     19  C   UNL     1       3.356   6.714  18.455  0.00  0.00    +0.000 C 
ATOM     20  N   UNL     1       3.562   7.459  17.418  0.00  0.00    +0.000 NA
BRANCH  20  21
ATOM     21  N   UNL     1       4.465   6.957  16.533  0.00  0.00    +0.000 N 
ATOM     22  H   UNL     1       4.622   7.422  15.640  0.00  0.00    +0.000 HD
BRANCH  21  23
ATOM     23  C   UNL     1       5.608   6.305  17.041  0.00  0.00    +0.000 A 
ATOM     24  C   UNL     1       6.621   6.988  17.715  0.00  0.00    +0.000 A 
ATOM     25  C   UNL     1       7.663   6.264  18.270  0.00  0.00    +0.000 A 
ATOM     26  N   UNL     1       7.757   4.920  18.217  0.00  0.00    +0.000 NA
ATOM     27  C   UNL     1       6.757   4.273  17.584  0.00  0.00    +0.000 A 
ATOM     28  C   UNL     1       5.678   4.911  16.992  0.00  0.00    +0.000 A 
ENDBRANCH  21  23
ENDBRANCH  20  21
ENDBRANCH   3  19
TORSDOF 5
ENDMDL
MODEL 8
REMARK VINA RESULT:      -7.9      2.130      2.907
REMARK  Name = 
REMARK  6 active torsions:
REMARK  status: ('A' for Active; 'I' for Inactive)
REMARK    1  A    between atoms: C_1  and  C_2
REMARK    2  A    between atoms: C_5  and  N_6
REMARK    3  A    between atoms: C_8  and  C_9
REMARK    4  A    between atoms: N_10  and  N_11
REMARK    5  A    between atoms: N_11  and  C_12
REMARK    6  A    between atoms: C_18  and  C_19
REMARK                            x       y       z     vdW  Elec       q    Type
REMARK                         _______ _______ _______ _____ _____    ______ ____
ROOT
ATOM      1  N   UNL     1       2.329   7.883  18.699  0.00  0.00    +0.000 N 
ATOM      2  C   UNL     1       3.302   8.057  17.747  0.00  0.00    +0.000 A 
ATOM      3  C   UNL     1       3.878   6.832  17.520  0.00  0.00    +0.000 A 
ATOM      4  C   UNL     1       3.143   5.923  18.332  0.00  0.00    +0.000 A 
ATOM      5  N   UNL     1       2.244   6.580  19.080  0.00  0.00    +0.000 NA
ENDROOT
BRANCH   1  10
ATOM      6  C   UNL     1      -1.206  11.830  20.915  0.00  0.00    +0.000 C 
ATOM      7  C   UNL     1      -0.259  10.818  20.339  0.00  0.00    +0.000 A 
ATOM      8  C   UNL     1       0.118  10.881  18.996  0.00  0.00    +0.000 A 
ATOM      9  C   UNL     1       0.983   9.926  18.453  0.00  0.00    +0.000 A 
ATOM     10  C   UNL     1       1.480   8.885  19.252  0.00  0.00    +0.000 A 
ATOM     11  C   UNL     1       1.120   8.832  20.605  0.00  0.00    +0.000 A 
ATOM     12  C   UNL     1       0.259   9.796  21.143  0.00  0.00    +0.000 A 
ENDBRANCH   1  10
BRANCH   4  13
ATOM     13  C   UNL     1       3.289   4.463  18.390  0.00  0.00    +0.000 A 
ATOM     14  C   UNL     1       4.098   3.858  19.360  0.00  0.00    +0.000 A 
ATOM     15  C   UNL     1       4.298   2.474  19.351  0.00  0.00    +0.000 A 
ATOM     16  C   UNL     1       3.694   1.681  18.375  0.00  0.00    +0.000 A 
ATOM     17  C   UNL     1       2.854   2.263  17.431  0.00  0.00    +0.000 A 
ATOM     18  C   UNL     1       2.638   3.642  17.454  0.00  0.00    +0.000 A 
ENDBRANCH   4  13
BRANCH   3  19
ATOM     19  C   UNL     1       4.988   6.558  16.642  0.00  0.00    +0.000 C 
ATOM     20  N   UNL     1       6.068   6.041  17.133  0.00  0.00    +0.000 NA
BRANCH  20  21
ATOM     21  N   UNL     1       7.072   5.871  16.231  0.00  0.00    +0.000 N 
ATOM     22  H   UNL     1       8.043   5.867  16.538  0.00  0.00    +0.000 HD
BRANCH  21  23
ATOM     23  C   UNL     1       6.829   5.051  15.108  0.00  0.00    +0.000 A 
ATOM     24  C   UNL     1       5.807   4.102  15.082  0.00  0.00    +0.000 A 
ATOM     25  C   UNL     1       5.570   3.405  13.909  0.00  0.00    +0.000 A 
ATOM     26  N   UNL     1       6.261   3.599  12.766  0.00  0.00    +0.000 NA
ATOM     27  C   UNL     1       7.228   4.538  12.802  0.00  0.00    +0.000 A 
ATOM     28  C   UNL     1       7.542   5.280  13.929  0.00  0.00    +0.000 A 
ENDBRANCH  21  23
ENDBRANCH  20  21
ENDBRANCH   3  19
TORSDOF 5
ENDMDL
MODEL 9
REMARK VINA RESULT:      -7.9      1.167      1.590
REMARK  Name = 
REMARK  6 active torsions:
REMARK  status: ('A' for Active; 'I' for Inactive)
REMARK    1  A    between atoms: C_1  and  C_2
REMARK    2  A    between atoms: C_5  and  N_6
REMARK    3  A    between atoms: C_8  and  C_9
REMARK    4  A    between atoms: N_10  and  N_11
REMARK    5  A    between atoms: N_11  and  C_12
REMARK    6  A    between atoms: C_18  and  C_19
REMARK                            x       y       z     vdW  Elec       q    Type
REMARK                         _______ _______ _______ _____ _____    ______ ____
ROOT
ATOM      1  N   UNL     1       0.835   8.456  20.760  0.00  0.00    +0.000 N 
ATOM      2  C   UNL     1       1.725   8.555  19.720  0.00  0.00    +0.000 A 
ATOM      3  C   UNL     1       2.228   7.299  19.487  0.00  0.00    +0.000 A 
ATOM      4  C   UNL     1       1.532   6.450  20.395  0.00  0.00    +0.000 A 
ATOM      5  N   UNL     1       0.732   7.171  21.195  0.00  0.00    +0.000 NA
ENDROOT
BRANCH   1  10
ATOM      6  C   UNL     1      -2.080  12.786  23.153  0.00  0.00    +0.000 C 
ATOM      7  C   UNL     1      -1.344  11.639  22.523  0.00  0.00    +0.000 A 
ATOM      8  C   UNL     1      -1.020  10.506  23.272  0.00  0.00    +0.000 A 
ATOM      9  C   UNL     1      -0.316   9.447  22.692  0.00  0.00    +0.000 A 
ATOM     10  C   UNL     1       0.081   9.512  21.348  0.00  0.00    +0.000 A 
ATOM     11  C   UNL     1      -0.261  10.638  20.589  0.00  0.00    +0.000 A 
ATOM     12  C   UNL     1      -0.973  11.692  21.174  0.00  0.00    +0.000 A 
ENDBRANCH   1  10
BRANCH   4  13
ATOM     13  C   UNL     1       1.624   4.989  20.493  0.00  0.00    +0.000 A 
ATOM     14  C   UNL     1       0.866   4.161  19.657  0.00  0.00    +0.000 A 
ATOM     15  C   UNL     1       0.897   2.772  19.818  0.00  0.00    +0.000 A 
ATOM     16  C   UNL     1       1.684   2.197  20.816  0.00  0.00    +0.000 A 
ATOM     17  C   UNL     1       2.475   3.004  21.627  0.00  0.00    +0.000 A 
ATOM     18  C   UNL     1       2.460   4.388  21.450  0.00  0.00    +0.000 A 
ENDBRANCH   4  13
BRANCH   3  19
ATOM     19  C   UNL     1       3.242   6.948  18.526  0.00  0.00    +0.000 C 
ATOM     20  N   UNL     1       3.479   5.699  18.286  0.00  0.00    +0.000 NA
BRANCH  20  21
ATOM     21  N   UNL     1       4.489   5.476  17.402  0.00  0.00    +0.000 N 
ATOM     22  H   UNL     1       4.305   5.480  16.400  0.00  0.00    +0.000 HD
BRANCH  21  23
ATOM     23  C   UNL     1       5.784   5.921  17.742  0.00  0.00    +0.000 A 
ATOM     24  C   UNL     1       6.375   7.032  17.140  0.00  0.00    +0.000 A 
ATOM     25  C   UNL     1       7.610   7.464  17.596  0.00  0.00    +0.000 A 
ATOM     26  N   UNL     1       8.281   6.883  18.612  0.00  0.00    +0.000 NA
ATOM     27  C   UNL     1       7.684   5.826  19.199  0.00  0.00    +0.000 A 
ATOM     28  C   UNL     1       6.455   5.318  18.808  0.00  0.00    +0.000 A 
ENDBRANCH  21  23
ENDBRANCH  20  21
ENDBRANCH   3  19
TORSDOF 5
ENDMDL
