MODEL 1
REMARK VINA RESULT:      -7.3      0.000      0.000
REMARK  Name = 
REMARK  3 active torsions:
REMARK  status: ('A' for Active; 'I' for Inactive)
REMARK    1  A    between atoms: C_2  and  C_10
REMARK    2  A    between atoms: N_3  and  N_4
REMARK    3  A    between atoms: C_17  and  O_18
REMARK                            x       y       z     vdW  Elec       q    Type
REMARK                         _______ _______ _______ _____ _____    ______ ____
ROOT
ATOM      1  O   UNL     1       4.918   6.856  15.666  0.00  0.00    +0.000 OA
ATOM      2  C   UNL     1       5.259   5.980  16.448  0.00  0.00    +0.000 C 
ATOM      3  N   UNL     1       6.385   5.265  16.175  0.00  0.00    +0.000 N 
ATOM      4  H   UNL     1       6.693   4.532  16.816  0.00  0.00    +0.000 HD
ENDROOT
BRANCH   2   5
ATOM      5  C   UNL     1       4.423   5.711  17.683  0.00  0.00    +0.000 A 
ATOM      6  C   UNL     1       3.637   6.734  18.272  0.00  0.00    +0.000 A 
ATOM      7  C   UNL     1       2.870   6.497  19.410  0.00  0.00    +0.000 A 
ATOM      8 CL   UNL     1       1.916   7.796  20.104  0.00  0.00    +0.000 Cl
ATOM      9  C   UNL     1       2.861   5.238  19.996  0.00  0.00    +0.000 A 
ATOM     10  C   UNL     1       3.617   4.203  19.448  0.00  0.00    +0.000 A 
ATOM     11 CL   UNL     1       3.554   2.634  20.243  0.00  0.00    +0.000 Cl
ATOM     12  C   UNL     1       4.402   4.425  18.293  0.00  0.00    +0.000 A 
BRANCH  12  13
ATOM     13  O   UNL     1       5.135   3.417  17.767  0.00  0.00    +0.000 OA
ATOM     14  H   UNL     1       4.840   2.871  17.025  0.00  0.00    +0.000 HD
ENDBRANCH  12  13
ENDBRANCH   2   5
BRANCH   3  15
ATOM     15  N   UNL     1       7.128   5.492  15.032  0.00  0.00    +0.000 NA
ATOM     16  C   UNL     1       6.936   4.816  13.945  0.00  0.00    +0.000 C 
ATOM     17  C   UNL     1       7.712   5.040  12.687  0.00  0.00    +0.000 C 
ATOM     18  C   UNL     1       7.335   3.805  11.864  0.00  0.00    +0.000 C 
ATOM     19  C   UNL     1       5.893   3.559  12.253  0.00  0.00    +0.000 C 
ATOM     20  C   UNL     1       5.913   3.727  13.768  0.00  0.00    +0.000 C 
ENDBRANCH   3  15
TORSDOF 3
ENDMDL
MODEL 2
REMARK VINA RESULT:      -7.3      3.707      6.748
REMARK  Name = 
REMARK  3 active torsions:
REMARK  status: ('A' for Active; 'I' for Inactive)
REMARK    1  A    between atoms: C_2  and  C_10
REMARK    2  A    between atoms: N_3  and  N_4
REMARK    3  A    between atoms: C_17  and  O_18
REMARK                            x       y       z     vdW  Elec       q    Type
REMARK                         _______ _______ _______ _____ _____    ______ ____
ROOT
ATOM      1  O   UNL     1       4.670   5.602  16.769  0.00  0.00    +0.000 OA
ATOM      2  C   UNL     1       5.148   4.538  16.401  0.00  0.00    +0.000 C 
ATOM      3  N   UNL     1       5.107   3.476  17.253  0.00  0.00    +0.000 N 
ATOM      4  H   UNL     1       5.495   2.576  16.966  0.00  0.00    +0.000 HD
ENDROOT
BRANCH   2   5
ATOM      5  C   UNL     1       5.775   4.434  15.025  0.00  0.00    +0.000 A 
ATOM      6  C   UNL     1       5.202   3.615  14.020  0.00  0.00    +0.000 A 
ATOM      7  C   UNL     1       5.774   3.510  12.754  0.00  0.00    +0.000 A 
ATOM      8 CL   UNL     1       5.030   2.480  11.543  0.00  0.00    +0.000 Cl
ATOM      9  C   UNL     1       6.931   4.216  12.450  0.00  0.00    +0.000 A 
ATOM     10  C   UNL     1       7.526   5.035  13.409  0.00  0.00    +0.000 A 
ATOM     11 CL   UNL     1       8.989   5.900  12.952  0.00  0.00    +0.000 Cl
ATOM     12  C   UNL     1       6.959   5.154  14.699  0.00  0.00    +0.000 A 
BRANCH  12  13
ATOM     13  O   UNL     1       7.541   5.949  15.625  0.00  0.00    +0.000 OA
ATOM     14  H   UNL     1       8.362   5.726  16.084  0.00  0.00    +0.000 HD
ENDBRANCH  12  13
ENDBRANCH   2   5
BRANCH   3  15
ATOM     15  N   UNL     1       4.562   3.583  18.518  0.00  0.00    +0.000 NA
ATOM     16  C   UNL     1       3.323   3.293  18.756  0.00  0.00    +0.000 C 
ATOM     17  C   UNL     1       2.701   3.387  20.112  0.00  0.00    +0.000 C 
ATOM     18  C   UNL     1       1.211   3.265  19.781  0.00  0.00    +0.000 C 
ATOM     19  C   UNL     1       1.195   2.301  18.613  0.00  0.00    +0.000 C 
ATOM     20  C   UNL     1       2.331   2.811  17.733  0.00  0.00    +0.000 C 
ENDBRANCH   3  15
TORSDOF 3
ENDMDL
MODEL 3
REMARK VINA RESULT:      -7.0      1.098      1.108
REMARK  Name = 
REMARK  3 active torsions:
REMARK  status: ('A' for Active; 'I' for Inactive)
REMARK    1  A    between atoms: C_2  and  C_10
REMARK    2  A    between atoms: N_3  and  N_4
REMARK    3  A    between atoms: C_17  and  O_18
REMARK                            x       y       z     vdW  Elec       q    Type
REMARK                         _______ _______ _______ _____ _____    ______ ____
ROOT
ATOM      1  O   UNL     1       6.746   4.448  17.408  0.00  0.00    +0.000 OA
ATOM      2  C   UNL     1       5.679   4.996  17.168  0.00  0.00    +0.000 C 
ATOM      3  N   UNL     1       5.494   5.550  15.938  0.00  0.00    +0.000 N 
ATOM      4  H   UNL     1       4.610   6.008  15.712  0.00  0.00    +0.000 HD
ENDROOT
BRANCH   2   5
ATOM      5  C   UNL     1       4.607   5.049  18.237  0.00  0.00    +0.000 A 
ATOM      6  C   UNL     1       3.841   6.223  18.450  0.00  0.00    +0.000 A 
ATOM      7  C   UNL     1       2.858   6.282  19.433  0.00  0.00    +0.000 A 
ATOM      8 CL   UNL     1       1.938   7.759  19.661  0.00  0.00    +0.000 Cl
ATOM      9  C   UNL     1       2.605   5.176  20.235  0.00  0.00    +0.000 A 
ATOM     10  C   UNL     1       3.332   4.000  20.058  0.00  0.00    +0.000 A 
ATOM     11 CL   UNL     1       2.956   2.639  21.109  0.00  0.00    +0.000 Cl
ATOM     12  C   UNL     1       4.335   3.922  19.064  0.00  0.00    +0.000 A 
BRANCH  12  13
ATOM     13  O   UNL     1       5.038   2.778  18.898  0.00  0.00    +0.000 OA
ATOM     14  H   UNL     1       5.311   2.437  18.036  0.00  0.00    +0.000 HD
ENDBRANCH  12  13
ENDBRANCH   2   5
BRANCH   3  15
ATOM     15  N   UNL     1       6.486   5.526  14.976  0.00  0.00    +0.000 NA
ATOM     16  C   UNL     1       6.411   4.759  13.936  0.00  0.00    +0.000 C 
ATOM     17  C   UNL     1       7.459   4.713  12.870  0.00  0.00    +0.000 C 
ATOM     18  C   UNL     1       7.057   3.456  12.092  0.00  0.00    +0.000 C 
ATOM     19  C   UNL     1       5.545   3.473  12.167  0.00  0.00    +0.000 C 
ATOM     20  C   UNL     1       5.278   3.819  13.628  0.00  0.00    +0.000 C 
ENDBRANCH   3  15
TORSDOF 3
ENDMDL
MODEL 4
REMARK VINA RESULT:      -7.0      0.958      2.405
REMARK  Name = 
REMARK  3 active torsions:
REMARK  status: ('A' for Active; 'I' for Inactive)
REMARK    1  A    between atoms: C_2  and  C_10
REMARK    2  A    between atoms: N_3  and  N_4
REMARK    3  A    between atoms: C_17  and  O_18
REMARK                            x       y       z     vdW  Elec       q    Type
REMARK                         _______ _______ _______ _____ _____    ______ ____
ROOT
ATOM      1  O   UNL     1       4.975   6.751  15.673  0.00  0.00    +0.000 OA
ATOM      2  C   UNL     1       5.352   5.871  16.434  0.00  0.00    +0.000 C 
ATOM      3  N   UNL     1       6.484   5.182  16.122  0.00  0.00    +0.000 N 
ATOM      4  H   UNL     1       6.822   4.446  16.745  0.00  0.00    +0.000 HD
ENDROOT
BRANCH   2   5
ATOM      5  C   UNL     1       4.552   5.570  17.685  0.00  0.00    +0.000 A 
ATOM      6  C   UNL     1       4.636   4.306  18.321  0.00  0.00    +0.000 A 
ATOM      7  C   UNL     1       3.901   4.019  19.468  0.00  0.00    +0.000 A 
ATOM      8 CL   UNL     1       4.035   2.438  20.218  0.00  0.00    +0.000 Cl
ATOM      9  C   UNL     1       3.061   4.979  20.018  0.00  0.00    +0.000 A 
ATOM     10  C   UNL     1       2.951   6.237  19.426  0.00  0.00    +0.000 A 
ATOM     11 CL   UNL     1       1.869   7.403  20.178  0.00  0.00    +0.000 Cl
ATOM     12  C   UNL     1       3.690   6.545  18.260  0.00  0.00    +0.000 A 
BRANCH  12  13
ATOM     13  O   UNL     1       3.578   7.767  17.690  0.00  0.00    +0.000 OA
ATOM     14  H   UNL     1       3.404   7.906  16.749  0.00  0.00    +0.000 HD
ENDBRANCH  12  13
ENDBRANCH   2   5
BRANCH   3  15
ATOM     15  N   UNL     1       7.194   5.439  14.965  0.00  0.00    +0.000 NA
ATOM     16  C   UNL     1       6.973   4.789  13.868  0.00  0.00    +0.000 C 
ATOM     17  C   UNL     1       7.713   5.046  12.594  0.00  0.00    +0.000 C 
ATOM     18  C   UNL     1       7.317   3.830  11.752  0.00  0.00    +0.000 C 
ATOM     19  C   UNL     1       5.886   3.569  12.175  0.00  0.00    +0.000 C 
ATOM     20  C   UNL     1       5.949   3.701  13.693  0.00  0.00    +0.000 C 
ENDBRANCH   3  15
TORSDOF 3
ENDMDL
MODEL 5
REMARK VINA RESULT:      -6.7      0.914      1.017
REMARK  Name = 
REMARK  3 active torsions:
REMARK  status: ('A' for Active; 'I' for Inactive)
REMARK    1  A    between atoms: C_2  and  C_10
REMARK    2  A    between atoms: N_3  and  N_4
REMARK    3  A    between atoms: C_17  and  O_18
REMARK                            x       y       z     vdW  Elec       q    Type
REMARK                         _______ _______ _______ _____ _____    ______ ____
ROOT
ATOM      1  O   UNL     1       5.978   6.808  15.990  0.00  0.00    +0.000 OA
ATOM      2  C   UNL     1       5.381   5.803  16.350  0.00  0.00    +0.000 C 
ATOM      3  N   UNL     1       5.647   4.627  15.719  0.00  0.00    +0.000 N 
ATOM      4  H   UNL     1       5.166   3.773  16.006  0.00  0.00    +0.000 HD
ENDROOT
BRANCH   2   5
ATOM      5  C   UNL     1       4.366   5.897  17.472  0.00  0.00    +0.000 A 
ATOM      6  C   UNL     1       3.587   7.065  17.659  0.00  0.00    +0.000 A 
ATOM      7  C   UNL     1       2.656   7.161  18.690  0.00  0.00    +0.000 A 
ATOM      8 CL   UNL     1       1.716   8.631  18.884  0.00  0.00    +0.000 Cl
ATOM      9  C   UNL     1       2.472   6.099  19.565  0.00  0.00    +0.000 A 
ATOM     10  C   UNL     1       3.215   4.929  19.416  0.00  0.00    +0.000 A 
ATOM     11 CL   UNL     1       2.927   3.624  20.561  0.00  0.00    +0.000 Cl
ATOM     12  C   UNL     1       4.166   4.814  18.374  0.00  0.00    +0.000 A 
BRANCH  12  13
ATOM     13  O   UNL     1       4.885   3.677  18.235  0.00  0.00    +0.000 OA
ATOM     14  H   UNL     1       4.645   2.837  18.649  0.00  0.00    +0.000 HD
ENDBRANCH  12  13
ENDBRANCH   2   5
BRANCH   3  15
ATOM     15  N   UNL     1       6.551   4.552  14.677  0.00  0.00    +0.000 NA
ATOM     16  C   UNL     1       6.248   3.997  13.547  0.00  0.00    +0.000 C 
ATOM     17  C   UNL     1       7.195   3.906  12.394  0.00  0.00    +0.000 C 
ATOM     18  C   UNL     1       6.480   2.906  11.481  0.00  0.00    +0.000 C 
ATOM     19  C   UNL     1       5.016   3.228  11.697  0.00  0.00    +0.000 C 
ATOM     20  C   UNL     1       4.918   3.379  13.210  0.00  0.00    +0.000 C 
ENDBRANCH   3  15
TORSDOF 3
ENDMDL
MODEL 6
REMARK VINA RESULT:      -6.7      4.009      7.625
REMARK  Name = 
REMARK  3 active torsions:
REMARK  status: ('A' for Active; 'I' for Inactive)
REMARK    1  A    between atoms: C_2  and  C_10
REMARK    2  A    between atoms: N_3  and  N_4
REMARK    3  A    between atoms: C_17  and  O_18
REMARK                            x       y       z     vdW  Elec       q    Type
REMARK                         _______ _______ _______ _____ _____    ______ ____
ROOT
ATOM      1  O   UNL     1       2.402   8.546  17.439  0.00  0.00    +0.000 OA
ATOM      2  C   UNL     1       2.331   7.686  18.305  0.00  0.00    +0.000 C 
ATOM      3  N   UNL     1       1.844   8.032  19.528  0.00  0.00    +0.000 N 
ATOM      4  H   UNL     1       1.770   7.330  20.266  0.00  0.00    +0.000 HD
ENDROOT
BRANCH   2   5
ATOM      5  C   UNL     1       2.791   6.275  17.999  0.00  0.00    +0.000 A 
ATOM      6  C   UNL     1       1.970   5.157  18.292  0.00  0.00    +0.000 A 
ATOM      7  C   UNL     1       2.387   3.857  18.019  0.00  0.00    +0.000 A 
ATOM      8 CL   UNL     1       1.336   2.505  18.403  0.00  0.00    +0.000 Cl
ATOM      9  C   UNL     1       3.631   3.629  17.446  0.00  0.00    +0.000 A 
ATOM     10  C   UNL     1       4.470   4.700  17.138  0.00  0.00    +0.000 A 
ATOM     11 CL   UNL     1       6.031   4.335  16.412  0.00  0.00    +0.000 Cl
ATOM     12  C   UNL     1       4.063   6.027  17.409  0.00  0.00    +0.000 A 
BRANCH  12  13
ATOM     13  O   UNL     1       4.881   7.062  17.110  0.00  0.00    +0.000 OA
ATOM     14  H   UNL     1       4.721   7.971  17.395  0.00  0.00    +0.000 HD
ENDBRANCH  12  13
ENDBRANCH   2   5
BRANCH   3  15
ATOM     15  N   UNL     1       1.453   9.327  19.813  0.00  0.00    +0.000 NA
ATOM     16  C   UNL     1       0.770   9.618  20.873  0.00  0.00    +0.000 C 
ATOM     17  C   UNL     1       0.339  11.007  21.219  0.00  0.00    +0.000 C 
ATOM     18  C   UNL     1      -0.678  10.750  22.335  0.00  0.00    +0.000 C 
ATOM     19  C   UNL     1      -0.099   9.551  23.058  0.00  0.00    +0.000 C 
ATOM     20  C   UNL     1       0.319   8.632  21.915  0.00  0.00    +0.000 C 
ENDBRANCH   3  15
TORSDOF 3
ENDMDL
MODEL 7
REMARK VINA RESULT:      -6.6      4.315      5.898
REMARK  Name = 
REMARK  3 active torsions:
REMARK  status: ('A' for Active; 'I' for Inactive)
REMARK    1  A    between atoms: C_2  and  C_10
REMARK    2  A    between atoms: N_3  and  N_4
REMARK    3  A    between atoms: C_17  and  O_18
REMARK                            x       y       z     vdW  Elec       q    Type
REMARK                         _______ _______ _______ _____ _____    ______ ____
ROOT
ATOM      1  O   UNL     1       2.769   8.514  17.403  0.00  0.00    +0.000 OA
ATOM      2  C   UNL     1       2.179   8.077  18.381  0.00  0.00    +0.000 C 
ATOM      3  N   UNL     1       2.349   6.768  18.713  0.00  0.00    +0.000 N 
ATOM      4  H   UNL     1       1.871   6.381  19.529  0.00  0.00    +0.000 HD
ENDROOT
BRANCH   2   5
ATOM      5  C   UNL     1       1.276   8.993  19.183  0.00  0.00    +0.000 A 
ATOM      6  C   UNL     1       0.539  10.029  18.555  0.00  0.00    +0.000 A 
ATOM      7  C   UNL     1      -0.288  10.878  19.285  0.00  0.00    +0.000 A 
ATOM      8 CL   UNL     1      -1.178  12.148  18.463  0.00  0.00    +0.000 Cl
ATOM      9  C   UNL     1      -0.408  10.724  20.660  0.00  0.00    +0.000 A 
ATOM     10  C   UNL     1       0.297   9.717  21.318  0.00  0.00    +0.000 A 
ATOM     11 CL   UNL     1       0.094   9.581  23.061  0.00  0.00    +0.000 Cl
ATOM     12  C   UNL     1       1.142   8.845  20.592  0.00  0.00    +0.000 A 
BRANCH  12  13
ATOM     13  O   UNL     1       1.824   7.871  21.237  0.00  0.00    +0.000 OA
ATOM     14  H   UNL     1       2.763   7.689  21.094  0.00  0.00    +0.000 HD
ENDBRANCH  12  13
ENDBRANCH   2   5
BRANCH   3  15
ATOM     15  N   UNL     1       3.149   5.928  17.962  0.00  0.00    +0.000 NA
ATOM     16  C   UNL     1       2.984   4.644  17.963  0.00  0.00    +0.000 C 
ATOM     17  C   UNL     1       3.823   3.705  17.157  0.00  0.00    +0.000 C 
ATOM     18  C   UNL     1       3.444   2.350  17.762  0.00  0.00    +0.000 C 
ATOM     19  C   UNL     1       1.978   2.522  18.101  0.00  0.00    +0.000 C 
ATOM     20  C   UNL     1       1.936   3.903  18.747  0.00  0.00    +0.000 C 
ENDBRANCH   3  15
TORSDOF 3
ENDMDL
MODEL 8
REMARK VINA RESULT:      -6.6      0.950      2.534
REMARK  Name = 
REMARK  3 active torsions:
REMARK  status: ('A' for Active; 'I' for Inactive)
REMARK    1  A    between atoms: C_2  and  C_10
REMARK    2  A    between atoms: N_3  and  N_4
REMARK    3  A    between atoms: C_17  and  O_18
REMARK                            x       y       z     vdW  Elec       q    Type
REMARK                         _______ _______ _______ _____ _____    ______ ____
ROOT
ATOM      1  O   UNL     1       6.894   4.483  17.235  0.00  0.00    +0.000 OA
ATOM      2  C   UNL     1       5.794   4.957  16.986  0.00  0.00    +0.000 C 
ATOM      3  N   UNL     1       5.556   5.429  15.732  0.00  0.00    +0.000 N 
ATOM      4  H   UNL     1       4.644   5.824  15.499  0.00  0.00    +0.000 HD
ENDROOT
BRANCH   2   5
ATOM      5  C   UNL     1       4.739   5.012  18.074  0.00  0.00    +0.000 A 
ATOM      6  C   UNL     1       4.477   3.889  18.897  0.00  0.00    +0.000 A 
ATOM      7  C   UNL     1       3.507   3.929  19.895  0.00  0.00    +0.000 A 
ATOM      8 CL   UNL     1       3.216   2.511  20.888  0.00  0.00    +0.000 Cl
ATOM      9  C   UNL     1       2.768   5.086  20.104  0.00  0.00    +0.000 A 
ATOM     10  C   UNL     1       2.995   6.216  19.319  0.00  0.00    +0.000 A 
ATOM     11 CL   UNL     1       2.023   7.646  19.642  0.00  0.00    +0.000 Cl
ATOM     12  C   UNL     1       3.977   6.193  18.300  0.00  0.00    +0.000 A 
BRANCH  12  13
ATOM     13  O   UNL     1       4.192   7.291  17.541  0.00  0.00    +0.000 OA
ATOM     14  H   UNL     1       4.958   7.871  17.642  0.00  0.00    +0.000 HD
ENDBRANCH  12  13
ENDBRANCH   2   5
BRANCH   3  15
ATOM     15  N   UNL     1       6.530   5.405  14.752  0.00  0.00    +0.000 NA
ATOM     16  C   UNL     1       6.443   4.627  13.720  0.00  0.00    +0.000 C 
ATOM     17  C   UNL     1       7.471   4.580  12.636  0.00  0.00    +0.000 C 
ATOM     18  C   UNL     1       7.066   3.313  11.877  0.00  0.00    +0.000 C 
ATOM     19  C   UNL     1       5.556   3.318  11.980  0.00  0.00    +0.000 C 
ATOM     20  C   UNL     1       5.313   3.675  13.442  0.00  0.00    +0.000 C 
ENDBRANCH   3  15
TORSDOF 3
ENDMDL
MODEL 9
REMARK VINA RESULT:      -6.6      4.973      6.555
REMARK  Name = 
REMARK  3 active torsions:
REMARK  status: ('A' for Active; 'I' for Inactive)
REMARK    1  A    between atoms: C_2  and  C_10
REMARK    2  A    between atoms: N_3  and  N_4
REMARK    3  A    between atoms: C_17  and  O_18
REMARK                            x       y       z     vdW  Elec       q    Type
REMARK                         _______ _______ _______ _____ _____    ______ ____
ROOT
ATOM      1  O   UNL     1       2.260   7.355  17.841  0.00  0.00    +0.000 OA
ATOM      2  C   UNL     1       2.198   7.473  19.057  0.00  0.00    +0.000 C 
ATOM      3  N   UNL     1       2.752   6.503  19.835  0.00  0.00    +0.000 N 
ATOM      4  H   UNL     1       2.718   6.582  20.852  0.00  0.00    +0.000 HD
ENDROOT
BRANCH   2   5
ATOM      5  C   UNL     1       1.507   8.681  19.657  0.00  0.00    +0.000 A 
ATOM      6  C   UNL     1       1.035   8.665  20.994  0.00  0.00    +0.000 A 
ATOM      7  C   UNL     1       0.394   9.768  21.552  0.00  0.00    +0.000 A 
ATOM      8 CL   UNL     1      -0.176   9.700  23.210  0.00  0.00    +0.000 Cl
ATOM      9  C   UNL     1       0.204  10.919  20.799  0.00  0.00    +0.000 A 
ATOM     10  C   UNL     1       0.655  10.979  19.481  0.00  0.00    +0.000 A 
ATOM     11 CL   UNL     1       0.381  12.471  18.588  0.00  0.00    +0.000 Cl
ATOM     12  C   UNL     1       1.308   9.868  18.898  0.00  0.00    +0.000 A 
BRANCH  12  13
ATOM     13  O   UNL     1       1.742   9.931  17.618  0.00  0.00    +0.000 OA
ATOM     14  H   UNL     1       1.172  10.150  16.869  0.00  0.00    +0.000 HD
ENDBRANCH  12  13
ENDBRANCH   2   5
BRANCH   3  15
ATOM     15  N   UNL     1       3.355   5.388  19.283  0.00  0.00    +0.000 NA
ATOM     16  C   UNL     1       2.733   4.258  19.173  0.00  0.00    +0.000 C 
ATOM     17  C   UNL     1       3.349   3.034  18.574  0.00  0.00    +0.000 C 
ATOM     18  C   UNL     1       2.349   1.949  18.984  0.00  0.00    +0.000 C 
ATOM     19  C   UNL     1       1.018   2.668  18.926  0.00  0.00    +0.000 C 
ATOM     20  C   UNL     1       1.317   3.998  19.608  0.00  0.00    +0.000 C 
ENDBRANCH   3  15
TORSDOF 3
ENDMDL
