MODEL 1
REMARK VINA RESULT:      -7.7      0.000      0.000
REMARK  Name = 
REMARK  6 active torsions:
REMARK  status: ('A' for Active; 'I' for Inactive)
REMARK    1  A    between atoms: C_1  and  C_2
REMARK    2  A    between atoms: N_4  and  C_5
REMARK    3  A    between atoms: C_8  and  S_9
REMARK    4  A    between atoms: S_9  and  N_12
REMARK    5  A    between atoms: N_12  and  N_13
REMARK    6  A    between atoms: N_13  and  C_14
REMARK                            x       y       z     vdW  Elec       q    Type
REMARK                         _______ _______ _______ _____ _____    ______ ____
ROOT
ATOM      1  S   UNL     1       1.811   3.566  20.627  0.00  0.00    +0.000 S 
ATOM      2  O   UNL     1       0.624   2.953  20.067  0.00  0.00    +0.000 OA
ATOM      3  O   UNL     1       2.483   2.997  21.776  0.00  0.00    +0.000 OA
ENDROOT
BRANCH   1   7
ATOM      4  C   UNL     1       4.854   3.837  17.193  0.00  0.00    +0.000 A 
ATOM      5  C   UNL     1       5.272   3.917  18.519  0.00  0.00    +0.000 A 
ATOM      6  C   UNL     1       4.367   3.819  19.574  0.00  0.00    +0.000 A 
ATOM      7  C   UNL     1       3.009   3.669  19.312  0.00  0.00    +0.000 A 
ATOM      8  C   UNL     1       2.562   3.606  17.986  0.00  0.00    +0.000 A 
ATOM      9  C   UNL     1       3.486   3.695  16.928  0.00  0.00    +0.000 A 
BRANCH   4  13
ATOM     10  C   UNL     1       6.906   4.754  14.164  0.00  0.00    +0.000 C 
ATOM     11  C   UNL     1       5.981   5.025  15.316  0.00  0.00    +0.000 C 
ATOM     12  O   UNL     1       5.497   6.140  15.468  0.00  0.00    +0.000 OA
ATOM     13  N   UNL     1       5.765   3.909  16.117  0.00  0.00    +0.000 N 
ATOM     14  H   UNL     1       6.362   3.105  15.967  0.00  0.00    +0.000 HD
ENDBRANCH   4  13
ENDBRANCH   1   7
BRANCH   1  15
ATOM     15  N   UNL     1       1.410   5.176  21.009  0.00  0.00    +0.000 NA
ATOM     16  H   UNL     1       0.579   5.368  21.555  0.00  0.00    +0.000 HD
BRANCH  15  17
ATOM     17  N   UNL     1       2.332   6.258  20.718  0.00  0.00    +0.000 N 
ATOM     18  H   UNL     1       3.266   6.171  21.120  0.00  0.00    +0.000 HD
BRANCH  17  19
ATOM     19  C   UNL     1       2.098   7.324  19.838  0.00  0.00    +0.000 A 
ATOM     20  C   UNL     1       2.675   7.286  18.561  0.00  0.00    +0.000 A 
ATOM     21  C   UNL     1       2.486   8.327  17.647  0.00  0.00    +0.000 A 
ATOM     22  C   UNL     1       1.718   9.433  18.001  0.00  0.00    +0.000 A 
ATOM     23  C   UNL     1       1.151   9.489  19.271  0.00  0.00    +0.000 A 
ATOM     24 BR   UNL     1       0.107  10.992  19.754  0.00  0.00    +0.000 Br
ATOM     25  C   UNL     1       1.341   8.450  20.189  0.00  0.00    +0.000 A 
ENDBRANCH  17  19
ENDBRANCH  15  17
ENDBRANCH   1  15
TORSDOF 5
ENDMDL
MODEL 2
REMARK VINA RESULT:      -7.6      0.161      1.038
REMARK  Name = 
REMARK  6 active torsions:
REMARK  status: ('A' for Active; 'I' for Inactive)
REMARK    1  A    between atoms: C_1  and  C_2
REMARK    2  A    between atoms: N_4  and  C_5
REMARK    3  A    between atoms: C_8  and  S_9
REMARK    4  A    between atoms: S_9  and  N_12
REMARK    5  A    between atoms: N_12  and  N_13
REMARK    6  A    between atoms: N_13  and  C_14
REMARK                            x       y       z     vdW  Elec       q    Type
REMARK                         _______ _______ _______ _____ _____    ______ ____
ROOT
ATOM      1  S   UNL     1       1.813   3.528  20.591  0.00  0.00    +0.000 S 
ATOM      2  O   UNL     1       0.704   2.711  20.147  0.00  0.00    +0.000 OA
ATOM      3  O   UNL     1       2.580   3.182  21.770  0.00  0.00    +0.000 OA
ENDROOT
BRANCH   1   7
ATOM      4  C   UNL     1       4.815   3.796  17.121  0.00  0.00    +0.000 A 
ATOM      5  C   UNL     1       3.463   3.569  16.874  0.00  0.00    +0.000 A 
ATOM      6  C   UNL     1       2.535   3.502  17.911  0.00  0.00    +0.000 A 
ATOM      7  C   UNL     1       2.957   3.632  19.230  0.00  0.00    +0.000 A 
ATOM      8  C   UNL     1       4.315   3.842  19.505  0.00  0.00    +0.000 A 
ATOM      9  C   UNL     1       5.243   3.918  18.449  0.00  0.00    +0.000 A 
BRANCH   4  13
ATOM     10  C   UNL     1       6.976   4.790  14.194  0.00  0.00    +0.000 C 
ATOM     11  C   UNL     1       6.022   5.034  15.329  0.00  0.00    +0.000 C 
ATOM     12  O   UNL     1       5.556   6.152  15.512  0.00  0.00    +0.000 OA
ATOM     13  N   UNL     1       5.759   3.891  16.077  0.00  0.00    +0.000 N 
ATOM     14  H   UNL     1       6.345   3.082  15.911  0.00  0.00    +0.000 HD
ENDBRANCH   4  13
ENDBRANCH   1   7
BRANCH   1  15
ATOM     15  N   UNL     1       1.216   5.107  20.811  0.00  0.00    +0.000 NA
ATOM     16  H   UNL     1       0.260   5.242  21.114  0.00  0.00    +0.000 HD
BRANCH  15  17
ATOM     17  N   UNL     1       2.105   6.252  20.739  0.00  0.00    +0.000 N 
ATOM     18  H   UNL     1       2.930   6.216  21.339  0.00  0.00    +0.000 HD
BRANCH  17  19
ATOM     19  C   UNL     1       2.002   7.320  19.837  0.00  0.00    +0.000 A 
ATOM     20  C   UNL     1       2.600   7.199  18.574  0.00  0.00    +0.000 A 
ATOM     21  C   UNL     1       2.538   8.237  17.640  0.00  0.00    +0.000 A 
ATOM     22  C   UNL     1       1.882   9.423  17.958  0.00  0.00    +0.000 A 
ATOM     23  C   UNL     1       1.296   9.560  19.213  0.00  0.00    +0.000 A 
ATOM     24 BR   UNL     1       0.403  11.172  19.647  0.00  0.00    +0.000 Br
ATOM     25  C   UNL     1       1.358   8.524  20.152  0.00  0.00    +0.000 A 
ENDBRANCH  17  19
ENDBRANCH  15  17
ENDBRANCH   1  15
TORSDOF 5
ENDMDL
MODEL 3
REMARK VINA RESULT:      -7.5      3.215      6.001
REMARK  Name = 
REMARK  6 active torsions:
REMARK  status: ('A' for Active; 'I' for Inactive)
REMARK    1  A    between atoms: C_1  and  C_2
REMARK    2  A    between atoms: N_4  and  C_5
REMARK    3  A    between atoms: C_8  and  S_9
REMARK    4  A    between atoms: S_9  and  N_12
REMARK    5  A    between atoms: N_12  and  N_13
REMARK    6  A    between atoms: N_13  and  C_14
REMARK                            x       y       z     vdW  Elec       q    Type
REMARK                         _______ _______ _______ _____ _____    ______ ____
ROOT
ATOM      1  S   UNL     1       2.529   2.734  18.502  0.00  0.00    +0.000 S 
ATOM      2  O   UNL     1       1.714   1.890  19.349  0.00  0.00    +0.000 OA
ATOM      3  O   UNL     1       2.361   2.749  17.064  0.00  0.00    +0.000 OA
ENDROOT
BRANCH   1   7
ATOM      4  C   UNL     1       1.971   7.071  19.920  0.00  0.00    +0.000 A 
ATOM      5  C   UNL     1       1.764   6.007  20.795  0.00  0.00    +0.000 A 
ATOM      6  C   UNL     1       1.946   4.686  20.389  0.00  0.00    +0.000 A 
ATOM      7  C   UNL     1       2.311   4.407  19.075  0.00  0.00    +0.000 A 
ATOM      8  C   UNL     1       2.505   5.460  18.172  0.00  0.00    +0.000 A 
ATOM      9  C   UNL     1       2.329   6.791  18.596  0.00  0.00    +0.000 A 
BRANCH   4  13
ATOM     10  C   UNL     1       0.766  10.426  21.153  0.00  0.00    +0.000 C 
ATOM     11  C   UNL     1       0.700   8.936  20.974  0.00  0.00    +0.000 C 
ATOM     12  O   UNL     1      -0.274   8.310  21.375  0.00  0.00    +0.000 OA
ATOM     13  N   UNL     1       1.815   8.413  20.328  0.00  0.00    +0.000 N 
ATOM     14  H   UNL     1       2.613   9.025  20.207  0.00  0.00    +0.000 HD
ENDBRANCH   4  13
ENDBRANCH   1   7
BRANCH   1  15
ATOM     15  N   UNL     1       4.155   2.348  18.826  0.00  0.00    +0.000 NA
ATOM     16  H   UNL     1       4.504   1.425  18.599  0.00  0.00    +0.000 HD
BRANCH  15  17
ATOM     17  N   UNL     1       5.089   3.371  19.258  0.00  0.00    +0.000 N 
ATOM     18  H   UNL     1       5.324   3.371  20.252  0.00  0.00    +0.000 HD
BRANCH  17  19
ATOM     19  C   UNL     1       5.787   4.254  18.424  0.00  0.00    +0.000 A 
ATOM     20  C   UNL     1       6.428   5.363  18.996  0.00  0.00    +0.000 A 
ATOM     21  C   UNL     1       7.128   6.282  18.210  0.00  0.00    +0.000 A 
ATOM     22  C   UNL     1       7.194   6.112  16.830  0.00  0.00    +0.000 A 
ATOM     23  C   UNL     1       6.551   5.023  16.248  0.00  0.00    +0.000 A 
ATOM     24 BR   UNL     1       6.639   4.789  14.372  0.00  0.00    +0.000 Br
ATOM     25  C   UNL     1       5.847   4.102  17.032  0.00  0.00    +0.000 A 
ENDBRANCH  17  19
ENDBRANCH  15  17
ENDBRANCH   1  15
TORSDOF 5
ENDMDL
MODEL 4
REMARK VINA RESULT:      -7.4      3.292      5.967
REMARK  Name = 
REMARK  6 active torsions:
REMARK  status: ('A' for Active; 'I' for Inactive)
REMARK    1  A    between atoms: C_1  and  C_2
REMARK    2  A    between atoms: N_4  and  C_5
REMARK    3  A    between atoms: C_8  and  S_9
REMARK    4  A    between atoms: S_9  and  N_12
REMARK    5  A    between atoms: N_12  and  N_13
REMARK    6  A    between atoms: N_13  and  C_14
REMARK                            x       y       z     vdW  Elec       q    Type
REMARK                         _______ _______ _______ _____ _____    ______ ____
ROOT
ATOM      1  S   UNL     1       2.495   2.858  18.288  0.00  0.00    +0.000 S 
ATOM      2  O   UNL     1       1.613   1.957  18.999  0.00  0.00    +0.000 OA
ATOM      3  O   UNL     1       2.412   3.018  16.851  0.00  0.00    +0.000 OA
ENDROOT
BRANCH   1   7
ATOM      4  C   UNL     1       1.924   6.993  20.210  0.00  0.00    +0.000 A 
ATOM      5  C   UNL     1       2.478   6.873  18.938  0.00  0.00    +0.000 A 
ATOM      6  C   UNL     1       2.643   5.629  18.331  0.00  0.00    +0.000 A 
ATOM      7  C   UNL     1       2.279   4.471  19.011  0.00  0.00    +0.000 A 
ATOM      8  C   UNL     1       1.738   4.566  20.300  0.00  0.00    +0.000 A 
ATOM      9  C   UNL     1       1.566   5.828  20.899  0.00  0.00    +0.000 A 
BRANCH   4  13
ATOM     10  C   UNL     1       1.027  10.541  21.128  0.00  0.00    +0.000 C 
ATOM     11  C   UNL     1       0.923   9.271  20.330  0.00  0.00    +0.000 C 
ATOM     12  O   UNL     1       0.191   9.218  19.350  0.00  0.00    +0.000 OA
ATOM     13  N   UNL     1       1.728   8.249  20.824  0.00  0.00    +0.000 N 
ATOM     14  H   UNL     1       2.147   8.386  21.735  0.00  0.00    +0.000 HD
ENDBRANCH   4  13
ENDBRANCH   1   7
BRANCH   1  15
ATOM     15  N   UNL     1       4.090   2.397  18.663  0.00  0.00    +0.000 NA
ATOM     16  H   UNL     1       4.410   1.466  18.428  0.00  0.00    +0.000 HD
BRANCH  15  17
ATOM     17  N   UNL     1       5.048   3.371  19.154  0.00  0.00    +0.000 N 
ATOM     18  H   UNL     1       5.267   3.320  20.150  0.00  0.00    +0.000 HD
BRANCH  17  19
ATOM     19  C   UNL     1       5.785   4.269  18.370  0.00  0.00    +0.000 A 
ATOM     20  C   UNL     1       6.405   5.361  18.993  0.00  0.00    +0.000 A 
ATOM     21  C   UNL     1       7.143   6.294  18.258  0.00  0.00    +0.000 A 
ATOM     22  C   UNL     1       7.265   6.154  16.879  0.00  0.00    +0.000 A 
ATOM     23  C   UNL     1       6.643   5.082  16.246  0.00  0.00    +0.000 A 
ATOM     24 BR   UNL     1       6.809   4.889  14.370  0.00  0.00    +0.000 Br
ATOM     25  C   UNL     1       5.902   4.148  16.978  0.00  0.00    +0.000 A 
ENDBRANCH  17  19
ENDBRANCH  15  17
ENDBRANCH   1  15
TORSDOF 5
ENDMDL
MODEL 5
REMARK VINA RESULT:      -7.3      0.956      1.190
REMARK  Name = 
REMARK  6 active torsions:
REMARK  status: ('A' for Active; 'I' for Inactive)
REMARK    1  A    between atoms: C_1  and  C_2
REMARK    2  A    between atoms: N_4  and  C_5
REMARK    3  A    between atoms: C_8  and  S_9
REMARK    4  A    between atoms: S_9  and  N_12
REMARK    5  A    between atoms: N_12  and  N_13
REMARK    6  A    between atoms: N_13  and  C_14
REMARK                            x       y       z     vdW  Elec       q    Type
REMARK                         _______ _______ _______ _____ _____    ______ ____
ROOT
ATOM      1  S   UNL     1       2.151   3.922  20.874  0.00  0.00    +0.000 S 
ATOM      2  O   UNL     1       0.798   3.658  20.433  0.00  0.00    +0.000 OA
ATOM      3  O   UNL     1       2.784   3.113  21.895  0.00  0.00    +0.000 OA
ENDROOT
BRANCH   1   7
ATOM      4  C   UNL     1       4.777   3.740  17.107  0.00  0.00    +0.000 A 
ATOM      5  C   UNL     1       5.342   4.004  18.352  0.00  0.00    +0.000 A 
ATOM      6  C   UNL     1       4.565   4.046  19.509  0.00  0.00    +0.000 A 
ATOM      7  C   UNL     1       3.189   3.852  19.428  0.00  0.00    +0.000 A 
ATOM      8  C   UNL     1       2.596   3.604  18.183  0.00  0.00    +0.000 A 
ATOM      9  C   UNL     1       3.392   3.553  17.023  0.00  0.00    +0.000 A 
BRANCH   4  13
ATOM     10  C   UNL     1       6.633   4.347  13.879  0.00  0.00    +0.000 C 
ATOM     11  C   UNL     1       5.921   4.752  15.139  0.00  0.00    +0.000 C 
ATOM     12  O   UNL     1       5.708   5.935  15.373  0.00  0.00    +0.000 OA
ATOM     13  N   UNL     1       5.559   3.669  15.933  0.00  0.00    +0.000 N 
ATOM     14  H   UNL     1       5.949   2.766  15.694  0.00  0.00    +0.000 HD
ENDBRANCH   4  13
ENDBRANCH   1   7
BRANCH   1  15
ATOM     15  N   UNL     1       2.201   5.542  21.396  0.00  0.00    +0.000 NA
ATOM     16  H   UNL     1       2.136   5.750  22.384  0.00  0.00    +0.000 HD
BRANCH  15  17
ATOM     17  N   UNL     1       2.511   6.612  20.466  0.00  0.00    +0.000 N 
ATOM     18  H   UNL     1       3.270   6.427  19.808  0.00  0.00    +0.000 HD
BRANCH  17  19
ATOM     19  C   UNL     1       1.784   7.799  20.304  0.00  0.00    +0.000 A 
ATOM     20  C   UNL     1       1.769   8.418  19.045  0.00  0.00    +0.000 A 
ATOM     21  C   UNL     1       1.071   9.609  18.830  0.00  0.00    +0.000 A 
ATOM     22  C   UNL     1       0.378  10.209  19.878  0.00  0.00    +0.000 A 
ATOM     23  C   UNL     1       0.395   9.612  21.135  0.00  0.00    +0.000 A 
ATOM     24 BR   UNL     1      -0.546  10.426  22.561  0.00  0.00    +0.000 Br
ATOM     25  C   UNL     1       1.096   8.421  21.354  0.00  0.00    +0.000 A 
ENDBRANCH  17  19
ENDBRANCH  15  17
ENDBRANCH   1  15
TORSDOF 5
ENDMDL
MODEL 6
REMARK VINA RESULT:      -7.3      1.656      2.299
REMARK  Name = 
REMARK  6 active torsions:
REMARK  status: ('A' for Active; 'I' for Inactive)
REMARK    1  A    between atoms: C_1  and  C_2
REMARK    2  A    between atoms: N_4  and  C_5
REMARK    3  A    between atoms: C_8  and  S_9
REMARK    4  A    between atoms: S_9  and  N_12
REMARK    5  A    between atoms: N_12  and  N_13
REMARK    6  A    between atoms: N_13  and  C_14
REMARK                            x       y       z     vdW  Elec       q    Type
REMARK                         _______ _______ _______ _____ _____    ______ ____
ROOT
ATOM      1  S   UNL     1       4.043   3.577  19.442  0.00  0.00    +0.000 S 
ATOM      2  O   UNL     1       2.735   3.194  18.955  0.00  0.00    +0.000 OA
ATOM      3  O   UNL     1       4.885   2.642  20.158  0.00  0.00    +0.000 OA
ENDROOT
BRANCH   1   7
ATOM      4  C   UNL     1       6.494   5.062  15.849  0.00  0.00    +0.000 A 
ATOM      5  C   UNL     1       5.180   4.632  15.682  0.00  0.00    +0.000 A 
ATOM      6  C   UNL     1       4.415   4.195  16.762  0.00  0.00    +0.000 A 
ATOM      7  C   UNL     1       4.972   4.152  18.036  0.00  0.00    +0.000 A 
ATOM      8  C   UNL     1       6.299   4.562  18.225  0.00  0.00    +0.000 A 
ATOM      9  C   UNL     1       7.059   5.011  17.129  0.00  0.00    +0.000 A 
BRANCH   4  13
ATOM     10  C   UNL     1       8.349   5.589  12.607  0.00  0.00    +0.000 C 
ATOM     11  C   UNL     1       7.329   4.949  13.505  0.00  0.00    +0.000 C 
ATOM     12  O   UNL     1       6.658   4.007  13.101  0.00  0.00    +0.000 OA
ATOM     13  N   UNL     1       7.270   5.531  14.767  0.00  0.00    +0.000 N 
ATOM     14  H   UNL     1       7.763   6.405  14.899  0.00  0.00    +0.000 HD
ENDBRANCH   4  13
ENDBRANCH   1   7
BRANCH   1  15
ATOM     15  N   UNL     1       3.827   4.941  20.438  0.00  0.00    +0.000 NA
ATOM     16  H   UNL     1       4.625   5.347  20.910  0.00  0.00    +0.000 HD
BRANCH  15  17
ATOM     17  N   UNL     1       2.552   5.634  20.480  0.00  0.00    +0.000 N 
ATOM     18  H   UNL     1       1.860   5.256  21.129  0.00  0.00    +0.000 HD
BRANCH  17  19
ATOM     19  C   UNL     1       2.243   6.831  19.822  0.00  0.00    +0.000 A 
ATOM     20  C   UNL     1       2.634   6.990  18.485  0.00  0.00    +0.000 A 
ATOM     21  C   UNL     1       2.362   8.168  17.784  0.00  0.00    +0.000 A 
ATOM     22  C   UNL     1       1.698   9.217  18.414  0.00  0.00    +0.000 A 
ATOM     23  C   UNL     1       1.317   9.077  19.746  0.00  0.00    +0.000 A 
ATOM     24 BR   UNL     1       0.414  10.502  20.605  0.00  0.00    +0.000 Br
ATOM     25  C   UNL     1       1.590   7.900  20.451  0.00  0.00    +0.000 A 
ENDBRANCH  17  19
ENDBRANCH  15  17
ENDBRANCH   1  15
TORSDOF 5
ENDMDL
MODEL 7
REMARK VINA RESULT:      -7.1      3.374      5.924
REMARK  Name = 
REMARK  6 active torsions:
REMARK  status: ('A' for Active; 'I' for Inactive)
REMARK    1  A    between atoms: C_1  and  C_2
REMARK    2  A    between atoms: N_4  and  C_5
REMARK    3  A    between atoms: C_8  and  S_9
REMARK    4  A    between atoms: S_9  and  N_12
REMARK    5  A    between atoms: N_12  and  N_13
REMARK    6  A    between atoms: N_13  and  C_14
REMARK                            x       y       z     vdW  Elec       q    Type
REMARK                         _______ _______ _______ _____ _____    ______ ____
ROOT
ATOM      1  S   UNL     1       6.094   4.933  17.968  0.00  0.00    +0.000 S 
ATOM      2  O   UNL     1       7.136   5.669  17.284  0.00  0.00    +0.000 OA
ATOM      3  O   UNL     1       6.317   4.346  19.273  0.00  0.00    +0.000 OA
ENDROOT
BRANCH   1   7
ATOM      4  C   UNL     1       2.486   7.745  18.409  0.00  0.00    +0.000 A 
ATOM      5  C   UNL     1       3.240   7.738  17.238  0.00  0.00    +0.000 A 
ATOM      6  C   UNL     1       4.327   6.880  17.078  0.00  0.00    +0.000 A 
ATOM      7  C   UNL     1       4.697   6.028  18.114  0.00  0.00    +0.000 A 
ATOM      8  C   UNL     1       3.965   6.032  19.309  0.00  0.00    +0.000 A 
ATOM      9  C   UNL     1       2.863   6.895  19.455  0.00  0.00    +0.000 A 
BRANCH   4  13
ATOM     10  C   UNL     1       0.065  10.615  18.780  0.00  0.00    +0.000 C 
ATOM     11  C   UNL     1       1.369   9.972  18.399  0.00  0.00    +0.000 C 
ATOM     12  O   UNL     1       2.298  10.658  17.993  0.00  0.00    +0.000 OA
ATOM     13  N   UNL     1       1.367   8.591  18.571  0.00  0.00    +0.000 N 
ATOM     14  H   UNL     1       0.477   8.146  18.753  0.00  0.00    +0.000 HD
ENDBRANCH   4  13
ENDBRANCH   1   7
BRANCH   1  15
ATOM     15  N   UNL     1       5.592   3.687  16.922  0.00  0.00    +0.000 NA
ATOM     16  H   UNL     1       6.042   3.577  16.023  0.00  0.00    +0.000 HD
BRANCH  15  17
ATOM     17  N   UNL     1       4.652   2.676  17.371  0.00  0.00    +0.000 N 
ATOM     18  H   UNL     1       4.965   1.707  17.289  0.00  0.00    +0.000 HD
BRANCH  17  19
ATOM     19  C   UNL     1       3.434   2.914  18.020  0.00  0.00    +0.000 A 
ATOM     20  C   UNL     1       2.374   3.471  17.289  0.00  0.00    +0.000 A 
ATOM     21  C   UNL     1       1.141   3.740  17.889  0.00  0.00    +0.000 A 
ATOM     22  C   UNL     1       0.947   3.463  19.239  0.00  0.00    +0.000 A 
ATOM     23  C   UNL     1       1.994   2.921  19.979  0.00  0.00    +0.000 A 
ATOM     24 BR   UNL     1       1.734   2.542  21.815  0.00  0.00    +0.000 Br
ATOM     25  C   UNL     1       3.232   2.653  19.382  0.00  0.00    +0.000 A 
ENDBRANCH  17  19
ENDBRANCH  15  17
ENDBRANCH   1  15
TORSDOF 5
ENDMDL
MODEL 8
REMARK VINA RESULT:      -7.1      2.876      5.417
REMARK  Name = 
REMARK  6 active torsions:
REMARK  status: ('A' for Active; 'I' for Inactive)
REMARK    1  A    between atoms: C_1  and  C_2
REMARK    2  A    between atoms: N_4  and  C_5
REMARK    3  A    between atoms: C_8  and  S_9
REMARK    4  A    between atoms: S_9  and  N_12
REMARK    5  A    between atoms: N_12  and  N_13
REMARK    6  A    between atoms: N_13  and  C_14
REMARK                            x       y       z     vdW  Elec       q    Type
REMARK                         _______ _______ _______ _____ _____    ______ ____
ROOT
ATOM      1  S   UNL     1       2.692   2.746  19.781  0.00  0.00    +0.000 S 
ATOM      2  O   UNL     1       2.764   2.646  21.223  0.00  0.00    +0.000 OA
ATOM      3  O   UNL     1       1.702   2.011  19.022  0.00  0.00    +0.000 OA
ENDROOT
BRANCH   1   7
ATOM      4  C   UNL     1       2.164   7.213  18.836  0.00  0.00    +0.000 A 
ATOM      5  C   UNL     1       2.064   6.258  17.827  0.00  0.00    +0.000 A 
ATOM      6  C   UNL     1       2.203   4.898  18.097  0.00  0.00    +0.000 A 
ATOM      7  C   UNL     1       2.479   4.471  19.392  0.00  0.00    +0.000 A 
ATOM      8  C   UNL     1       2.604   5.415  20.420  0.00  0.00    +0.000 A 
ATOM      9  C   UNL     1       2.451   6.786  20.138  0.00  0.00    +0.000 A 
BRANCH   4  13
ATOM     10  C   UNL     1       1.085  10.825  18.685  0.00  0.00    +0.000 C 
ATOM     11  C   UNL     1       1.155   9.447  19.281  0.00  0.00    +0.000 C 
ATOM     12  O   UNL     1       0.501   9.174  20.280  0.00  0.00    +0.000 OA
ATOM     13  N   UNL     1       1.998   8.591  18.579  0.00  0.00    +0.000 N 
ATOM     14  H   UNL     1       2.599   9.003  17.876  0.00  0.00    +0.000 HD
ENDBRANCH   4  13
ENDBRANCH   1   7
BRANCH   1  15
ATOM     15  N   UNL     1       4.225   2.325  19.172  0.00  0.00    +0.000 NA
ATOM     16  H   UNL     1       4.345   1.443  18.688  0.00  0.00    +0.000 HD
BRANCH  15  17
ATOM     17  N   UNL     1       5.315   3.282  19.180  0.00  0.00    +0.000 N 
ATOM     18  H   UNL     1       5.963   3.214  19.967  0.00  0.00    +0.000 HD
BRANCH  17  19
ATOM     19  C   UNL     1       5.628   4.184  18.155  0.00  0.00    +0.000 A 
ATOM     20  C   UNL     1       5.219   3.889  16.846  0.00  0.00    +0.000 A 
ATOM     21  C   UNL     1       5.514   4.747  15.783  0.00  0.00    +0.000 A 
ATOM     22  C   UNL     1       6.234   5.916  16.010  0.00  0.00    +0.000 A 
ATOM     23  C   UNL     1       6.658   6.214  17.302  0.00  0.00    +0.000 A 
ATOM     24 BR   UNL     1       7.637   7.803  17.614  0.00  0.00    +0.000 Br
ATOM     25  C   UNL     1       6.367   5.356  18.368  0.00  0.00    +0.000 A 
ENDBRANCH  17  19
ENDBRANCH  15  17
ENDBRANCH   1  15
TORSDOF 5
ENDMDL
MODEL 9
REMARK VINA RESULT:      -7.0      2.873      5.380
REMARK  Name = 
REMARK  6 active torsions:
REMARK  status: ('A' for Active; 'I' for Inactive)
REMARK    1  A    between atoms: C_1  and  C_2
REMARK    2  A    between atoms: N_4  and  C_5
REMARK    3  A    between atoms: C_8  and  S_9
REMARK    4  A    between atoms: S_9  and  N_12
REMARK    5  A    between atoms: N_12  and  N_13
REMARK    6  A    between atoms: N_13  and  C_14
REMARK                            x       y       z     vdW  Elec       q    Type
REMARK                         _______ _______ _______ _____ _____    ______ ____
ROOT
ATOM      1  S   UNL     1       2.553   2.747  19.586  0.00  0.00    +0.000 S 
ATOM      2  O   UNL     1       2.582   2.527  21.016  0.00  0.00    +0.000 OA
ATOM      3  O   UNL     1       1.558   2.114  18.745  0.00  0.00    +0.000 OA
ENDROOT
BRANCH   1   7
ATOM      4  C   UNL     1       2.175   7.273  18.877  0.00  0.00    +0.000 A 
ATOM      5  C   UNL     1       2.317   6.766  20.167  0.00  0.00    +0.000 A 
ATOM      6  C   UNL     1       2.451   5.399  20.401  0.00  0.00    +0.000 A 
ATOM      7  C   UNL     1       2.412   4.505  19.335  0.00  0.00    +0.000 A 
ATOM      8  C   UNL     1       2.250   4.990  18.030  0.00  0.00    +0.000 A 
ATOM      9  C   UNL     1       2.126   6.374  17.805  0.00  0.00    +0.000 A 
BRANCH   4  13
ATOM     10  C   UNL     1       1.186  10.907  18.665  0.00  0.00    +0.000 C 
ATOM     11  C   UNL     1       1.161   9.519  19.240  0.00  0.00    +0.000 C 
ATOM     12  O   UNL     1       0.390   9.244  20.152  0.00  0.00    +0.000 OA
ATOM     13  N   UNL     1       2.065   8.658  18.627  0.00  0.00    +0.000 N 
ATOM     14  H   UNL     1       2.751   9.068  18.006  0.00  0.00    +0.000 HD
ENDBRANCH   4  13
ENDBRANCH   1   7
BRANCH   1  15
ATOM     15  N   UNL     1       4.086   2.319  18.982  0.00  0.00    +0.000 NA
ATOM     16  H   UNL     1       4.193   1.463  18.453  0.00  0.00    +0.000 HD
BRANCH  15  17
ATOM     17  N   UNL     1       5.200   3.246  19.062  0.00  0.00    +0.000 N 
ATOM     18  H   UNL     1       5.801   3.151  19.882  0.00  0.00    +0.000 HD
BRANCH  17  19
ATOM     19  C   UNL     1       5.593   4.149  18.066  0.00  0.00    +0.000 A 
ATOM     20  C   UNL     1       5.270   3.868  16.731  0.00  0.00    +0.000 A 
ATOM     21  C   UNL     1       5.647   4.728  15.696  0.00  0.00    +0.000 A 
ATOM     22  C   UNL     1       6.366   5.886  15.979  0.00  0.00    +0.000 A 
ATOM     23  C   UNL     1       6.705   6.170  17.299  0.00  0.00    +0.000 A 
ATOM     24 BR   UNL     1       7.682   7.744  17.688  0.00  0.00    +0.000 Br
ATOM     25  C   UNL     1       6.331   5.309  18.338  0.00  0.00    +0.000 A 
ENDBRANCH  17  19
ENDBRANCH  15  17
ENDBRANCH   1  15
TORSDOF 5
ENDMDL
