MODEL 1
REMARK VINA RESULT:      -7.9      0.000      0.000
REMARK  Name = 
REMARK  7 active torsions:
REMARK  status: ('A' for Active; 'I' for Inactive)
REMARK    1  A    between atoms: C_1  and  N_2
REMARK    2  A    between atoms: C_5  and  N_6
REMARK    3  A    between atoms: C_7  and  C_9
REMARK    4  A    between atoms: C_11  and  C_12
REMARK    5  A    between atoms: C_21  and  N_22
REMARK    6  A    between atoms: C_23  and  N_24
REMARK    7  A    between atoms: C_27  and  N_28
REMARK                            x       y       z     vdW  Elec       q    Type
REMARK                         _______ _______ _______ _____ _____    ______ ____
ROOT
ATOM      1  N   UNL     1       1.645  11.445  19.430  0.00  0.00    +0.000 N 
ATOM      2  C   UNL     1       0.958  10.408  18.814  0.00  0.00    +0.000 C 
ATOM      3  O   UNL     1      -0.005  10.551  18.063  0.00  0.00    +0.000 OA
ATOM      4  H   UNL     1       2.397  11.195  20.056  0.00  0.00    +0.000 HD
ENDROOT
BRANCH   1   9
ATOM      5  C   UNL     1      -0.388  15.969  19.312  0.00  0.00    +0.000 C 
ATOM      6  N   UNL     1       0.474  14.813  19.241  0.00  0.00    +0.000 N 
ATOM      7  N   UNL     1       1.579  14.950  18.488  0.00  0.00    +0.000 NA
ATOM      8  C   UNL     1       2.086  13.723  18.454  0.00  0.00    +0.000 A 
ATOM      9  C   UNL     1       1.348  12.792  19.226  0.00  0.00    +0.000 A 
ATOM     10  C   UNL     1       0.280  13.528  19.754  0.00  0.00    +0.000 A 
BRANCH  10  11
ATOM     11  N   UNL     1      -0.829  13.194  20.523  0.00  0.00    +0.000 N 
ATOM     12  C   UNL     1      -2.030  12.652  19.874  0.00  0.00    +0.000 C 
ATOM     13  C   UNL     1      -3.327  13.109  20.549  0.00  0.00    +0.000 C 
ATOM     14  C   UNL     1      -3.503  12.595  21.985  0.00  0.00    +0.000 C 
ATOM     15  C   UNL     1      -2.819  13.554  22.993  0.00  0.00    +0.000 C 
ATOM     16  C   UNL     1      -3.533  14.927  23.251  0.00  0.00    +0.000 C 
ATOM     17  C   UNL     1      -3.262  14.604  24.721  0.00  0.00    +0.000 C 
ATOM     18  O   UNL     1      -3.160  13.187  24.392  0.00  0.00    +0.000 OA
ATOM     19  C   UNL     1      -1.282  13.667  22.888  0.00  0.00    +0.000 C 
ATOM     20  C   UNL     1      -0.612  12.716  21.901  0.00  0.00    +0.000 C 
BRANCH  14  21
ATOM     21  N   UNL     1      -4.941  12.425  22.273  0.00  0.00    +0.000 NA
ATOM     22  H   UNL     1      -5.390  13.327  22.417  0.00  0.00    +0.000 HD
ATOM     23  H   UNL     1      -5.022  11.916  23.159  0.00  0.00    +0.000 HD
ENDBRANCH  14  21
ENDBRANCH  10  11
ENDBRANCH   1   9
BRANCH   2  24
ATOM     24  C   UNL     1       1.475   9.067  19.140  0.00  0.00    +0.000 A 
ATOM     25  N   UNL     1       2.158   8.281  18.196  0.00  0.00    +0.000 NA
ATOM     26  C   UNL     1       2.458   7.103  18.720  0.00  0.00    +0.000 A 
ATOM     27  S   UNL     1       2.063   6.934  20.386  0.00  0.00    +0.000 S 
ATOM     28  C   UNL     1       1.305   8.463  20.382  0.00  0.00    +0.000 A 
BRANCH  26  29
ATOM     29  C   UNL     1       3.093   5.992  18.002  0.00  0.00    +0.000 A 
ATOM     30  C   UNL     1       2.453   4.754  17.896  0.00  0.00    +0.000 A 
ATOM     31  F   UNL     1       1.224   4.575  18.406  0.00  0.00    +0.000 F 
ATOM     32  C   UNL     1       3.053   3.669  17.251  0.00  0.00    +0.000 A 
ATOM     33  C   UNL     1       4.322   3.803  16.690  0.00  0.00    +0.000 A 
ATOM     34  C   UNL     1       4.979   5.024  16.776  0.00  0.00    +0.000 A 
ATOM     35  C   UNL     1       4.369   6.100  17.425  0.00  0.00    +0.000 A 
ATOM     36  F   UNL     1       5.065   7.244  17.498  0.00  0.00    +0.000 F 
ENDBRANCH  26  29
BRANCH  28  37
ATOM     37  N   UNL     1       0.666   8.912  21.488  0.00  0.00    +0.000 N 
ATOM     38  H   UNL     1      -0.215   9.407  21.406  0.00  0.00    +0.000 HD
ATOM     39  H   UNL     1       1.227   9.188  22.298  0.00  0.00    +0.000 HD
ENDBRANCH  28  37
ENDBRANCH   2  24
TORSDOF 6
ENDMDL
MODEL 2
REMARK VINA RESULT:      -7.9      0.187      1.429
REMARK  Name = 
REMARK  7 active torsions:
REMARK  status: ('A' for Active; 'I' for Inactive)
REMARK    1  A    between atoms: C_1  and  N_2
REMARK    2  A    between atoms: C_5  and  N_6
REMARK    3  A    between atoms: C_7  and  C_9
REMARK    4  A    between atoms: C_11  and  C_12
REMARK    5  A    between atoms: C_21  and  N_22
REMARK    6  A    between atoms: C_23  and  N_24
REMARK    7  A    between atoms: C_27  and  N_28
REMARK                            x       y       z     vdW  Elec       q    Type
REMARK                         _______ _______ _______ _____ _____    ______ ____
ROOT
ATOM      1  N   UNL     1       1.511  11.505  19.512  0.00  0.00    +0.000 N 
ATOM      2  C   UNL     1       0.841  10.456  18.897  0.00  0.00    +0.000 C 
ATOM      3  O   UNL     1      -0.120  10.582  18.141  0.00  0.00    +0.000 OA
ATOM      4  H   UNL     1       2.263  11.269  20.142  0.00  0.00    +0.000 HD
ENDROOT
BRANCH   1   9
ATOM      5  C   UNL     1      -0.565  16.010  19.398  0.00  0.00    +0.000 C 
ATOM      6  N   UNL     1       0.305  14.861  19.316  0.00  0.00    +0.000 N 
ATOM      7  N   UNL     1       1.387  14.998  18.531  0.00  0.00    +0.000 NA
ATOM      8  C   UNL     1       1.904  13.775  18.497  0.00  0.00    +0.000 A 
ATOM      9  C   UNL     1       1.197  12.847  19.300  0.00  0.00    +0.000 A 
ATOM     10  C   UNL     1       0.137  13.581  19.850  0.00  0.00    +0.000 A 
BRANCH  10  11
ATOM     11  N   UNL     1      -0.946  13.247  20.654  0.00  0.00    +0.000 N 
ATOM     12  C   UNL     1      -2.133  12.621  20.055  0.00  0.00    +0.000 C 
ATOM     13  C   UNL     1      -3.439  13.063  20.724  0.00  0.00    +0.000 C 
ATOM     14  C   UNL     1      -3.574  12.624  22.190  0.00  0.00    +0.000 C 
ATOM     15  C   UNL     1      -2.915  13.665  23.131  0.00  0.00    +0.000 C 
ATOM     16  C   UNL     1      -3.681  15.021  23.324  0.00  0.00    +0.000 C 
ATOM     17  C   UNL     1      -3.378  14.793  24.804  0.00  0.00    +0.000 C 
ATOM     18  O   UNL     1      -3.222  13.364  24.554  0.00  0.00    +0.000 OA
ATOM     19  C   UNL     1      -1.386  13.833  22.995  0.00  0.00    +0.000 C 
ATOM     20  C   UNL     1      -0.691  12.855  22.053  0.00  0.00    +0.000 C 
BRANCH  14  21
ATOM     21  N   UNL     1      -5.000  12.413  22.509  0.00  0.00    +0.000 NA
ATOM     22  H   UNL     1      -5.588  12.666  21.719  0.00  0.00    +0.000 HD
ATOM     23  H   UNL     1      -5.245  13.055  23.270  0.00  0.00    +0.000 HD
ENDBRANCH  14  21
ENDBRANCH  10  11
ENDBRANCH   1   9
BRANCH   2  24
ATOM     24  C   UNL     1       1.375   9.124  19.231  0.00  0.00    +0.000 A 
ATOM     25  N   UNL     1       2.072   8.343  18.294  0.00  0.00    +0.000 NA
ATOM     26  C   UNL     1       2.386   7.171  18.824  0.00  0.00    +0.000 A 
ATOM     27  S   UNL     1       1.987   7.005  20.490  0.00  0.00    +0.000 S 
ATOM     28  C   UNL     1       1.209   8.523  20.476  0.00  0.00    +0.000 A 
BRANCH  26  29
ATOM     29  C   UNL     1       3.039   6.066  18.114  0.00  0.00    +0.000 A 
ATOM     30  C   UNL     1       4.272   6.255  17.483  0.00  0.00    +0.000 A 
ATOM     31  F   UNL     1       4.904   7.437  17.560  0.00  0.00    +0.000 F 
ATOM     32  C   UNL     1       4.896   5.229  16.767  0.00  0.00    +0.000 A 
ATOM     33  C   UNL     1       4.291   3.977  16.668  0.00  0.00    +0.000 A 
ATOM     34  C   UNL     1       3.068   3.760  17.289  0.00  0.00    +0.000 A 
ATOM     35  C   UNL     1       2.454   4.795  18.000  0.00  0.00    +0.000 A 
ATOM     36  F   UNL     1       1.262   4.531  18.555  0.00  0.00    +0.000 F 
ENDBRANCH  26  29
BRANCH  28  37
ATOM     37  N   UNL     1       0.560   8.969  21.577  0.00  0.00    +0.000 N 
ATOM     38  H   UNL     1      -0.305   8.531  21.875  0.00  0.00    +0.000 HD
ATOM     39  H   UNL     1       0.632   9.961  21.818  0.00  0.00    +0.000 HD
ENDBRANCH  28  37
ENDBRANCH   2  24
TORSDOF 6
ENDMDL
MODEL 3
REMARK VINA RESULT:      -7.6      2.429      4.651
REMARK  Name = 
REMARK  7 active torsions:
REMARK  status: ('A' for Active; 'I' for Inactive)
REMARK    1  A    between atoms: C_1  and  N_2
REMARK    2  A    between atoms: C_5  and  N_6
REMARK    3  A    between atoms: C_7  and  C_9
REMARK    4  A    between atoms: C_11  and  C_12
REMARK    5  A    between atoms: C_21  and  N_22
REMARK    6  A    between atoms: C_23  and  N_24
REMARK    7  A    between atoms: C_27  and  N_28
REMARK                            x       y       z     vdW  Elec       q    Type
REMARK                         _______ _______ _______ _____ _____    ______ ____
ROOT
ATOM      1  N   UNL     1       0.148  10.093  21.071  0.00  0.00    +0.000 N 
ATOM      2  C   UNL     1       1.216   9.295  21.458  0.00  0.00    +0.000 C 
ATOM      3  O   UNL     1       1.808   9.386  22.532  0.00  0.00    +0.000 OA
ATOM      4  H   UNL     1      -0.229   9.945  20.146  0.00  0.00    +0.000 HD
ENDROOT
BRANCH   1   9
ATOM      5  C   UNL     1      -1.267  14.307  23.273  0.00  0.00    +0.000 C 
ATOM      6  N   UNL     1      -1.099  12.949  22.814  0.00  0.00    +0.000 N 
ATOM      7  N   UNL     1      -1.646  11.996  23.588  0.00  0.00    +0.000 NA
ATOM      8  C   UNL     1      -1.207  10.866  23.046  0.00  0.00    +0.000 A 
ATOM      9  C   UNL     1      -0.418  11.070  21.888  0.00  0.00    +0.000 A 
ATOM     10  C   UNL     1      -0.358  12.462  21.734  0.00  0.00    +0.000 A 
BRANCH  10  11
ATOM     11  N   UNL     1       0.309  13.302  20.851  0.00  0.00    +0.000 N 
ATOM     12  C   UNL     1       1.758  13.158  20.661  0.00  0.00    +0.000 C 
ATOM     13  C   UNL     1       2.462  14.498  20.424  0.00  0.00    +0.000 C 
ATOM     14  C   UNL     1       2.055  15.200  19.120  0.00  0.00    +0.000 C 
ATOM     15  C   UNL     1       0.794  16.074  19.344  0.00  0.00    +0.000 C 
ATOM     16  C   UNL     1       0.995  17.401  20.156  0.00  0.00    +0.000 C 
ATOM     17  C   UNL     1       0.149  18.018  19.043  0.00  0.00    +0.000 C 
ATOM     18  O   UNL     1       0.516  16.920  18.155  0.00  0.00    +0.000 OA
ATOM     19  C   UNL     1      -0.502  15.317  19.708  0.00  0.00    +0.000 C 
ATOM     20  C   UNL     1      -0.416  13.794  19.664  0.00  0.00    +0.000 C 
BRANCH  14  21
ATOM     21  N   UNL     1       3.194  15.992  18.613  0.00  0.00    +0.000 NA
ATOM     22  H   UNL     1       2.902  16.593  17.846  0.00  0.00    +0.000 HD
ATOM     23  H   UNL     1       3.878  15.336  18.224  0.00  0.00    +0.000 HD
ENDBRANCH  14  21
ENDBRANCH  10  11
ENDBRANCH   1   9
BRANCH   2  24
ATOM     24  C   UNL     1       1.617   8.297  20.451  0.00  0.00    +0.000 A 
ATOM     25  N   UNL     1       1.854   6.953  20.786  0.00  0.00    +0.000 NA
ATOM     26  C   UNL     1       2.261   6.285  19.719  0.00  0.00    +0.000 A 
ATOM     27  S   UNL     1       2.247   7.189  18.254  0.00  0.00    +0.000 S 
ATOM     28  C   UNL     1       1.822   8.604  19.109  0.00  0.00    +0.000 A 
BRANCH  26  29
ATOM     29  C   UNL     1       2.685   4.880  19.707  0.00  0.00    +0.000 A 
ATOM     30  C   UNL     1       4.023   4.543  19.485  0.00  0.00    +0.000 A 
ATOM     31  F   UNL     1       4.952   5.499  19.327  0.00  0.00    +0.000 F 
ATOM     32  C   UNL     1       4.446   3.211  19.430  0.00  0.00    +0.000 A 
ATOM     33  C   UNL     1       3.526   2.178  19.601  0.00  0.00    +0.000 A 
ATOM     34  C   UNL     1       2.191   2.484  19.829  0.00  0.00    +0.000 A 
ATOM     35  C   UNL     1       1.782   3.820  19.879  0.00  0.00    +0.000 A 
ATOM     36  F   UNL     1       0.475   4.051  20.077  0.00  0.00    +0.000 F 
ENDBRANCH  26  29
BRANCH  28  37
ATOM     37  N   UNL     1       1.730   9.790  18.464  0.00  0.00    +0.000 N 
ATOM     38  H   UNL     1       2.227  10.604  18.811  0.00  0.00    +0.000 HD
ATOM     39  H   UNL     1       0.861  10.010  17.969  0.00  0.00    +0.000 HD
ENDBRANCH  28  37
ENDBRANCH   2  24
TORSDOF 6
ENDMDL
MODEL 4
REMARK VINA RESULT:      -7.5      2.299      4.684
REMARK  Name = 
REMARK  7 active torsions:
REMARK  status: ('A' for Active; 'I' for Inactive)
REMARK    1  A    between atoms: C_1  and  N_2
REMARK    2  A    between atoms: C_5  and  N_6
REMARK    3  A    between atoms: C_7  and  C_9
REMARK    4  A    between atoms: C_11  and  C_12
REMARK    5  A    between atoms: C_21  and  N_22
REMARK    6  A    between atoms: C_23  and  N_24
REMARK    7  A    between atoms: C_27  and  N_28
REMARK                            x       y       z     vdW  Elec       q    Type
REMARK                         _______ _______ _______ _____ _____    ______ ____
ROOT
ATOM      1  N   UNL     1       0.235  10.362  20.784  0.00  0.00    +0.000 N 
ATOM      2  C   UNL     1       1.166   9.376  21.080  0.00  0.00    +0.000 C 
ATOM      3  O   UNL     1       1.598   9.132  22.205  0.00  0.00    +0.000 OA
ATOM      4  H   UNL     1      -0.012  10.490  19.813  0.00  0.00    +0.000 HD
ENDROOT
BRANCH   1   9
ATOM      5  C   UNL     1      -1.355  14.102  23.630  0.00  0.00    +0.000 C 
ATOM      6  N   UNL     1      -1.125  12.842  22.965  0.00  0.00    +0.000 N 
ATOM      7  N   UNL     1      -1.602  11.751  23.590  0.00  0.00    +0.000 NA
ATOM      8  C   UNL     1      -1.114  10.745  22.874  0.00  0.00    +0.000 A 
ATOM      9  C   UNL     1      -0.364  11.169  21.750  0.00  0.00    +0.000 A 
ATOM     10  C   UNL     1      -0.383  12.569  21.813  0.00  0.00    +0.000 A 
BRANCH  10  11
ATOM     11  N   UNL     1       0.217  13.571  21.060  0.00  0.00    +0.000 N 
ATOM     12  C   UNL     1      -0.617  14.520  20.311  0.00  0.00    +0.000 C 
ATOM     13  C   UNL     1       0.014  14.944  18.981  0.00  0.00    +0.000 C 
ATOM     14  C   UNL     1       1.318  15.742  19.130  0.00  0.00    +0.000 C 
ATOM     15  C   UNL     1       2.533  14.785  19.229  0.00  0.00    +0.000 C 
ATOM     16  C   UNL     1       2.967  14.063  17.906  0.00  0.00    +0.000 C 
ATOM     17  C   UNL     1       4.375  14.477  18.335  0.00  0.00    +0.000 C 
ATOM     18  O   UNL     1       3.812  15.540  19.160  0.00  0.00    +0.000 OA
ATOM     19  C   UNL     1       2.581  13.873  20.475  0.00  0.00    +0.000 C 
ATOM     20  C   UNL     1       1.503  14.125  21.524  0.00  0.00    +0.000 C 
BRANCH  14  21
ATOM     21  N   UNL     1       1.448  16.686  18.002  0.00  0.00    +0.000 NA
ATOM     22  H   UNL     1       0.627  17.284  17.935  0.00  0.00    +0.000 HD
ATOM     23  H   UNL     1       1.477  16.135  17.139  0.00  0.00    +0.000 HD
ENDBRANCH  14  21
ENDBRANCH  10  11
ENDBRANCH   1   9
BRANCH   2  24
ATOM     24  C   UNL     1       1.629   8.614  19.906  0.00  0.00    +0.000 A 
ATOM     25  N   UNL     1       1.917   7.241  19.974  0.00  0.00    +0.000 NA
ATOM     26  C   UNL     1       2.373   6.815  18.807  0.00  0.00    +0.000 A 
ATOM     27  S   UNL     1       2.348   7.993  17.552  0.00  0.00    +0.000 S 
ATOM     28  C   UNL     1       1.846   9.191  18.658  0.00  0.00    +0.000 A 
BRANCH  26  29
ATOM     29  C   UNL     1       2.858   5.459  18.529  0.00  0.00    +0.000 A 
ATOM     30  C   UNL     1       4.108   5.040  18.994  0.00  0.00    +0.000 A 
ATOM     31  F   UNL     1       4.865   5.856  19.746  0.00  0.00    +0.000 F 
ATOM     32  C   UNL     1       4.610   3.767  18.709  0.00  0.00    +0.000 A 
ATOM     33  C   UNL     1       3.859   2.874  17.946  0.00  0.00    +0.000 A 
ATOM     34  C   UNL     1       2.611   3.261  17.475  0.00  0.00    +0.000 A 
ATOM     35  C   UNL     1       2.123   4.539  17.765  0.00  0.00    +0.000 A 
ATOM     36  F   UNL     1       0.923   4.862  17.261  0.00  0.00    +0.000 F 
ENDBRANCH  26  29
BRANCH  28  37
ATOM     37  N   UNL     1       1.714  10.478  18.258  0.00  0.00    +0.000 N 
ATOM     38  H   UNL     1       0.799  10.915  18.230  0.00  0.00    +0.000 HD
ATOM     39  H   UNL     1       2.375  10.845  17.569  0.00  0.00    +0.000 HD
ENDBRANCH  28  37
ENDBRANCH   2  24
TORSDOF 6
ENDMDL
MODEL 5
REMARK VINA RESULT:      -7.5      2.432      4.452
REMARK  Name = 
REMARK  7 active torsions:
REMARK  status: ('A' for Active; 'I' for Inactive)
REMARK    1  A    between atoms: C_1  and  N_2
REMARK    2  A    between atoms: C_5  and  N_6
REMARK    3  A    between atoms: C_7  and  C_9
REMARK    4  A    between atoms: C_11  and  C_12
REMARK    5  A    between atoms: C_21  and  N_22
REMARK    6  A    between atoms: C_23  and  N_24
REMARK    7  A    between atoms: C_27  and  N_28
REMARK                            x       y       z     vdW  Elec       q    Type
REMARK                         _______ _______ _______ _____ _____    ______ ____
ROOT
ATOM      1  N   UNL     1       0.162  10.121  21.041  0.00  0.00    +0.000 N 
ATOM      2  C   UNL     1       1.230   9.320  21.422  0.00  0.00    +0.000 C 
ATOM      3  O   UNL     1       1.825   9.406  22.494  0.00  0.00    +0.000 OA
ATOM      4  H   UNL     1      -0.218   9.976  20.117  0.00  0.00    +0.000 HD
ENDROOT
BRANCH   1   9
ATOM      5  C   UNL     1      -1.225  14.332  23.268  0.00  0.00    +0.000 C 
ATOM      6  N   UNL     1      -1.067  12.975  22.800  0.00  0.00    +0.000 N 
ATOM      7  N   UNL     1      -1.627  12.021  23.563  0.00  0.00    +0.000 NA
ATOM      8  C   UNL     1      -1.195  10.891  23.015  0.00  0.00    +0.000 A 
ATOM      9  C   UNL     1      -0.399  11.097  21.862  0.00  0.00    +0.000 A 
ATOM     10  C   UNL     1      -0.325  12.489  21.720  0.00  0.00    +0.000 A 
BRANCH  10  11
ATOM     11  N   UNL     1       0.354  13.330  20.846  0.00  0.00    +0.000 N 
ATOM     12  C   UNL     1       1.808  13.193  20.684  0.00  0.00    +0.000 C 
ATOM     13  C   UNL     1       2.509  14.536  20.456  0.00  0.00    +0.000 C 
ATOM     14  C   UNL     1       2.123  15.231  19.142  0.00  0.00    +0.000 C 
ATOM     15  C   UNL     1       0.854  16.099  19.339  0.00  0.00    +0.000 C 
ATOM     16  C   UNL     1       1.033  17.430  20.150  0.00  0.00    +0.000 C 
ATOM     17  C   UNL     1       0.204  18.039  19.019  0.00  0.00    +0.000 C 
ATOM     18  O   UNL     1       0.594  16.940  18.142  0.00  0.00    +0.000 OA
ATOM     19  C   UNL     1      -0.445  15.337  19.681  0.00  0.00    +0.000 C 
ATOM     20  C   UNL     1      -0.351  13.814  19.645  0.00  0.00    +0.000 C 
BRANCH  14  21
ATOM     21  N   UNL     1       3.267  16.027  18.653  0.00  0.00    +0.000 NA
ATOM     22  H   UNL     1       2.963  16.711  17.964  0.00  0.00    +0.000 HD
ATOM     23  H   UNL     1       3.904  15.388  18.167  0.00  0.00    +0.000 HD
ENDBRANCH  14  21
ENDBRANCH  10  11
ENDBRANCH   1   9
BRANCH   2  24
ATOM     24  C   UNL     1       1.625   8.323  20.411  0.00  0.00    +0.000 A 
ATOM     25  N   UNL     1       1.880   6.982  20.745  0.00  0.00    +0.000 NA
ATOM     26  C   UNL     1       2.277   6.316  19.673  0.00  0.00    +0.000 A 
ATOM     27  S   UNL     1       2.233   7.217  18.207  0.00  0.00    +0.000 S 
ATOM     28  C   UNL     1       1.807   8.629  19.065  0.00  0.00    +0.000 A 
BRANCH  26  29
ATOM     29  C   UNL     1       2.714   4.916  19.658  0.00  0.00    +0.000 A 
ATOM     30  C   UNL     1       1.803   3.883  19.896  0.00  0.00    +0.000 A 
ATOM     31  F   UNL     1       0.502   4.152  20.093  0.00  0.00    +0.000 F 
ATOM     32  C   UNL     1       2.201   2.543  19.926  0.00  0.00    +0.000 A 
ATOM     33  C   UNL     1       3.537   2.205  19.713  0.00  0.00    +0.000 A 
ATOM     34  C   UNL     1       4.463   3.211  19.468  0.00  0.00    +0.000 A 
ATOM     35  C   UNL     1       4.052   4.547  19.443  0.00  0.00    +0.000 A 
ATOM     36  F   UNL     1       4.997   5.473  19.228  0.00  0.00    +0.000 F 
ENDBRANCH  26  29
BRANCH  28  37
ATOM     37  N   UNL     1       1.693   9.814  18.419  0.00  0.00    +0.000 N 
ATOM     38  H   UNL     1       2.493  10.432  18.336  0.00  0.00    +0.000 HD
ATOM     39  H   UNL     1       0.791  10.297  18.442  0.00  0.00    +0.000 HD
ENDBRANCH  28  37
ENDBRANCH   2  24
TORSDOF 6
ENDMDL
MODEL 6
REMARK VINA RESULT:      -7.5      2.311      4.552
REMARK  Name = 
REMARK  7 active torsions:
REMARK  status: ('A' for Active; 'I' for Inactive)
REMARK    1  A    between atoms: C_1  and  N_2
REMARK    2  A    between atoms: C_5  and  N_6
REMARK    3  A    between atoms: C_7  and  C_9
REMARK    4  A    between atoms: C_11  and  C_12
REMARK    5  A    between atoms: C_21  and  N_22
REMARK    6  A    between atoms: C_23  and  N_24
REMARK    7  A    between atoms: C_27  and  N_28
REMARK                            x       y       z     vdW  Elec       q    Type
REMARK                         _______ _______ _______ _____ _____    ______ ____
ROOT
ATOM      1  N   UNL     1       0.303  10.394  20.775  0.00  0.00    +0.000 N 
ATOM      2  C   UNL     1       1.157   9.345  21.086  0.00  0.00    +0.000 C 
ATOM      3  O   UNL     1       1.503   9.034  22.224  0.00  0.00    +0.000 OA
ATOM      4  H   UNL     1       0.125  10.572  19.797  0.00  0.00    +0.000 HD
ENDROOT
BRANCH   1   9
ATOM      5  C   UNL     1      -1.327  14.125  23.609  0.00  0.00    +0.000 C 
ATOM      6  N   UNL     1      -1.087  12.867  22.944  0.00  0.00    +0.000 N 
ATOM      7  N   UNL     1      -1.570  11.774  23.560  0.00  0.00    +0.000 NA
ATOM      8  C   UNL     1      -1.073  10.770  22.849  0.00  0.00    +0.000 A 
ATOM      9  C   UNL     1      -0.309  11.198  21.735  0.00  0.00    +0.000 A 
ATOM     10  C   UNL     1      -0.330  12.597  21.801  0.00  0.00    +0.000 A 
BRANCH  10  11
ATOM     11  N   UNL     1       0.278  13.602  21.058  0.00  0.00    +0.000 N 
ATOM     12  C   UNL     1      -0.548  14.567  20.320  0.00  0.00    +0.000 C 
ATOM     13  C   UNL     1       0.085  14.999  18.994  0.00  0.00    +0.000 C 
ATOM     14  C   UNL     1       1.396  15.784  19.150  0.00  0.00    +0.000 C 
ATOM     15  C   UNL     1       2.602  14.813  19.236  0.00  0.00    +0.000 C 
ATOM     16  C   UNL     1       3.027  14.102  17.904  0.00  0.00    +0.000 C 
ATOM     17  C   UNL     1       4.439  14.497  18.335  0.00  0.00    +0.000 C 
ATOM     18  O   UNL     1       3.888  15.557  19.173  0.00  0.00    +0.000 OA
ATOM     19  C   UNL     1       2.644  13.888  20.472  0.00  0.00    +0.000 C 
ATOM     20  C   UNL     1       1.570  14.139  21.526  0.00  0.00    +0.000 C 
BRANCH  14  21
ATOM     21  N   UNL     1       1.533  16.738  18.032  0.00  0.00    +0.000 NA
ATOM     22  H   UNL     1       2.472  16.705  17.642  0.00  0.00    +0.000 HD
ATOM     23  H   UNL     1       1.410  17.681  18.413  0.00  0.00    +0.000 HD
ENDBRANCH  14  21
ENDBRANCH  10  11
ENDBRANCH   1   9
BRANCH   2  24
ATOM     24  C   UNL     1       1.649   8.601  19.912  0.00  0.00    +0.000 A 
ATOM     25  N   UNL     1       1.951   7.231  19.970  0.00  0.00    +0.000 NA
ATOM     26  C   UNL     1       2.432   6.823  18.807  0.00  0.00    +0.000 A 
ATOM     27  S   UNL     1       2.416   8.014  17.564  0.00  0.00    +0.000 S 
ATOM     28  C   UNL     1       1.881   9.194  18.674  0.00  0.00    +0.000 A 
BRANCH  26  29
ATOM     29  C   UNL     1       2.937   5.475  18.522  0.00  0.00    +0.000 A 
ATOM     30  C   UNL     1       2.163   4.563  17.798  0.00  0.00    +0.000 A 
ATOM     31  F   UNL     1       0.966   4.922  17.308  0.00  0.00    +0.000 F 
ATOM     32  C   UNL     1       2.604   3.261  17.547  0.00  0.00    +0.000 A 
ATOM     33  C   UNL     1       3.846   2.840  18.020  0.00  0.00    +0.000 A 
ATOM     34  C   UNL     1       4.639   3.727  18.737  0.00  0.00    +0.000 A 
ATOM     35  C   UNL     1       4.184   5.025  18.983  0.00  0.00    +0.000 A 
ATOM     36  F   UNL     1       4.983   5.826  19.704  0.00  0.00    +0.000 F 
ENDBRANCH  26  29
BRANCH  28  37
ATOM     37  N   UNL     1       1.742  10.483  18.287  0.00  0.00    +0.000 N 
ATOM     38  H   UNL     1       1.517  10.708  17.323  0.00  0.00    +0.000 HD
ATOM     39  H   UNL     1       2.293  11.200  18.766  0.00  0.00    +0.000 HD
ENDBRANCH  28  37
ENDBRANCH   2  24
TORSDOF 6
ENDMDL
MODEL 7
REMARK VINA RESULT:      -7.5      3.064      4.724
REMARK  Name = 
REMARK  7 active torsions:
REMARK  status: ('A' for Active; 'I' for Inactive)
REMARK    1  A    between atoms: C_1  and  N_2
REMARK    2  A    between atoms: C_5  and  N_6
REMARK    3  A    between atoms: C_7  and  C_9
REMARK    4  A    between atoms: C_11  and  C_12
REMARK    5  A    between atoms: C_21  and  N_22
REMARK    6  A    between atoms: C_23  and  N_24
REMARK    7  A    between atoms: C_27  and  N_28
REMARK                            x       y       z     vdW  Elec       q    Type
REMARK                         _______ _______ _______ _____ _____    ______ ____
ROOT
ATOM      1  N   UNL     1       1.048   9.013  18.218  0.00  0.00    +0.000 N 
ATOM      2  C   UNL     1       1.471   8.403  19.391  0.00  0.00    +0.000 C 
ATOM      3  O   UNL     1       1.097   8.714  20.520  0.00  0.00    +0.000 OA
ATOM      4  H   UNL     1       1.459   8.691  17.354  0.00  0.00    +0.000 HD
ENDROOT
BRANCH   1   9
ATOM      5  C   UNL     1      -1.480  13.264  18.608  0.00  0.00    +0.000 C 
ATOM      6  N   UNL     1      -0.993  11.942  18.292  0.00  0.00    +0.000 N 
ATOM      7  N   UNL     1      -1.899  11.088  17.786  0.00  0.00    +0.000 NA
ATOM      8  C   UNL     1      -1.249   9.930  17.751  0.00  0.00    +0.000 A 
ATOM      9  C   UNL     1       0.097  10.031  18.181  0.00  0.00    +0.000 A 
ATOM     10  C   UNL     1       0.262  11.378  18.532  0.00  0.00    +0.000 A 
BRANCH  10  11
ATOM     11  N   UNL     1       1.310  12.103  19.088  0.00  0.00    +0.000 N 
ATOM     12  C   UNL     1       1.490  12.122  20.545  0.00  0.00    +0.000 C 
ATOM     13  C   UNL     1       2.007  13.468  21.063  0.00  0.00    +0.000 C 
ATOM     14  C   UNL     1       3.420  13.827  20.579  0.00  0.00    +0.000 C 
ATOM     15  C   UNL     1       3.358  14.548  19.208  0.00  0.00    +0.000 C 
ATOM     16  C   UNL     1       2.837  16.028  19.216  0.00  0.00    +0.000 C 
ATOM     17  C   UNL     1       4.038  16.283  18.306  0.00  0.00    +0.000 C 
ATOM     18  O   UNL     1       4.690  15.088  18.830  0.00  0.00    +0.000 OA
ATOM     19  C   UNL     1       2.826  13.712  18.023  0.00  0.00    +0.000 C 
ATOM     20  C   UNL     1       2.559  12.239  18.317  0.00  0.00    +0.000 C 
BRANCH  14  21
ATOM     21  N   UNL     1       4.096  14.646  21.604  0.00  0.00    +0.000 NA
ATOM     22  H   UNL     1       5.087  14.419  21.652  0.00  0.00    +0.000 HD
ATOM     23  H   UNL     1       3.697  14.396  22.514  0.00  0.00    +0.000 HD
ENDBRANCH  14  21
ENDBRANCH  10  11
ENDBRANCH   1   9
BRANCH   2  24
ATOM     24  C   UNL     1       2.447   7.317  19.186  0.00  0.00    +0.000 A 
ATOM     25  N   UNL     1       3.301   7.282  18.071  0.00  0.00    +0.000 NA
ATOM     26  C   UNL     1       4.028   6.177  18.092  0.00  0.00    +0.000 A 
ATOM     27  S   UNL     1       3.827   5.209  19.500  0.00  0.00    +0.000 S 
ATOM     28  C   UNL     1       2.581   6.236  20.052  0.00  0.00    +0.000 A 
BRANCH  26  29
ATOM     29  C   UNL     1       4.966   5.758  17.044  0.00  0.00    +0.000 A 
ATOM     30  C   UNL     1       4.727   4.600  16.297  0.00  0.00    +0.000 A 
ATOM     31  F   UNL     1       3.611   3.880  16.492  0.00  0.00    +0.000 F 
ATOM     32  C   UNL     1       5.624   4.158  15.320  0.00  0.00    +0.000 A 
ATOM     33  C   UNL     1       6.792   4.876  15.066  0.00  0.00    +0.000 A 
ATOM     34  C   UNL     1       7.051   6.033  15.789  0.00  0.00    +0.000 A 
ATOM     35  C   UNL     1       6.147   6.463  16.765  0.00  0.00    +0.000 A 
ATOM     36  F   UNL     1       6.467   7.572  17.447  0.00  0.00    +0.000 F 
ENDBRANCH  26  29
BRANCH  28  37
ATOM     37  N   UNL     1       1.898   5.936  21.182  0.00  0.00    +0.000 N 
ATOM     38  H   UNL     1       1.160   5.240  21.165  0.00  0.00    +0.000 HD
ATOM     39  H   UNL     1       1.765   6.671  21.882  0.00  0.00    +0.000 HD
ENDBRANCH  28  37
ENDBRANCH   2  24
TORSDOF 6
ENDMDL
MODEL 8
REMARK VINA RESULT:      -7.3      3.062      4.905
REMARK  Name = 
REMARK  7 active torsions:
REMARK  status: ('A' for Active; 'I' for Inactive)
REMARK    1  A    between atoms: C_1  and  N_2
REMARK    2  A    between atoms: C_5  and  N_6
REMARK    3  A    between atoms: C_7  and  C_9
REMARK    4  A    between atoms: C_11  and  C_12
REMARK    5  A    between atoms: C_21  and  N_22
REMARK    6  A    between atoms: C_23  and  N_24
REMARK    7  A    between atoms: C_27  and  N_28
REMARK                            x       y       z     vdW  Elec       q    Type
REMARK                         _______ _______ _______ _____ _____    ______ ____
ROOT
ATOM      1  N   UNL     1       1.044   9.022  18.218  0.00  0.00    +0.000 N 
ATOM      2  C   UNL     1       1.474   8.422  19.395  0.00  0.00    +0.000 C 
ATOM      3  O   UNL     1       1.112   8.750  20.523  0.00  0.00    +0.000 OA
ATOM      4  H   UNL     1       1.445   8.686  17.354  0.00  0.00    +0.000 HD
ENDROOT
BRANCH   1   9
ATOM      5  C   UNL     1      -1.454  13.291  18.599  0.00  0.00    +0.000 C 
ATOM      6  N   UNL     1      -0.975  11.966  18.284  0.00  0.00    +0.000 N 
ATOM      7  N   UNL     1      -1.885  11.119  17.773  0.00  0.00    +0.000 NA
ATOM      8  C   UNL     1      -1.244   9.956  17.741  0.00  0.00    +0.000 A 
ATOM      9  C   UNL     1       0.101  10.047  18.177  0.00  0.00    +0.000 A 
ATOM     10  C   UNL     1       0.275  11.392  18.530  0.00  0.00    +0.000 A 
BRANCH  10  11
ATOM     11  N   UNL     1       1.325  12.109  19.091  0.00  0.00    +0.000 N 
ATOM     12  C   UNL     1       1.499  12.126  20.550  0.00  0.00    +0.000 C 
ATOM     13  C   UNL     1       2.022  13.468  21.070  0.00  0.00    +0.000 C 
ATOM     14  C   UNL     1       3.440  13.817  20.594  0.00  0.00    +0.000 C 
ATOM     15  C   UNL     1       3.390  14.539  19.222  0.00  0.00    +0.000 C 
ATOM     16  C   UNL     1       2.880  16.023  19.229  0.00  0.00    +0.000 C 
ATOM     17  C   UNL     1       4.088  16.270  18.325  0.00  0.00    +0.000 C 
ATOM     18  O   UNL     1       4.728  15.069  18.852  0.00  0.00    +0.000 OA
ATOM     19  C   UNL     1       2.858  13.708  18.035  0.00  0.00    +0.000 C 
ATOM     20  C   UNL     1       2.579  12.237  18.326  0.00  0.00    +0.000 C 
BRANCH  14  21
ATOM     21  N   UNL     1       4.118  14.630  21.623  0.00  0.00    +0.000 NA
ATOM     22  H   UNL     1       3.704  15.558  21.680  0.00  0.00    +0.000 HD
ATOM     23  H   UNL     1       5.089  14.764  21.322  0.00  0.00    +0.000 HD
ENDBRANCH  14  21
ENDBRANCH  10  11
ENDBRANCH   1   9
BRANCH   2  24
ATOM     24  C   UNL     1       2.439   7.327  19.194  0.00  0.00    +0.000 A 
ATOM     25  N   UNL     1       3.280   7.270  18.070  0.00  0.00    +0.000 NA
ATOM     26  C   UNL     1       4.000   6.160  18.098  0.00  0.00    +0.000 A 
ATOM     27  S   UNL     1       3.807   5.213  19.522  0.00  0.00    +0.000 S 
ATOM     28  C   UNL     1       2.575   6.256  20.074  0.00  0.00    +0.000 A 
BRANCH  26  29
ATOM     29  C   UNL     1       4.923   5.720  17.046  0.00  0.00    +0.000 A 
ATOM     30  C   UNL     1       6.072   6.460  16.752  0.00  0.00    +0.000 A 
ATOM     31  F   UNL     1       6.377   7.558  17.462  0.00  0.00    +0.000 F 
ATOM     32  C   UNL     1       6.947   6.083  15.729  0.00  0.00    +0.000 A 
ATOM     33  C   UNL     1       6.687   4.943  14.970  0.00  0.00    +0.000 A 
ATOM     34  C   UNL     1       5.555   4.185  15.245  0.00  0.00    +0.000 A 
ATOM     35  C   UNL     1       4.687   4.575  16.269  0.00  0.00    +0.000 A 
ATOM     36  F   UNL     1       3.599   3.817  16.468  0.00  0.00    +0.000 F 
ENDBRANCH  26  29
BRANCH  28  37
ATOM     37  N   UNL     1       1.901   5.977  21.214  0.00  0.00    +0.000 N 
ATOM     38  H   UNL     1       1.338   6.690  21.665  0.00  0.00    +0.000 HD
ATOM     39  H   UNL     1       2.296   5.286  21.858  0.00  0.00    +0.000 HD
ENDBRANCH  28  37
ENDBRANCH   2  24
TORSDOF 6
ENDMDL
MODEL 9
REMARK VINA RESULT:      -7.3      2.850      4.438
REMARK  Name = 
REMARK  7 active torsions:
REMARK  status: ('A' for Active; 'I' for Inactive)
REMARK    1  A    between atoms: C_1  and  N_2
REMARK    2  A    between atoms: C_5  and  N_6
REMARK    3  A    between atoms: C_7  and  C_9
REMARK    4  A    between atoms: C_11  and  C_12
REMARK    5  A    between atoms: C_21  and  N_22
REMARK    6  A    between atoms: C_23  and  N_24
REMARK    7  A    between atoms: C_27  and  N_28
REMARK                            x       y       z     vdW  Elec       q    Type
REMARK                         _______ _______ _______ _____ _____    ______ ____
ROOT
ATOM      1  N   UNL     1      -3.011  11.098  18.833  0.00  0.00    +0.000 N 
ATOM      2  C   UNL     1      -1.870  11.834  19.123  0.00  0.00    +0.000 C 
ATOM      3  O   UNL     1      -1.737  13.038  18.911  0.00  0.00    +0.000 OA
ATOM      4  H   UNL     1      -2.982  10.106  19.019  0.00  0.00    +0.000 HD
ENDROOT
BRANCH   1   9
ATOM      5  C   UNL     1      -7.428  13.234  18.100  0.00  0.00    +0.000 C 
ATOM      6  N   UNL     1      -6.103  12.672  17.989  0.00  0.00    +0.000 N 
ATOM      7  N   UNL     1      -5.699  12.361  16.746  0.00  0.00    +0.000 NA
ATOM      8  C   UNL     1      -4.552  11.720  16.943  0.00  0.00    +0.000 A 
ATOM      9  C   UNL     1      -4.174  11.657  18.307  0.00  0.00    +0.000 A 
ATOM     10  C   UNL     1      -5.209  12.302  18.997  0.00  0.00    +0.000 A 
BRANCH  10  11
ATOM     11  N   UNL     1      -5.479  12.512  20.344  0.00  0.00    +0.000 N 
ATOM     12  C   UNL     1      -6.510  11.708  21.015  0.00  0.00    +0.000 C 
ATOM     13  C   UNL     1      -7.281  12.498  22.077  0.00  0.00    +0.000 C 
ATOM     14  C   UNL     1      -6.425  12.948  23.271  0.00  0.00    +0.000 C 
ATOM     15  C   UNL     1      -5.745  14.309  22.969  0.00  0.00    +0.000 C 
ATOM     16  C   UNL     1      -6.671  15.574  22.981  0.00  0.00    +0.000 C 
ATOM     17  C   UNL     1      -5.543  16.191  23.807  0.00  0.00    +0.000 C 
ATOM     18  O   UNL     1      -5.090  14.857  24.186  0.00  0.00    +0.000 OA
ATOM     19  C   UNL     1      -4.709  14.312  21.824  0.00  0.00    +0.000 C 
ATOM     20  C   UNL     1      -4.378  12.949  21.223  0.00  0.00    +0.000 C 
BRANCH  14  21
ATOM     21  N   UNL     1      -7.266  13.007  24.483  0.00  0.00    +0.000 NA
ATOM     22  H   UNL     1      -8.244  12.851  24.252  0.00  0.00    +0.000 HD
ATOM     23  H   UNL     1      -7.204  13.959  24.857  0.00  0.00    +0.000 HD
ENDBRANCH  14  21
ENDBRANCH  10  11
ENDBRANCH   1   9
BRANCH   2  24
ATOM     24  C   UNL     1      -0.778  11.042  19.718  0.00  0.00    +0.000 A 
ATOM     25  N   UNL     1      -0.028  10.122  18.966  0.00  0.00    +0.000 NA
ATOM     26  C   UNL     1       0.841   9.501  19.747  0.00  0.00    +0.000 A 
ATOM     27  S   UNL     1       0.895  10.078  21.367  0.00  0.00    +0.000 S 
ATOM     28  C   UNL     1      -0.425  11.116  21.062  0.00  0.00    +0.000 A 
BRANCH  26  29
ATOM     29  C   UNL     1       1.732   8.413  19.328  0.00  0.00    +0.000 A 
ATOM     30  C   UNL     1       2.436   8.494  18.123  0.00  0.00    +0.000 A 
ATOM     31  F   UNL     1       2.348   9.590  17.353  0.00  0.00    +0.000 F 
ATOM     32  C   UNL     1       3.260   7.454  17.682  0.00  0.00    +0.000 A 
ATOM     33  C   UNL     1       3.400   6.299  18.449  0.00  0.00    +0.000 A 
ATOM     34  C   UNL     1       2.716   6.194  19.654  0.00  0.00    +0.000 A 
ATOM     35  C   UNL     1       1.893   7.239  20.081  0.00  0.00    +0.000 A 
ATOM     36  F   UNL     1       1.239   7.067  21.240  0.00  0.00    +0.000 F 
ENDBRANCH  26  29
BRANCH  28  37
ATOM     37  N   UNL     1      -0.961  11.853  22.064  0.00  0.00    +0.000 N 
ATOM     38  H   UNL     1      -0.366  12.419  22.659  0.00  0.00    +0.000 HD
ATOM     39  H   UNL     1      -1.808  11.509  22.523  0.00  0.00    +0.000 HD
ENDBRANCH  28  37
ENDBRANCH   2  24
TORSDOF 6
ENDMDL
