MODEL 1
REMARK VINA RESULT:      -8.3      0.000      0.000
REMARK  Name = 
REMARK  9 active torsions:
REMARK  status: ('A' for Active; 'I' for Inactive)
REMARK    1  A    between atoms: C_1  and  C_2
REMARK    2  A    between atoms: C_5  and  S_6
REMARK    3  A    between atoms: S_6  and  N_9
REMARK    4  A    between atoms: N_9  and  C_10
REMARK    5  A    between atoms: N_9  and  C_22
REMARK    6  A    between atoms: C_10  and  C_11
REMARK    7  A    between atoms: N_13  and  C_14
REMARK    8  A    between atoms: C_14  and  C_15
REMARK    9  A    between atoms: C_15  and  N_16
REMARK                            x       y       z     vdW  Elec       q    Type
REMARK                         _______ _______ _______ _____ _____    ______ ____
ROOT
ATOM      1  N   UNL     1       5.775   6.281  17.644  0.00  0.00    +0.000 N 
ENDROOT
BRANCH   1   2
ATOM      2  C   UNL     1       4.475   6.740  18.079  0.00  0.00    +0.000 A 
ATOM      3  C   UNL     1       3.737   7.672  17.338  0.00  0.00    +0.000 A 
ATOM      4  C   UNL     1       2.440   8.026  17.729  0.00  0.00    +0.000 A 
ATOM      5  C   UNL     1       1.868   7.423  18.855  0.00  0.00    +0.000 A 
ATOM      6  C   UNL     1       2.601   6.474  19.572  0.00  0.00    +0.000 A 
ATOM      7 CL   UNL     1       1.889   5.698  20.933  0.00  0.00    +0.000 Cl
ATOM      8  C   UNL     1       3.896   6.128  19.188  0.00  0.00    +0.000 A 
ENDBRANCH   1   2
BRANCH   1   9
ATOM      9  S   UNL     1       6.205   4.680  17.984  0.00  0.00    +0.000 S 
ATOM     10  O   UNL     1       6.809   4.651  19.301  0.00  0.00    +0.000 OA
ATOM     11  O   UNL     1       6.964   4.175  16.855  0.00  0.00    +0.000 OA
BRANCH   9  16
ATOM     12  C   UNL     1       0.635   2.270  18.646  0.00  0.00    +0.000 C 
ATOM     13  C   UNL     1       2.076   2.647  18.441  0.00  0.00    +0.000 A 
ATOM     14  C   UNL     1       3.045   2.479  19.432  0.00  0.00    +0.000 A 
ATOM     15  C   UNL     1       4.347   2.998  19.279  0.00  0.00    +0.000 A 
ATOM     16  C   UNL     1       4.715   3.659  18.098  0.00  0.00    +0.000 A 
ATOM     17  C   UNL     1       3.756   3.777  17.078  0.00  0.00    +0.000 A 
ATOM     18  C   UNL     1       2.447   3.291  17.258  0.00  0.00    +0.000 A 
ENDBRANCH   9  16
ENDBRANCH   1   9
BRANCH   1  19
ATOM     19  C   UNL     1       6.687   7.323  17.132  0.00  0.00    +0.000 C 
BRANCH  19  20
ATOM     20  C   UNL     1       7.786   7.944  17.965  0.00  0.00    +0.000 C 
ATOM     21  O   UNL     1       8.450   7.255  18.740  0.00  0.00    +0.000 OA
ATOM     22  N   UNL     1       8.037   9.285  17.768  0.00  0.00    +0.000 N 
ATOM     23  H   UNL     1       7.224   9.834  17.480  0.00  0.00    +0.000 HD
BRANCH  22  24
ATOM     24  C   UNL     1       8.979  10.014  18.620  0.00  0.00    +0.000 C 
BRANCH  24  25
ATOM     25  C   UNL     1       9.194  11.463  18.157  0.00  0.00    +0.000 C 
BRANCH  25  26
ATOM     26  N   UNL     1      10.545  11.829  17.679  0.00  0.00    +0.000 NA
ATOM     27  C   UNL     1      11.511  11.629  18.794  0.00  0.00    +0.000 C 
ATOM     28  C   UNL     1      11.327  12.640  19.944  0.00  0.00    +0.000 C 
ATOM     29  O   UNL     1      11.450  13.989  19.478  0.00  0.00    +0.000 OA
ATOM     30  C   UNL     1      10.535  14.261  18.407  0.00  0.00    +0.000 C 
ATOM     31  C   UNL     1      10.684  13.244  17.261  0.00  0.00    +0.000 C 
ENDBRANCH  25  26
ENDBRANCH  24  25
ENDBRANCH  22  24
ENDBRANCH  19  20
ENDBRANCH   1  19
TORSDOF 8
ENDMDL
MODEL 2
REMARK VINA RESULT:      -8.3      4.905      6.747
REMARK  Name = 
REMARK  9 active torsions:
REMARK  status: ('A' for Active; 'I' for Inactive)
REMARK    1  A    between atoms: C_1  and  C_2
REMARK    2  A    between atoms: C_5  and  S_6
REMARK    3  A    between atoms: S_6  and  N_9
REMARK    4  A    between atoms: N_9  and  C_10
REMARK    5  A    between atoms: N_9  and  C_22
REMARK    6  A    between atoms: C_10  and  C_11
REMARK    7  A    between atoms: N_13  and  C_14
REMARK    8  A    between atoms: C_14  and  C_15
REMARK    9  A    between atoms: C_15  and  N_16
REMARK                            x       y       z     vdW  Elec       q    Type
REMARK                         _______ _______ _______ _____ _____    ______ ____
ROOT
ATOM      1  N   UNL     1       3.729   5.385  19.184  0.00  0.00    +0.000 N 
ENDROOT
BRANCH   1   2
ATOM      2  C   UNL     1       2.660   4.424  19.331  0.00  0.00    +0.000 A 
ATOM      3  C   UNL     1       1.988   3.894  18.222  0.00  0.00    +0.000 A 
ATOM      4  C   UNL     1       1.024   2.892  18.386  0.00  0.00    +0.000 A 
ATOM      5  C   UNL     1       0.750   2.398  19.667  0.00  0.00    +0.000 A 
ATOM      6  C   UNL     1       1.445   2.912  20.764  0.00  0.00    +0.000 A 
ATOM      7 CL   UNL     1       1.144   2.280  22.336  0.00  0.00    +0.000 Cl
ATOM      8  C   UNL     1       2.399   3.917  20.602  0.00  0.00    +0.000 A 
ENDBRANCH   1   2
BRANCH   1   9
ATOM      9  S   UNL     1       5.299   4.797  18.957  0.00  0.00    +0.000 S 
ATOM     10  O   UNL     1       5.296   3.383  19.280  0.00  0.00    +0.000 OA
ATOM     11  O   UNL     1       6.210   5.674  19.669  0.00  0.00    +0.000 OA
BRANCH   9  16
ATOM     12  C   UNL     1       6.695   3.968  13.072  0.00  0.00    +0.000 C 
ATOM     13  C   UNL     1       6.389   4.397  14.480  0.00  0.00    +0.000 A 
ATOM     14  C   UNL     1       7.387   4.680  15.414  0.00  0.00    +0.000 A 
ATOM     15  C   UNL     1       7.078   4.910  16.771  0.00  0.00    +0.000 A 
ATOM     16  C   UNL     1       5.745   4.906  17.207  0.00  0.00    +0.000 A 
ATOM     17  C   UNL     1       4.737   4.677  16.256  0.00  0.00    +0.000 A 
ATOM     18  C   UNL     1       5.060   4.409  14.911  0.00  0.00    +0.000 A 
ENDBRANCH   9  16
ENDBRANCH   1   9
BRANCH   1  19
ATOM     19  C   UNL     1       3.372   6.792  19.461  0.00  0.00    +0.000 C 
BRANCH  19  20
ATOM     20  C   UNL     1       2.798   7.721  18.416  0.00  0.00    +0.000 C 
ATOM     21  O   UNL     1       3.162   7.645  17.242  0.00  0.00    +0.000 OA
ATOM     22  N   UNL     1       1.820   8.600  18.831  0.00  0.00    +0.000 N 
ATOM     23  H   UNL     1       1.896   8.893  19.808  0.00  0.00    +0.000 HD
BRANCH  22  24
ATOM     24  C   UNL     1       1.300   9.635  17.935  0.00  0.00    +0.000 C 
BRANCH  24  25
ATOM     25  C   UNL     1       0.155  10.441  18.567  0.00  0.00    +0.000 C 
BRANCH  25  26
ATOM     26  N   UNL     1       0.368  10.965  19.934  0.00  0.00    +0.000 NA
ATOM     27  C   UNL     1      -0.951  11.360  20.499  0.00  0.00    +0.000 C 
ATOM     28  C   UNL     1      -1.561  12.597  19.807  0.00  0.00    +0.000 C 
ATOM     29  O   UNL     1      -0.680  13.725  19.884  0.00  0.00    +0.000 OA
ATOM     30  C   UNL     1       0.613  13.421  19.342  0.00  0.00    +0.000 C 
ATOM     31  C   UNL     1       1.226  12.171  20.000  0.00  0.00    +0.000 C 
ENDBRANCH  25  26
ENDBRANCH  24  25
ENDBRANCH  22  24
ENDBRANCH  19  20
ENDBRANCH   1  19
TORSDOF 8
ENDMDL
MODEL 3
REMARK VINA RESULT:      -8.2      1.077      1.391
REMARK  Name = 
REMARK  9 active torsions:
REMARK  status: ('A' for Active; 'I' for Inactive)
REMARK    1  A    between atoms: C_1  and  C_2
REMARK    2  A    between atoms: C_5  and  S_6
REMARK    3  A    between atoms: S_6  and  N_9
REMARK    4  A    between atoms: N_9  and  C_10
REMARK    5  A    between atoms: N_9  and  C_22
REMARK    6  A    between atoms: C_10  and  C_11
REMARK    7  A    between atoms: N_13  and  C_14
REMARK    8  A    between atoms: C_14  and  C_15
REMARK    9  A    between atoms: C_15  and  N_16
REMARK                            x       y       z     vdW  Elec       q    Type
REMARK                         _______ _______ _______ _____ _____    ______ ____
ROOT
ATOM      1  N   UNL     1       5.645   6.176  17.436  0.00  0.00    +0.000 N 
ENDROOT
BRANCH   1   2
ATOM      2  C   UNL     1       4.414   6.530  18.106  0.00  0.00    +0.000 A 
ATOM      3  C   UNL     1       4.059   5.970  19.340  0.00  0.00    +0.000 A 
ATOM      4  C   UNL     1       2.911   6.402  20.015  0.00  0.00    +0.000 A 
ATOM      5  C   UNL     1       2.127   7.422  19.464  0.00  0.00    +0.000 A 
ATOM      6  C   UNL     1       2.504   7.995  18.246  0.00  0.00    +0.000 A 
ATOM      7 CL   UNL     1       1.568   9.278  17.583  0.00  0.00    +0.000 Cl
ATOM      8  C   UNL     1       3.642   7.559  17.569  0.00  0.00    +0.000 A 
ENDBRANCH   1   2
BRANCH   1   9
ATOM      9  S   UNL     1       6.036   4.535  17.311  0.00  0.00    +0.000 S 
ATOM     10  O   UNL     1       6.994   4.225  18.354  0.00  0.00    +0.000 OA
ATOM     11  O   UNL     1       6.396   4.268  15.931  0.00  0.00    +0.000 OA
BRANCH   9  16
ATOM     12  C   UNL     1       0.643   2.170  18.920  0.00  0.00    +0.000 C 
ATOM     13  C   UNL     1       2.027   2.537  18.461  0.00  0.00    +0.000 A 
ATOM     14  C   UNL     1       3.162   2.311  19.241  0.00  0.00    +0.000 A 
ATOM     15  C   UNL     1       4.423   2.820  18.865  0.00  0.00    +0.000 A 
ATOM     16  C   UNL     1       4.574   3.530  17.664  0.00  0.00    +0.000 A 
ATOM     17  C   UNL     1       3.442   3.707  16.852  0.00  0.00    +0.000 A 
ATOM     18  C   UNL     1       2.180   3.230  17.257  0.00  0.00    +0.000 A 
ENDBRANCH   9  16
ENDBRANCH   1   9
BRANCH   1  19
ATOM     19  C   UNL     1       6.547   7.300  17.112  0.00  0.00    +0.000 C 
BRANCH  19  20
ATOM     20  C   UNL     1       7.681   7.736  18.012  0.00  0.00    +0.000 C 
ATOM     21  O   UNL     1       8.243   6.925  18.750  0.00  0.00    +0.000 OA
ATOM     22  N   UNL     1       8.083   9.052  17.918  0.00  0.00    +0.000 N 
ATOM     23  H   UNL     1       7.344   9.706  17.652  0.00  0.00    +0.000 HD
BRANCH  22  24
ATOM     24  C   UNL     1       9.073   9.610  18.840  0.00  0.00    +0.000 C 
BRANCH  24  25
ATOM     25  C   UNL     1       9.039  11.145  18.883  0.00  0.00    +0.000 C 
BRANCH  25  26
ATOM     26  N   UNL     1       9.755  11.870  17.810  0.00  0.00    +0.000 NA
ATOM     27  C   UNL     1      11.216  11.640  17.977  0.00  0.00    +0.000 C 
ATOM     28  C   UNL     1      11.799  12.328  19.229  0.00  0.00    +0.000 C 
ATOM     29  O   UNL     1      11.564  13.742  19.204  0.00  0.00    +0.000 OA
ATOM     30  C   UNL     1      10.169  14.041  19.059  0.00  0.00    +0.000 C 
ATOM     31  C   UNL     1       9.562  13.339  17.830  0.00  0.00    +0.000 C 
ENDBRANCH  25  26
ENDBRANCH  24  25
ENDBRANCH  22  24
ENDBRANCH  19  20
ENDBRANCH   1  19
TORSDOF 8
ENDMDL
MODEL 4
REMARK VINA RESULT:      -8.2      0.691      1.124
REMARK  Name = 
REMARK  9 active torsions:
REMARK  status: ('A' for Active; 'I' for Inactive)
REMARK    1  A    between atoms: C_1  and  C_2
REMARK    2  A    between atoms: C_5  and  S_6
REMARK    3  A    between atoms: S_6  and  N_9
REMARK    4  A    between atoms: N_9  and  C_10
REMARK    5  A    between atoms: N_9  and  C_22
REMARK    6  A    between atoms: C_10  and  C_11
REMARK    7  A    between atoms: N_13  and  C_14
REMARK    8  A    between atoms: C_14  and  C_15
REMARK    9  A    between atoms: C_15  and  N_16
REMARK                            x       y       z     vdW  Elec       q    Type
REMARK                         _______ _______ _______ _____ _____    ______ ____
ROOT
ATOM      1  N   UNL     1       5.752   6.134  17.445  0.00  0.00    +0.000 N 
ENDROOT
BRANCH   1   2
ATOM      2  C   UNL     1       4.500   6.549  18.037  0.00  0.00    +0.000 A 
ATOM      3  C   UNL     1       3.661   7.481  17.412  0.00  0.00    +0.000 A 
ATOM      4  C   UNL     1       2.410   7.791  17.958  0.00  0.00    +0.000 A 
ATOM      5  C   UNL     1       1.983   7.143  19.124  0.00  0.00    +0.000 A 
ATOM      6  C   UNL     1       2.814   6.194  19.724  0.00  0.00    +0.000 A 
ATOM      7 CL   UNL     1       2.279   5.364  21.134  0.00  0.00    +0.000 Cl
ATOM      8  C   UNL     1       4.065   5.891  19.186  0.00  0.00    +0.000 A 
ENDBRANCH   1   2
BRANCH   1   9
ATOM      9  S   UNL     1       6.144   4.489  17.489  0.00  0.00    +0.000 S 
ATOM     10  O   UNL     1       6.988   4.263  18.646  0.00  0.00    +0.000 OA
ATOM     11  O   UNL     1       6.641   4.115  16.178  0.00  0.00    +0.000 OA
BRANCH   9  16
ATOM     12  C   UNL     1       0.633   2.227  18.824  0.00  0.00    +0.000 C 
ATOM     13  C   UNL     1       2.044   2.568  18.435  0.00  0.00    +0.000 A 
ATOM     14  C   UNL     1       3.135   2.321  19.271  0.00  0.00    +0.000 A 
ATOM     15  C   UNL     1       4.422   2.806  18.959  0.00  0.00    +0.000 A 
ATOM     16  C   UNL     1       4.647   3.512  17.768  0.00  0.00    +0.000 A 
ATOM     17  C   UNL     1       3.560   3.709  16.900  0.00  0.00    +0.000 A 
ATOM     18  C   UNL     1       2.271   3.256  17.240  0.00  0.00    +0.000 A 
ENDBRANCH   9  16
ENDBRANCH   1   9
BRANCH   1  19
ATOM     19  C   UNL     1       6.666   7.223  17.046  0.00  0.00    +0.000 C 
BRANCH  19  20
ATOM     20  C   UNL     1       7.744   7.772  17.954  0.00  0.00    +0.000 C 
ATOM     21  O   UNL     1       8.326   7.036  18.751  0.00  0.00    +0.000 OA
ATOM     22  N   UNL     1       8.073   9.102  17.800  0.00  0.00    +0.000 N 
ATOM     23  H   UNL     1       7.306   9.697  17.477  0.00  0.00    +0.000 HD
BRANCH  22  24
ATOM     24  C   UNL     1       8.999   9.766  18.719  0.00  0.00    +0.000 C 
BRANCH  24  25
ATOM     25  C   UNL     1       9.018  11.292  18.537  0.00  0.00    +0.000 C 
BRANCH  25  26
ATOM     26  N   UNL     1       9.897  12.071  19.436  0.00  0.00    +0.000 NA
ATOM     27  C   UNL     1       9.728  13.517  19.126  0.00  0.00    +0.000 C 
ATOM     28  C   UNL     1      10.299  13.913  17.750  0.00  0.00    +0.000 C 
ATOM     29  O   UNL     1      11.692  13.590  17.650  0.00  0.00    +0.000 OA
ATOM     30  C   UNL     1      11.931  12.202  17.923  0.00  0.00    +0.000 C 
ATOM     31  C   UNL     1      11.342  11.781  19.282  0.00  0.00    +0.000 C 
ENDBRANCH  25  26
ENDBRANCH  24  25
ENDBRANCH  22  24
ENDBRANCH  19  20
ENDBRANCH   1  19
TORSDOF 8
ENDMDL
MODEL 5
REMARK VINA RESULT:      -8.1      1.283      1.673
REMARK  Name = 
REMARK  9 active torsions:
REMARK  status: ('A' for Active; 'I' for Inactive)
REMARK    1  A    between atoms: C_1  and  C_2
REMARK    2  A    between atoms: C_5  and  S_6
REMARK    3  A    between atoms: S_6  and  N_9
REMARK    4  A    between atoms: N_9  and  C_10
REMARK    5  A    between atoms: N_9  and  C_22
REMARK    6  A    between atoms: C_10  and  C_11
REMARK    7  A    between atoms: N_13  and  C_14
REMARK    8  A    between atoms: C_14  and  C_15
REMARK    9  A    between atoms: C_15  and  N_16
REMARK                            x       y       z     vdW  Elec       q    Type
REMARK                         _______ _______ _______ _____ _____    ______ ____
ROOT
ATOM      1  N   UNL     1       5.341   6.107  16.998  0.00  0.00    +0.000 N 
ENDROOT
BRANCH   1   2
ATOM      2  C   UNL     1       4.232   6.495  17.840  0.00  0.00    +0.000 A 
ATOM      3  C   UNL     1       4.063   5.966  19.126  0.00  0.00    +0.000 A 
ATOM      4  C   UNL     1       3.038   6.432  19.958  0.00  0.00    +0.000 A 
ATOM      5  C   UNL     1       2.193   7.454  19.510  0.00  0.00    +0.000 A 
ATOM      6  C   UNL     1       2.387   7.996  18.237  0.00  0.00    +0.000 A 
ATOM      7 CL   UNL     1       1.378   9.281  17.695  0.00  0.00    +0.000 Cl
ATOM      8  C   UNL     1       3.402   7.526  17.404  0.00  0.00    +0.000 A 
ENDBRANCH   1   2
BRANCH   1   9
ATOM      9  S   UNL     1       5.473   4.477  16.564  0.00  0.00    +0.000 S 
ATOM     10  O   UNL     1       6.739   3.982  17.070  0.00  0.00    +0.000 OA
ATOM     11  O   UNL     1       5.201   4.372  15.143  0.00  0.00    +0.000 OA
BRANCH   9  16
ATOM     12  C   UNL     1       0.846   2.284  19.888  0.00  0.00    +0.000 C 
ATOM     13  C   UNL     1       2.018   2.605  19.003  0.00  0.00    +0.000 A 
ATOM     14  C   UNL     1       3.340   2.397  19.402  0.00  0.00    +0.000 A 
ATOM     15  C   UNL     1       4.422   2.865  18.627  0.00  0.00    +0.000 A 
ATOM     16  C   UNL     1       4.193   3.515  17.405  0.00  0.00    +0.000 A 
ATOM     17  C   UNL     1       2.864   3.672  16.977  0.00  0.00    +0.000 A 
ATOM     18  C   UNL     1       1.790   3.237  17.778  0.00  0.00    +0.000 A 
ENDBRANCH   9  16
ENDBRANCH   1   9
BRANCH   1  19
ATOM     19  C   UNL     1       6.372   7.140  16.774  0.00  0.00    +0.000 C 
BRANCH  19  20
ATOM     20  C   UNL     1       7.429   7.490  17.796  0.00  0.00    +0.000 C 
ATOM     21  O   UNL     1       7.849   6.637  18.579  0.00  0.00    +0.000 OA
ATOM     22  N   UNL     1       7.928   8.775  17.765  0.00  0.00    +0.000 N 
ATOM     23  H   UNL     1       7.268   9.481  17.430  0.00  0.00    +0.000 HD
BRANCH  22  24
ATOM     24  C   UNL     1       8.848   9.257  18.797  0.00  0.00    +0.000 C 
BRANCH  24  25
ATOM     25  C   UNL     1       9.232  10.732  18.601  0.00  0.00    +0.000 C 
BRANCH  25  26
ATOM     26  N   UNL     1      10.599  11.135  18.998  0.00  0.00    +0.000 NA
ATOM     27  C   UNL     1      10.502  12.044  20.172  0.00  0.00    +0.000 C 
ATOM     28  C   UNL     1       9.886  13.416  19.827  0.00  0.00    +0.000 C 
ATOM     29  O   UNL     1      10.634  14.081  18.800  0.00  0.00    +0.000 OA
ATOM     30  C   UNL     1      10.757  13.265  17.627  0.00  0.00    +0.000 C 
ATOM     31  C   UNL     1      11.344  11.881  17.956  0.00  0.00    +0.000 C 
ENDBRANCH  25  26
ENDBRANCH  24  25
ENDBRANCH  22  24
ENDBRANCH  19  20
ENDBRANCH   1  19
TORSDOF 8
ENDMDL
MODEL 6
REMARK VINA RESULT:      -8.0      3.749      7.102
REMARK  Name = 
REMARK  9 active torsions:
REMARK  status: ('A' for Active; 'I' for Inactive)
REMARK    1  A    between atoms: C_1  and  C_2
REMARK    2  A    between atoms: C_5  and  S_6
REMARK    3  A    between atoms: S_6  and  N_9
REMARK    4  A    between atoms: N_9  and  C_10
REMARK    5  A    between atoms: N_9  and  C_22
REMARK    6  A    between atoms: C_10  and  C_11
REMARK    7  A    between atoms: N_13  and  C_14
REMARK    8  A    between atoms: C_14  and  C_15
REMARK    9  A    between atoms: C_15  and  N_16
REMARK                            x       y       z     vdW  Elec       q    Type
REMARK                         _______ _______ _______ _____ _____    ______ ____
ROOT
ATOM      1  N   UNL     1       3.753   5.295  18.533  0.00  0.00    +0.000 N 
ENDROOT
BRANCH   1   2
ATOM      2  C   UNL     1       2.672   4.394  18.866  0.00  0.00    +0.000 A 
ATOM      3  C   UNL     1       1.867   3.812  17.878  0.00  0.00    +0.000 A 
ATOM      4  C   UNL     1       0.892   2.868  18.219  0.00  0.00    +0.000 A 
ATOM      5  C   UNL     1       0.739   2.483  19.556  0.00  0.00    +0.000 A 
ATOM      6  C   UNL     1       1.566   3.047  20.531  0.00  0.00    +0.000 A 
ATOM      7 CL   UNL     1       1.412   2.547  22.171  0.00  0.00    +0.000 Cl
ATOM      8  C   UNL     1       2.532   3.995  20.193  0.00  0.00    +0.000 A 
ENDBRANCH   1   2
BRANCH   1   9
ATOM      9  S   UNL     1       5.184   4.627  17.928  0.00  0.00    +0.000 S 
ATOM     10  O   UNL     1       4.938   4.209  16.561  0.00  0.00    +0.000 OA
ATOM     11  O   UNL     1       5.655   3.643  18.885  0.00  0.00    +0.000 OA
BRANCH   9  16
ATOM     12  C   UNL     1       8.929   9.408  18.554  0.00  0.00    +0.000 C 
ATOM     13  C   UNL     1       8.137   8.175  18.217  0.00  0.00    +0.000 A 
ATOM     14  C   UNL     1       7.180   8.151  17.201  0.00  0.00    +0.000 A 
ATOM     15  C   UNL     1       6.331   7.039  17.019  0.00  0.00    +0.000 A 
ATOM     16  C   UNL     1       6.462   5.904  17.833  0.00  0.00    +0.000 A 
ATOM     17  C   UNL     1       7.464   5.907  18.818  0.00  0.00    +0.000 A 
ATOM     18  C   UNL     1       8.279   7.038  19.017  0.00  0.00    +0.000 A 
ENDBRANCH   9  16
ENDBRANCH   1   9
BRANCH   1  19
ATOM     19  C   UNL     1       3.574   6.698  18.958  0.00  0.00    +0.000 C 
BRANCH  19  20
ATOM     20  C   UNL     1       2.851   7.730  18.123  0.00  0.00    +0.000 C 
ATOM     21  O   UNL     1       3.032   7.790  16.906  0.00  0.00    +0.000 OA
ATOM     22  N   UNL     1       1.950   8.544  18.777  0.00  0.00    +0.000 N 
ATOM     23  H   UNL     1       2.175   8.727  19.758  0.00  0.00    +0.000 HD
BRANCH  22  24
ATOM     24  C   UNL     1       1.304   9.665  18.093  0.00  0.00    +0.000 C 
BRANCH  24  25
ATOM     25  C   UNL     1       0.099  10.216  18.871  0.00  0.00    +0.000 C 
BRANCH  25  26
ATOM     26  N   UNL     1       0.379  11.153  19.980  0.00  0.00    +0.000 NA
ATOM     27  C   UNL     1      -0.907  11.752  20.429  0.00  0.00    +0.000 C 
ATOM     28  C   UNL     1      -1.525  12.711  19.390  0.00  0.00    +0.000 C 
ATOM     29  O   UNL     1      -0.623  13.774  19.059  0.00  0.00    +0.000 OA
ATOM     30  C   UNL     1       0.640  13.270  18.602  0.00  0.00    +0.000 C 
ATOM     31  C   UNL     1       1.259  12.288  19.614  0.00  0.00    +0.000 C 
ENDBRANCH  25  26
ENDBRANCH  24  25
ENDBRANCH  22  24
ENDBRANCH  19  20
ENDBRANCH   1  19
TORSDOF 8
ENDMDL
MODEL 7
REMARK VINA RESULT:      -8.0      4.875      6.836
REMARK  Name = 
REMARK  9 active torsions:
REMARK  status: ('A' for Active; 'I' for Inactive)
REMARK    1  A    between atoms: C_1  and  C_2
REMARK    2  A    between atoms: C_5  and  S_6
REMARK    3  A    between atoms: S_6  and  N_9
REMARK    4  A    between atoms: N_9  and  C_10
REMARK    5  A    between atoms: N_9  and  C_22
REMARK    6  A    between atoms: C_10  and  C_11
REMARK    7  A    between atoms: N_13  and  C_14
REMARK    8  A    between atoms: C_14  and  C_15
REMARK    9  A    between atoms: C_15  and  N_16
REMARK                            x       y       z     vdW  Elec       q    Type
REMARK                         _______ _______ _______ _____ _____    ______ ____
ROOT
ATOM      1  N   UNL     1       4.003   5.307  19.440  0.00  0.00    +0.000 N 
ENDROOT
BRANCH   1   2
ATOM      2  C   UNL     1       3.040   4.353  19.941  0.00  0.00    +0.000 A 
ATOM      3  C   UNL     1       2.768   4.229  21.310  0.00  0.00    +0.000 A 
ATOM      4  C   UNL     1       1.761   3.368  21.761  0.00  0.00    +0.000 A 
ATOM      5  C   UNL     1       1.002   2.645  20.834  0.00  0.00    +0.000 A 
ATOM      6  C   UNL     1       1.260   2.796  19.469  0.00  0.00    +0.000 A 
ATOM      7 CL   UNL     1       0.303   1.943  18.321  0.00  0.00    +0.000 Cl
ATOM      8  C   UNL     1       2.269   3.647  19.019  0.00  0.00    +0.000 A 
ENDBRANCH   1   2
BRANCH   1   9
ATOM      9  S   UNL     1       5.540   4.737  19.021  0.00  0.00    +0.000 S 
ATOM     10  O   UNL     1       5.597   3.326  19.350  0.00  0.00    +0.000 OA
ATOM     11  O   UNL     1       6.521   5.631  19.608  0.00  0.00    +0.000 OA
BRANCH   9  16
ATOM     12  C   UNL     1       6.485   3.896  13.049  0.00  0.00    +0.000 C 
ATOM     13  C   UNL     1       6.227   4.326  14.466  0.00  0.00    +0.000 A 
ATOM     14  C   UNL     1       7.212   4.908  15.266  0.00  0.00    +0.000 A 
ATOM     15  C   UNL     1       6.997   5.143  16.640  0.00  0.00    +0.000 A 
ATOM     16  C   UNL     1       5.761   4.837  17.228  0.00  0.00    +0.000 A 
ATOM     17  C   UNL     1       4.751   4.305  16.410  0.00  0.00    +0.000 A 
ATOM     18  C   UNL     1       4.990   4.037  15.048  0.00  0.00    +0.000 A 
ENDBRANCH   9  16
ENDBRANCH   1   9
BRANCH   1  19
ATOM     19  C   UNL     1       3.615   6.728  19.546  0.00  0.00    +0.000 C 
BRANCH  19  20
ATOM     20  C   UNL     1       2.968   7.495  18.415  0.00  0.00    +0.000 C 
ATOM     21  O   UNL     1       3.339   7.329  17.252  0.00  0.00    +0.000 OA
ATOM     22  N   UNL     1       1.921   8.330  18.745  0.00  0.00    +0.000 N 
ATOM     23  H   UNL     1       1.972   8.726  19.686  0.00  0.00    +0.000 HD
BRANCH  22  24
ATOM     24  C   UNL     1       1.320   9.221  17.751  0.00  0.00    +0.000 C 
BRANCH  24  25
ATOM     25  C   UNL     1       0.197  10.089  18.341  0.00  0.00    +0.000 C 
BRANCH  25  26
ATOM     26  N   UNL     1       0.530  10.923  19.516  0.00  0.00    +0.000 NA
ATOM     27  C   UNL     1      -0.710  11.137  20.311  0.00  0.00    +0.000 C 
ATOM     28  C   UNL     1      -1.739  12.039  19.599  0.00  0.00    +0.000 C 
ATOM     29  O   UNL     1      -1.179  13.320  19.282  0.00  0.00    +0.000 OA
ATOM     30  C   UNL     1       0.017  13.193  18.500  0.00  0.00    +0.000 C 
ATOM     31  C   UNL     1       1.045  12.272  19.182  0.00  0.00    +0.000 C 
ENDBRANCH  25  26
ENDBRANCH  24  25
ENDBRANCH  22  24
ENDBRANCH  19  20
ENDBRANCH   1  19
TORSDOF 8
ENDMDL
MODEL 8
REMARK VINA RESULT:      -7.9      4.749      6.595
REMARK  Name = 
REMARK  9 active torsions:
REMARK  status: ('A' for Active; 'I' for Inactive)
REMARK    1  A    between atoms: C_1  and  C_2
REMARK    2  A    between atoms: C_5  and  S_6
REMARK    3  A    between atoms: S_6  and  N_9
REMARK    4  A    between atoms: N_9  and  C_10
REMARK    5  A    between atoms: N_9  and  C_22
REMARK    6  A    between atoms: C_10  and  C_11
REMARK    7  A    between atoms: N_13  and  C_14
REMARK    8  A    between atoms: C_14  and  C_15
REMARK    9  A    between atoms: C_15  and  N_16
REMARK                            x       y       z     vdW  Elec       q    Type
REMARK                         _______ _______ _______ _____ _____    ______ ____
ROOT
ATOM      1  N   UNL     1       4.032   5.869  17.997  0.00  0.00    +0.000 N 
ENDROOT
BRANCH   1   2
ATOM      2  C   UNL     1       2.985   5.013  18.508  0.00  0.00    +0.000 A 
ATOM      3  C   UNL     1       2.036   4.423  17.662  0.00  0.00    +0.000 A 
ATOM      4  C   UNL     1       1.093   3.522  18.168  0.00  0.00    +0.000 A 
ATOM      5  C   UNL     1       1.116   3.186  19.528  0.00  0.00    +0.000 A 
ATOM      6  C   UNL     1       2.084   3.757  20.358  0.00  0.00    +0.000 A 
ATOM      7 CL   UNL     1       2.145   3.318  22.021  0.00  0.00    +0.000 Cl
ATOM      8  C   UNL     1       3.018   4.663  19.856  0.00  0.00    +0.000 A 
ENDBRANCH   1   2
BRANCH   1   9
ATOM      9  S   UNL     1       5.620   5.287  18.035  0.00  0.00    +0.000 S 
ATOM     10  O   UNL     1       5.664   4.172  18.961  0.00  0.00    +0.000 OA
ATOM     11  O   UNL     1       6.502   6.418  18.260  0.00  0.00    +0.000 OA
BRANCH   9  16
ATOM     12  C   UNL     1       6.756   4.063  12.163  0.00  0.00    +0.000 C 
ATOM     13  C   UNL     1       6.545   4.147  13.649  0.00  0.00    +0.000 A 
ATOM     14  C   UNL     1       5.416   3.620  14.279  0.00  0.00    +0.000 A 
ATOM     15  C   UNL     1       5.157   3.863  15.645  0.00  0.00    +0.000 A 
ATOM     16  C   UNL     1       6.061   4.607  16.418  0.00  0.00    +0.000 A 
ATOM     17  C   UNL     1       7.225   5.088  15.796  0.00  0.00    +0.000 A 
ATOM     18  C   UNL     1       7.453   4.874  14.423  0.00  0.00    +0.000 A 
ENDBRANCH   9  16
ENDBRANCH   1   9
BRANCH   1  19
ATOM     19  C   UNL     1       3.634   7.257  17.687  0.00  0.00    +0.000 C 
BRANCH  19  20
ATOM     20  C   UNL     1       2.503   7.970  18.391  0.00  0.00    +0.000 C 
ATOM     21  O   UNL     1       2.254   7.736  19.575  0.00  0.00    +0.000 OA
ATOM     22  N   UNL     1       1.816   8.922  17.666  0.00  0.00    +0.000 N 
ATOM     23  H   UNL     1       1.780   8.747  16.659  0.00  0.00    +0.000 HD
BRANCH  22  24
ATOM     24  C   UNL     1       0.618   9.567  18.205  0.00  0.00    +0.000 C 
BRANCH  24  25
ATOM     25  C   UNL     1       0.921  10.927  18.853  0.00  0.00    +0.000 C 
BRANCH  25  26
ATOM     26  N   UNL     1      -0.188  11.903  18.931  0.00  0.00    +0.000 NA
ATOM     27  C   UNL     1       0.340  13.248  18.574  0.00  0.00    +0.000 C 
ATOM     28  C   UNL     1       1.305  13.821  19.631  0.00  0.00    +0.000 C 
ATOM     29  O   UNL     1       0.677  13.910  20.917  0.00  0.00    +0.000 OA
ATOM     30  C   UNL     1       0.155  12.641  21.336  0.00  0.00    +0.000 C 
ATOM     31  C   UNL     1      -0.789  12.039  20.279  0.00  0.00    +0.000 C 
ENDBRANCH  25  26
ENDBRANCH  24  25
ENDBRANCH  22  24
ENDBRANCH  19  20
ENDBRANCH   1  19
TORSDOF 8
ENDMDL
MODEL 9
REMARK VINA RESULT:      -7.9      2.791      4.198
REMARK  Name = 
REMARK  9 active torsions:
REMARK  status: ('A' for Active; 'I' for Inactive)
REMARK    1  A    between atoms: C_1  and  C_2
REMARK    2  A    between atoms: C_5  and  S_6
REMARK    3  A    between atoms: S_6  and  N_9
REMARK    4  A    between atoms: N_9  and  C_10
REMARK    5  A    between atoms: N_9  and  C_22
REMARK    6  A    between atoms: C_10  and  C_11
REMARK    7  A    between atoms: N_13  and  C_14
REMARK    8  A    between atoms: C_14  and  C_15
REMARK    9  A    between atoms: C_15  and  N_16
REMARK                            x       y       z     vdW  Elec       q    Type
REMARK                         _______ _______ _______ _____ _____    ______ ____
ROOT
ATOM      1  N   UNL     1       6.337   4.782  17.402  0.00  0.00    +0.000 N 
ENDROOT
BRANCH   1   2
ATOM      2  C   UNL     1       6.343   4.537  15.977  0.00  0.00    +0.000 A 
ATOM      3  C   UNL     1       5.272   3.903  15.333  0.00  0.00    +0.000 A 
ATOM      4  C   UNL     1       5.259   3.766  13.941  0.00  0.00    +0.000 A 
ATOM      5  C   UNL     1       6.313   4.292  13.183  0.00  0.00    +0.000 A 
ATOM      6  C   UNL     1       7.362   4.948  13.831  0.00  0.00    +0.000 A 
ATOM      7 CL   UNL     1       8.640   5.634  12.904  0.00  0.00    +0.000 Cl
ATOM      8  C   UNL     1       7.380   5.077  15.220  0.00  0.00    +0.000 A 
ENDBRANCH   1   2
BRANCH   1   9
ATOM      9  S   UNL     1       5.049   4.162  18.307  0.00  0.00    +0.000 S 
ATOM     10  O   UNL     1       5.528   3.915  19.653  0.00  0.00    +0.000 OA
ATOM     11  O   UNL     1       4.469   3.061  17.560  0.00  0.00    +0.000 OA
BRANCH   9  16
ATOM     12  C   UNL     1       1.587   9.129  19.090  0.00  0.00    +0.000 C 
ATOM     13  C   UNL     1       2.241   7.795  18.861  0.00  0.00    +0.000 A 
ATOM     14  C   UNL     1       2.297   6.806  19.845  0.00  0.00    +0.000 A 
ATOM     15  C   UNL     1       3.063   5.635  19.665  0.00  0.00    +0.000 A 
ATOM     16  C   UNL     1       3.753   5.415  18.464  0.00  0.00    +0.000 A 
ATOM     17  C   UNL     1       3.649   6.383  17.452  0.00  0.00    +0.000 A 
ATOM     18  C   UNL     1       2.914   7.567  17.658  0.00  0.00    +0.000 A 
ENDBRANCH   9  16
ENDBRANCH   1   9
BRANCH   1  19
ATOM     19  C   UNL     1       7.351   5.736  17.895  0.00  0.00    +0.000 C 
BRANCH  19  20
ATOM     20  C   UNL     1       7.298   7.220  17.611  0.00  0.00    +0.000 C 
ATOM     21  O   UNL     1       6.417   7.688  16.889  0.00  0.00    +0.000 OA
ATOM     22  N   UNL     1       8.237   8.010  18.240  0.00  0.00    +0.000 N 
ATOM     23  H   UNL     1       9.126   7.544  18.433  0.00  0.00    +0.000 HD
BRANCH  22  24
ATOM     24  C   UNL     1       8.363   9.434  17.925  0.00  0.00    +0.000 C 
BRANCH  24  25
ATOM     25  C   UNL     1       9.108  10.216  19.018  0.00  0.00    +0.000 C 
BRANCH  25  26
ATOM     26  N   UNL     1       9.255  11.675  18.827  0.00  0.00    +0.000 NA
ATOM     27  C   UNL     1      10.497  11.927  18.045  0.00  0.00    +0.000 C 
ATOM     28  C   UNL     1      11.784  11.608  18.832  0.00  0.00    +0.000 C 
ATOM     29  O   UNL     1      11.854  12.364  20.048  0.00  0.00    +0.000 OA
ATOM     30  C   UNL     1      10.692  12.159  20.864  0.00  0.00    +0.000 C 
ATOM     31  C   UNL     1       9.395  12.446  20.085  0.00  0.00    +0.000 C 
ENDBRANCH  25  26
ENDBRANCH  24  25
ENDBRANCH  22  24
ENDBRANCH  19  20
ENDBRANCH   1  19
TORSDOF 8
ENDMDL
