MODEL 1
REMARK VINA RESULT:      -7.7      0.000      0.000
REMARK  Name = 
REMARK  8 active torsions:
REMARK  status: ('A' for Active; 'I' for Inactive)
REMARK    1  A    between atoms: C_1  and  O_2
REMARK    2  A    between atoms: O_2  and  N_3
REMARK    3  A    between atoms: C_4  and  C_6
REMARK    4  A    between atoms: N_8  and  C_9
REMARK    5  A    between atoms: N_18  and  C_19
REMARK    6  A    between atoms: C_22  and  C_23
REMARK    7  A    between atoms: C_23  and  C_24
REMARK    8  A    between atoms: C_24  and  N_25
REMARK                            x       y       z     vdW  Elec       q    Type
REMARK                         _______ _______ _______ _____ _____    ______ ____
ROOT
ATOM      1  C   UNL     1      -2.806  12.655  21.511  0.00  0.00    +0.000 A 
ATOM      2  C   UNL     1      -2.392  12.309  20.281  0.00  0.00    +0.000 A 
ATOM      3  N   UNL     1      -1.395  11.395  19.965  0.00  0.00    +0.000 N 
ATOM      4  C   UNL     1      -0.717  10.740  21.039  0.00  0.00    +0.000 A 
ATOM      5  N   UNL     1       0.263   9.852  20.808  0.00  0.00    +0.000 NA
ATOM      6  C   UNL     1       0.869   9.253  21.850  0.00  0.00    +0.000 A 
ATOM      7  N   UNL     1       1.877   8.320  21.618  0.00  0.00    +0.000 N 
ATOM      8  N   UNL     1       0.573   9.494  23.132  0.00  0.00    +0.000 NA
ATOM      9  C   UNL     1      -0.415  10.376  23.356  0.00  0.00    +0.000 A 
ATOM     10  C   UNL     1      -1.091  11.017  22.343  0.00  0.00    +0.000 A 
ATOM     11  C   UNL     1      -2.134  11.990  22.644  0.00  0.00    +0.000 A 
ATOM     12  O   UNL     1      -2.423  12.247  23.810  0.00  0.00    +0.000 OA
ATOM     13  H   UNL     1       2.119   7.907  22.512  0.00  0.00    +0.000 HD
ENDROOT
BRANCH   3  14
ATOM     14  C   UNL     1      -0.709  11.308  18.639  0.00  0.00    +0.000 C 
ATOM     15  C   UNL     1      -0.604   9.879  18.071  0.00  0.00    +0.000 C 
ATOM     16  C   UNL     1      -1.797   9.379  17.255  0.00  0.00    +0.000 C 
ATOM     17  C   UNL     1      -2.316  10.416  16.267  0.00  0.00    +0.000 C 
ATOM     18  C   UNL     1      -2.573  11.766  16.923  0.00  0.00    +0.000 C 
ATOM     19  C   UNL     1      -1.334  12.297  17.639  0.00  0.00    +0.000 C 
ENDBRANCH   3  14
BRANCH   7  20
ATOM     20  C   UNL     1       1.894   7.388  20.567  0.00  0.00    +0.000 A 
ATOM     21  C   UNL     1       1.480   6.083  20.829  0.00  0.00    +0.000 A 
ATOM     22  C   UNL     1       1.483   5.122  19.819  0.00  0.00    +0.000 A 
ATOM     23  C   UNL     1       1.852   5.459  18.511  0.00  0.00    +0.000 A 
ATOM     24  C   UNL     1       2.232   6.778  18.241  0.00  0.00    +0.000 A 
ATOM     25  C   UNL     1       2.244   7.733  19.257  0.00  0.00    +0.000 A 
BRANCH  23  26
ATOM     26  C   UNL     1       1.953   4.433  17.405  0.00  0.00    +0.000 C 
BRANCH  26  27
ATOM     27  C   UNL     1       2.043   2.970  17.875  0.00  0.00    +0.000 C 
BRANCH  27  28
ATOM     28  N   UNL     1       3.409   2.418  17.802  0.00  0.00    +0.000 NA
ATOM     29  C   UNL     1       3.701   1.580  18.976  0.00  0.00    +0.000 C 
ATOM     30  C   UNL     1       4.240   2.534  20.025  0.00  0.00    +0.000 C 
ATOM     31  C   UNL     1       5.016   3.553  19.215  0.00  0.00    +0.000 C 
ATOM     32  C   UNL     1       4.451   3.459  17.804  0.00  0.00    +0.000 C 
ENDBRANCH  27  28
ENDBRANCH  26  27
ENDBRANCH  23  26
ENDBRANCH   7  20
BRANCH   1  34
ATOM     33  N   UNL     1      -4.263  13.877  22.958  0.00  0.00    +0.000 N 
ATOM     34  C   UNL     1      -3.869  13.684  21.660  0.00  0.00    +0.000 C 
ATOM     35  O   UNL     1      -4.335  14.272  20.689  0.00  0.00    +0.000 OA
ATOM     36  H   UNL     1      -3.724  13.519  23.748  0.00  0.00    +0.000 HD
BRANCH  33  38
ATOM     37  C   UNL     1      -4.520  15.773  24.205  0.00  0.00    +0.000 C 
ATOM     38  O   UNL     1      -5.138  14.948  23.220  0.00  0.00    +0.000 OA
ENDBRANCH  33  38
ENDBRANCH   1  34
TORSDOF 7
ENDMDL
MODEL 2
REMARK VINA RESULT:      -7.6      3.383      4.483
REMARK  Name = 
REMARK  8 active torsions:
REMARK  status: ('A' for Active; 'I' for Inactive)
REMARK    1  A    between atoms: C_1  and  O_2
REMARK    2  A    between atoms: O_2  and  N_3
REMARK    3  A    between atoms: C_4  and  C_6
REMARK    4  A    between atoms: N_8  and  C_9
REMARK    5  A    between atoms: N_18  and  C_19
REMARK    6  A    between atoms: C_22  and  C_23
REMARK    7  A    between atoms: C_23  and  C_24
REMARK    8  A    between atoms: C_24  and  N_25
REMARK                            x       y       z     vdW  Elec       q    Type
REMARK                         _______ _______ _______ _____ _____    ______ ____
ROOT
ATOM      1  C   UNL     1       0.698  15.258  21.210  0.00  0.00    +0.000 A 
ATOM      2  C   UNL     1       0.033  14.176  21.648  0.00  0.00    +0.000 A 
ATOM      3  N   UNL     1       0.106  12.888  21.130  0.00  0.00    +0.000 N 
ATOM      4  C   UNL     1       0.968  12.660  20.014  0.00  0.00    +0.000 A 
ATOM      5  N   UNL     1       1.080  11.443  19.457  0.00  0.00    +0.000 NA
ATOM      6  C   UNL     1       1.910  11.271  18.411  0.00  0.00    +0.000 A 
ATOM      7  N   UNL     1       2.044  10.010  17.837  0.00  0.00    +0.000 N 
ATOM      8  N   UNL     1       2.636  12.250  17.858  0.00  0.00    +0.000 NA
ATOM      9  C   UNL     1       2.525  13.462  18.426  0.00  0.00    +0.000 A 
ATOM     10  C   UNL     1       1.711  13.712  19.506  0.00  0.00    +0.000 A 
ATOM     11  C   UNL     1       1.604  15.056  20.063  0.00  0.00    +0.000 A 
ATOM     12  O   UNL     1       2.245  15.981  19.573  0.00  0.00    +0.000 OA
ATOM     13  H   UNL     1       2.789  10.066  17.151  0.00  0.00    +0.000 HD
ENDROOT
BRANCH   3  14
ATOM     14  C   UNL     1      -0.900  11.811  21.383  0.00  0.00    +0.000 C 
ATOM     15  C   UNL     1      -1.300  11.651  22.864  0.00  0.00    +0.000 C 
ATOM     16  C   UNL     1      -2.435  12.544  23.365  0.00  0.00    +0.000 C 
ATOM     17  C   UNL     1      -3.609  12.610  22.396  0.00  0.00    +0.000 C 
ATOM     18  C   UNL     1      -3.173  12.950  20.977  0.00  0.00    +0.000 C 
ATOM     19  C   UNL     1      -2.118  11.977  20.457  0.00  0.00    +0.000 C 
ENDBRANCH   3  14
BRANCH   7  20
ATOM     20  C   UNL     1       2.046   8.794  18.541  0.00  0.00    +0.000 A 
ATOM     21  C   UNL     1       1.572   8.785  19.853  0.00  0.00    +0.000 A 
ATOM     22  C   UNL     1       1.557   7.604  20.593  0.00  0.00    +0.000 A 
ATOM     23  C   UNL     1       1.967   6.394  20.020  0.00  0.00    +0.000 A 
ATOM     24  C   UNL     1       2.409   6.398  18.691  0.00  0.00    +0.000 A 
ATOM     25  C   UNL     1       2.438   7.584  17.959  0.00  0.00    +0.000 A 
BRANCH  23  26
ATOM     26  C   UNL     1       2.050   5.107  20.808  0.00  0.00    +0.000 C 
BRANCH  26  27
ATOM     27  C   UNL     1       3.168   4.143  20.372  0.00  0.00    +0.000 C 
BRANCH  27  28
ATOM     28  N   UNL     1       2.712   2.748  20.234  0.00  0.00    +0.000 NA
ATOM     29  C   UNL     1       3.222   2.149  18.989  0.00  0.00    +0.000 C 
ATOM     30  C   UNL     1       2.193   2.495  17.929  0.00  0.00    +0.000 C 
ATOM     31  C   UNL     1       0.878   2.451  18.680  0.00  0.00    +0.000 C 
ATOM     32  C   UNL     1       1.247   2.627  20.147  0.00  0.00    +0.000 C 
ENDBRANCH  27  28
ENDBRANCH  26  27
ENDBRANCH  23  26
ENDBRANCH   7  20
BRANCH   1  34
ATOM     33  N   UNL     1       1.617  17.170  22.309  0.00  0.00    +0.000 N 
ATOM     34  C   UNL     1       0.466  16.571  21.867  0.00  0.00    +0.000 C 
ATOM     35  O   UNL     1      -0.663  17.034  21.998  0.00  0.00    +0.000 OA
ATOM     36  H   UNL     1       2.541  16.854  22.013  0.00  0.00    +0.000 HD
BRANCH  33  38
ATOM     37  C   UNL     1       1.831  18.461  24.180  0.00  0.00    +0.000 C 
ATOM     38  O   UNL     1       1.520  18.490  22.789  0.00  0.00    +0.000 OA
ENDBRANCH  33  38
ENDBRANCH   1  34
TORSDOF 7
ENDMDL
MODEL 3
REMARK VINA RESULT:      -7.6      3.348      4.417
REMARK  Name = 
REMARK  8 active torsions:
REMARK  status: ('A' for Active; 'I' for Inactive)
REMARK    1  A    between atoms: C_1  and  O_2
REMARK    2  A    between atoms: O_2  and  N_3
REMARK    3  A    between atoms: C_4  and  C_6
REMARK    4  A    between atoms: N_8  and  C_9
REMARK    5  A    between atoms: N_18  and  C_19
REMARK    6  A    between atoms: C_22  and  C_23
REMARK    7  A    between atoms: C_23  and  C_24
REMARK    8  A    between atoms: C_24  and  N_25
REMARK                            x       y       z     vdW  Elec       q    Type
REMARK                         _______ _______ _______ _____ _____    ______ ____
ROOT
ATOM      1  C   UNL     1       0.631  15.311  21.413  0.00  0.00    +0.000 A 
ATOM      2  C   UNL     1      -0.044  14.229  21.837  0.00  0.00    +0.000 A 
ATOM      3  N   UNL     1       0.023  12.947  21.307  0.00  0.00    +0.000 N 
ATOM      4  C   UNL     1       0.890  12.723  20.194  0.00  0.00    +0.000 A 
ATOM      5  N   UNL     1       0.997  11.511  19.627  0.00  0.00    +0.000 NA
ATOM      6  C   UNL     1       1.833  11.343  18.584  0.00  0.00    +0.000 A 
ATOM      7  N   UNL     1       1.961  10.086  17.999  0.00  0.00    +0.000 N 
ATOM      8  N   UNL     1       2.570  12.321  18.045  0.00  0.00    +0.000 NA
ATOM      9  C   UNL     1       2.464  13.529  18.624  0.00  0.00    +0.000 A 
ATOM     10  C   UNL     1       1.644  13.774  19.701  0.00  0.00    +0.000 A 
ATOM     11  C   UNL     1       1.543  15.113  20.271  0.00  0.00    +0.000 A 
ATOM     12  O   UNL     1       2.194  16.039  19.794  0.00  0.00    +0.000 OA
ATOM     13  H   UNL     1       2.710  10.143  17.318  0.00  0.00    +0.000 HD
ENDROOT
BRANCH   3  14
ATOM     14  C   UNL     1      -0.992  11.874  21.544  0.00  0.00    +0.000 C 
ATOM     15  C   UNL     1      -1.450  11.746  23.010  0.00  0.00    +0.000 C 
ATOM     16  C   UNL     1      -2.604  12.649  23.447  0.00  0.00    +0.000 C 
ATOM     17  C   UNL     1      -3.739  12.693  22.432  0.00  0.00    +0.000 C 
ATOM     18  C   UNL     1      -3.248  13.003  21.024  0.00  0.00    +0.000 C 
ATOM     19  C   UNL     1      -2.173  12.020  20.567  0.00  0.00    +0.000 C 
ENDBRANCH   3  14
BRANCH   7  20
ATOM     20  C   UNL     1       1.949   8.864  18.691  0.00  0.00    +0.000 A 
ATOM     21  C   UNL     1       2.521   7.748  18.080  0.00  0.00    +0.000 A 
ATOM     22  C   UNL     1       2.530   6.513  18.725  0.00  0.00    +0.000 A 
ATOM     23  C   UNL     1       2.013   6.377  20.019  0.00  0.00    +0.000 A 
ATOM     24  C   UNL     1       1.472   7.506  20.646  0.00  0.00    +0.000 A 
ATOM     25  C   UNL     1       1.449   8.736  19.991  0.00  0.00    +0.000 A 
BRANCH  23  26
ATOM     26  C   UNL     1       1.923   5.042  20.723  0.00  0.00    +0.000 C 
BRANCH  26  27
ATOM     27  C   UNL     1       1.221   3.928  19.926  0.00  0.00    +0.000 C 
BRANCH  27  28
ATOM     28  N   UNL     1       1.963   2.654  19.930  0.00  0.00    +0.000 NA
ATOM     29  C   UNL     1       3.411   2.889  20.054  0.00  0.00    +0.000 C 
ATOM     30  C   UNL     1       3.910   3.071  18.632  0.00  0.00    +0.000 C 
ATOM     31  C   UNL     1       3.042   2.125  17.826  0.00  0.00    +0.000 C 
ATOM     32  C   UNL     1       1.802   1.891  18.680  0.00  0.00    +0.000 C 
ENDBRANCH  27  28
ENDBRANCH  26  27
ENDBRANCH  23  26
ENDBRANCH   7  20
BRANCH   1  34
ATOM     33  N   UNL     1       1.559  17.217  22.516  0.00  0.00    +0.000 N 
ATOM     34  C   UNL     1       0.405  16.619  22.082  0.00  0.00    +0.000 C 
ATOM     35  O   UNL     1      -0.724  17.080  22.228  0.00  0.00    +0.000 OA
ATOM     36  H   UNL     1       2.481  16.905  22.207  0.00  0.00    +0.000 HD
BRANCH  33  38
ATOM     37  C   UNL     1       1.751  18.490  24.401  0.00  0.00    +0.000 C 
ATOM     38  O   UNL     1       1.466  18.534  23.006  0.00  0.00    +0.000 OA
ENDBRANCH  33  38
ENDBRANCH   1  34
TORSDOF 7
ENDMDL
MODEL 4
REMARK VINA RESULT:      -7.5      1.314      1.686
REMARK  Name = 
REMARK  8 active torsions:
REMARK  status: ('A' for Active; 'I' for Inactive)
REMARK    1  A    between atoms: C_1  and  O_2
REMARK    2  A    between atoms: O_2  and  N_3
REMARK    3  A    between atoms: C_4  and  C_6
REMARK    4  A    between atoms: N_8  and  C_9
REMARK    5  A    between atoms: N_18  and  C_19
REMARK    6  A    between atoms: C_22  and  C_23
REMARK    7  A    between atoms: C_23  and  C_24
REMARK    8  A    between atoms: C_24  and  N_25
REMARK                            x       y       z     vdW  Elec       q    Type
REMARK                         _______ _______ _______ _____ _____    ______ ____
ROOT
ATOM      1  C   UNL     1      -2.981  12.535  21.322  0.00  0.00    +0.000 A 
ATOM      2  C   UNL     1      -2.531  12.179  20.107  0.00  0.00    +0.000 A 
ATOM      3  N   UNL     1      -1.488  11.305  19.829  0.00  0.00    +0.000 N 
ATOM      4  C   UNL     1      -0.801  10.706  20.929  0.00  0.00    +0.000 A 
ATOM      5  N   UNL     1       0.222   9.859  20.735  0.00  0.00    +0.000 NA
ATOM      6  C   UNL     1       0.837   9.311  21.801  0.00  0.00    +0.000 A 
ATOM      7  N   UNL     1       1.889   8.420  21.608  0.00  0.00    +0.000 N 
ATOM      8  N   UNL     1       0.508   9.568  23.072  0.00  0.00    +0.000 NA
ATOM      9  C   UNL     1      -0.522  10.409  23.258  0.00  0.00    +0.000 A 
ATOM     10  C   UNL     1      -1.209  10.995  22.220  0.00  0.00    +0.000 A 
ATOM     11  C   UNL     1      -2.300  11.927  22.481  0.00  0.00    +0.000 A 
ATOM     12  O   UNL     1      -2.620  12.197  23.635  0.00  0.00    +0.000 OA
ATOM     13  H   UNL     1       2.134   8.039  22.514  0.00  0.00    +0.000 HD
ENDROOT
BRANCH   3  14
ATOM     14  C   UNL     1      -0.776  11.219  18.516  0.00  0.00    +0.000 C 
ATOM     15  C   UNL     1      -0.758   9.808  17.895  0.00  0.00    +0.000 C 
ATOM     16  C   UNL     1      -1.962   9.425  17.034  0.00  0.00    +0.000 C 
ATOM     17  C   UNL     1      -2.380  10.533  16.076  0.00  0.00    +0.000 C 
ATOM     18  C   UNL     1      -2.558  11.873  16.777  0.00  0.00    +0.000 C 
ATOM     19  C   UNL     1      -1.303  12.287  17.541  0.00  0.00    +0.000 C 
ENDBRANCH   3  14
BRANCH   7  20
ATOM     20  C   UNL     1       1.966   7.466  20.579  0.00  0.00    +0.000 A 
ATOM     21  C   UNL     1       1.731   6.129  20.895  0.00  0.00    +0.000 A 
ATOM     22  C   UNL     1       1.799   5.145  19.909  0.00  0.00    +0.000 A 
ATOM     23  C   UNL     1       2.055   5.485  18.575  0.00  0.00    +0.000 A 
ATOM     24  C   UNL     1       2.256   6.832  18.253  0.00  0.00    +0.000 A 
ATOM     25  C   UNL     1       2.203   7.812  19.244  0.00  0.00    +0.000 A 
BRANCH  23  26
ATOM     26  C   UNL     1       2.225   4.446  17.490  0.00  0.00    +0.000 C 
BRANCH  26  27
ATOM     27  C   UNL     1       3.673   3.987  17.244  0.00  0.00    +0.000 C 
BRANCH  27  28
ATOM     28  N   UNL     1       4.566   5.081  16.819  0.00  0.00    +0.000 NA
ATOM     29  C   UNL     1       5.171   4.787  15.509  0.00  0.00    +0.000 C 
ATOM     30  C   UNL     1       6.430   4.000  15.818  0.00  0.00    +0.000 C 
ATOM     31  C   UNL     1       6.924   4.610  17.114  0.00  0.00    +0.000 C 
ATOM     32  C   UNL     1       5.704   5.282  17.732  0.00  0.00    +0.000 C 
ENDBRANCH  27  28
ENDBRANCH  26  27
ENDBRANCH  23  26
ENDBRANCH   7  20
BRANCH   1  34
ATOM     33  N   UNL     1      -5.331  12.964  21.242  0.00  0.00    +0.000 N 
ATOM     34  C   UNL     1      -4.091  13.518  21.429  0.00  0.00    +0.000 C 
ATOM     35  O   UNL     1      -3.878  14.707  21.648  0.00  0.00    +0.000 OA
ATOM     36  H   UNL     1      -5.482  11.954  21.258  0.00  0.00    +0.000 HD
BRANCH  33  38
ATOM     37  C   UNL     1      -6.845  13.555  22.845  0.00  0.00    +0.000 C 
ATOM     38  O   UNL     1      -6.452  13.777  21.494  0.00  0.00    +0.000 OA
ENDBRANCH  33  38
ENDBRANCH   1  34
TORSDOF 7
ENDMDL
MODEL 5
REMARK VINA RESULT:      -7.5      2.724      3.366
REMARK  Name = 
REMARK  8 active torsions:
REMARK  status: ('A' for Active; 'I' for Inactive)
REMARK    1  A    between atoms: C_1  and  O_2
REMARK    2  A    between atoms: O_2  and  N_3
REMARK    3  A    between atoms: C_4  and  C_6
REMARK    4  A    between atoms: N_8  and  C_9
REMARK    5  A    between atoms: N_18  and  C_19
REMARK    6  A    between atoms: C_22  and  C_23
REMARK    7  A    between atoms: C_23  and  C_24
REMARK    8  A    between atoms: C_24  and  N_25
REMARK                            x       y       z     vdW  Elec       q    Type
REMARK                         _______ _______ _______ _____ _____    ______ ____
ROOT
ATOM      1  C   UNL     1      -1.236  13.489  22.035  0.00  0.00    +0.000 A 
ATOM      2  C   UNL     1      -0.118  13.552  21.292  0.00  0.00    +0.000 A 
ATOM      3  N   UNL     1       0.710  12.492  20.944  0.00  0.00    +0.000 N 
ATOM      4  C   UNL     1       0.366  11.187  21.412  0.00  0.00    +0.000 A 
ATOM      5  N   UNL     1       1.126  10.119  21.122  0.00  0.00    +0.000 NA
ATOM      6  C   UNL     1       0.760   8.905  21.577  0.00  0.00    +0.000 A 
ATOM      7  N   UNL     1       1.534   7.791  21.268  0.00  0.00    +0.000 N 
ATOM      8  N   UNL     1      -0.323   8.681  22.331  0.00  0.00    +0.000 NA
ATOM      9  C   UNL     1      -1.083   9.752  22.610  0.00  0.00    +0.000 A 
ATOM     10  C   UNL     1      -0.782  11.020  22.168  0.00  0.00    +0.000 A 
ATOM     11  C   UNL     1      -1.626  12.154  22.527  0.00  0.00    +0.000 A 
ATOM     12  O   UNL     1      -2.620  11.987  23.230  0.00  0.00    +0.000 OA
ATOM     13  H   UNL     1       1.035   6.973  21.601  0.00  0.00    +0.000 HD
ENDROOT
BRANCH   3  14
ATOM     14  C   UNL     1       2.115  12.636  20.450  0.00  0.00    +0.000 C 
ATOM     15  C   UNL     1       2.250  12.629  18.914  0.00  0.00    +0.000 C 
ATOM     16  C   UNL     1       2.082  13.974  18.207  0.00  0.00    +0.000 C 
ATOM     17  C   UNL     1       2.826  15.106  18.902  0.00  0.00    +0.000 C 
ATOM     18  C   UNL     1       2.514  15.179  20.391  0.00  0.00    +0.000 C 
ATOM     19  C   UNL     1       2.796  13.855  21.097  0.00  0.00    +0.000 C 
ENDBRANCH   3  14
BRANCH   7  20
ATOM     20  C   UNL     1       2.184   7.568  20.043  0.00  0.00    +0.000 A 
ATOM     21  C   UNL     1       2.932   6.401  19.890  0.00  0.00    +0.000 A 
ATOM     22  C   UNL     1       3.598   6.138  18.693  0.00  0.00    +0.000 A 
ATOM     23  C   UNL     1       3.489   7.012  17.606  0.00  0.00    +0.000 A 
ATOM     24  C   UNL     1       2.708   8.166  17.749  0.00  0.00    +0.000 A 
ATOM     25  C   UNL     1       2.057   8.434  18.952  0.00  0.00    +0.000 A 
BRANCH  23  26
ATOM     26  C   UNL     1       4.261   6.813  16.321  0.00  0.00    +0.000 C 
BRANCH  26  27
ATOM     27  C   UNL     1       5.129   5.543  16.270  0.00  0.00    +0.000 C 
BRANCH  27  28
ATOM     28  N   UNL     1       6.573   5.828  16.177  0.00  0.00    +0.000 NA
ATOM     29  C   UNL     1       7.367   4.643  16.538  0.00  0.00    +0.000 C 
ATOM     30  C   UNL     1       7.541   4.722  18.043  0.00  0.00    +0.000 C 
ATOM     31  C   UNL     1       7.651   6.209  18.312  0.00  0.00    +0.000 C 
ATOM     32  C   UNL     1       7.012   6.884  17.105  0.00  0.00    +0.000 C 
ENDBRANCH  27  28
ENDBRANCH  26  27
ENDBRANCH  23  26
ENDBRANCH   7  20
BRANCH   1  34
ATOM     33  N   UNL     1      -3.341  14.592  22.279  0.00  0.00    +0.000 N 
ATOM     34  C   UNL     1      -1.980  14.739  22.338  0.00  0.00    +0.000 C 
ATOM     35  O   UNL     1      -1.397  15.788  22.597  0.00  0.00    +0.000 OA
ATOM     36  H   UNL     1      -3.787  13.673  22.256  0.00  0.00    +0.000 HD
BRANCH  33  38
ATOM     37  C   UNL     1      -4.478  15.422  24.077  0.00  0.00    +0.000 C 
ATOM     38  O   UNL     1      -4.133  15.670  22.717  0.00  0.00    +0.000 OA
ENDBRANCH  33  38
ENDBRANCH   1  34
TORSDOF 7
ENDMDL
MODEL 6
REMARK VINA RESULT:      -7.4      1.048      1.724
REMARK  Name = 
REMARK  8 active torsions:
REMARK  status: ('A' for Active; 'I' for Inactive)
REMARK    1  A    between atoms: C_1  and  O_2
REMARK    2  A    between atoms: O_2  and  N_3
REMARK    3  A    between atoms: C_4  and  C_6
REMARK    4  A    between atoms: N_8  and  C_9
REMARK    5  A    between atoms: N_18  and  C_19
REMARK    6  A    between atoms: C_22  and  C_23
REMARK    7  A    between atoms: C_23  and  C_24
REMARK    8  A    between atoms: C_24  and  N_25
REMARK                            x       y       z     vdW  Elec       q    Type
REMARK                         _______ _______ _______ _____ _____    ______ ____
ROOT
ATOM      1  C   UNL     1      -2.767  12.667  21.559  0.00  0.00    +0.000 A 
ATOM      2  C   UNL     1      -2.267  12.379  20.345  0.00  0.00    +0.000 A 
ATOM      3  N   UNL     1      -1.271  11.457  20.053  0.00  0.00    +0.000 N 
ATOM      4  C   UNL     1      -0.694  10.724  21.134  0.00  0.00    +0.000 A 
ATOM      5  N   UNL     1       0.280   9.824  20.926  0.00  0.00    +0.000 NA
ATOM      6  C   UNL     1       0.790   9.149  21.974  0.00  0.00    +0.000 A 
ATOM      7  N   UNL     1       1.790   8.203  21.765  0.00  0.00    +0.000 N 
ATOM      8  N   UNL     1       0.401   9.325  23.242  0.00  0.00    +0.000 NA
ATOM      9  C   UNL     1      -0.580  10.220  23.442  0.00  0.00    +0.000 A 
ATOM     10  C   UNL     1      -1.160  10.936  22.421  0.00  0.00    +0.000 A 
ATOM     11  C   UNL     1      -2.200  11.920  22.698  0.00  0.00    +0.000 A 
ATOM     12  O   UNL     1      -2.572  12.118  23.852  0.00  0.00    +0.000 OA
ATOM     13  H   UNL     1       1.952   7.733  22.649  0.00  0.00    +0.000 HD
ENDROOT
BRANCH   3  14
ATOM     14  C   UNL     1      -0.486  11.426  18.779  0.00  0.00    +0.000 C 
ATOM     15  C   UNL     1      -0.819  12.571  17.801  0.00  0.00    +0.000 C 
ATOM     16  C   UNL     1      -0.057  13.882  17.999  0.00  0.00    +0.000 C 
ATOM     17  C   UNL     1       1.432  13.671  18.242  0.00  0.00    +0.000 C 
ATOM     18  C   UNL     1       1.703  12.658  19.346  0.00  0.00    +0.000 C 
ATOM     19  C   UNL     1       1.021  11.320  19.072  0.00  0.00    +0.000 C 
ENDBRANCH   3  14
BRANCH   7  20
ATOM     20  C   UNL     1       1.866   7.332  20.665  0.00  0.00    +0.000 A 
ATOM     21  C   UNL     1       1.492   6.001  20.845  0.00  0.00    +0.000 A 
ATOM     22  C   UNL     1       1.554   5.098  19.784  0.00  0.00    +0.000 A 
ATOM     23  C   UNL     1       1.943   5.519  18.507  0.00  0.00    +0.000 A 
ATOM     24  C   UNL     1       2.283   6.864  18.320  0.00  0.00    +0.000 A 
ATOM     25  C   UNL     1       2.236   7.761  19.386  0.00  0.00    +0.000 A 
BRANCH  23  26
ATOM     26  C   UNL     1       2.108   4.561  17.350  0.00  0.00    +0.000 C 
BRANCH  26  27
ATOM     27  C   UNL     1       2.149   3.071  17.735  0.00  0.00    +0.000 C 
BRANCH  27  28
ATOM     28  N   UNL     1       3.508   2.500  17.711  0.00  0.00    +0.000 NA
ATOM     29  C   UNL     1       3.793   1.768  18.956  0.00  0.00    +0.000 C 
ATOM     30  C   UNL     1       4.344   2.807  19.914  0.00  0.00    +0.000 C 
ATOM     31  C   UNL     1       5.129   3.740  19.014  0.00  0.00    +0.000 C 
ATOM     32  C   UNL     1       4.561   3.526  17.618  0.00  0.00    +0.000 C 
ENDBRANCH  27  28
ENDBRANCH  26  27
ENDBRANCH  23  26
ENDBRANCH   7  20
BRANCH   1  34
ATOM     33  N   UNL     1      -4.965  13.267  22.278  0.00  0.00    +0.000 N 
ATOM     34  C   UNL     1      -3.813  13.715  21.687  0.00  0.00    +0.000 C 
ATOM     35  O   UNL     1      -3.632  14.858  21.276  0.00  0.00    +0.000 OA
ATOM     36  H   UNL     1      -5.008  12.377  22.778  0.00  0.00    +0.000 HD
BRANCH  33  38
ATOM     37  C   UNL     1      -6.634  13.757  23.756  0.00  0.00    +0.000 C 
ATOM     38  O   UNL     1      -5.946  14.224  22.599  0.00  0.00    +0.000 OA
ENDBRANCH  33  38
ENDBRANCH   1  34
TORSDOF 7
ENDMDL
MODEL 7
REMARK VINA RESULT:      -7.3      3.200      3.844
REMARK  Name = 
REMARK  8 active torsions:
REMARK  status: ('A' for Active; 'I' for Inactive)
REMARK    1  A    between atoms: C_1  and  O_2
REMARK    2  A    between atoms: O_2  and  N_3
REMARK    3  A    between atoms: C_4  and  C_6
REMARK    4  A    between atoms: N_8  and  C_9
REMARK    5  A    between atoms: N_18  and  C_19
REMARK    6  A    between atoms: C_22  and  C_23
REMARK    7  A    between atoms: C_23  and  C_24
REMARK    8  A    between atoms: C_24  and  N_25
REMARK                            x       y       z     vdW  Elec       q    Type
REMARK                         _______ _______ _______ _____ _____    ______ ____
ROOT
ATOM      1  C   UNL     1      -0.982  14.704  21.048  0.00  0.00    +0.000 A 
ATOM      2  C   UNL     1       0.140  14.408  20.372  0.00  0.00    +0.000 A 
ATOM      3  N   UNL     1       0.801  13.186  20.353  0.00  0.00    +0.000 N 
ATOM      4  C   UNL     1       0.257  12.114  21.125  0.00  0.00    +0.000 A 
ATOM      5  N   UNL     1       0.849  10.909  21.160  0.00  0.00    +0.000 NA
ATOM      6  C   UNL     1       0.297   9.925  21.894  0.00  0.00    +0.000 A 
ATOM      7  N   UNL     1       0.896   8.668  21.924  0.00  0.00    +0.000 N 
ATOM      8  N   UNL     1      -0.815  10.065  22.625  0.00  0.00    +0.000 NA
ATOM      9  C   UNL     1      -1.406  11.270  22.578  0.00  0.00    +0.000 A 
ATOM     10  C   UNL     1      -0.911  12.319  21.838  0.00  0.00    +0.000 A 
ATOM     11  C   UNL     1      -1.577  13.617  21.849  0.00  0.00    +0.000 A 
ATOM     12  O   UNL     1      -2.592  13.786  22.519  0.00  0.00    +0.000 OA
ATOM     13  H   UNL     1       0.275   8.048  22.431  0.00  0.00    +0.000 HD
ENDROOT
BRANCH   3  14
ATOM     14  C   UNL     1       2.217  12.991  19.910  0.00  0.00    +0.000 C 
ATOM     15  C   UNL     1       2.456  13.265  18.412  0.00  0.00    +0.000 C 
ATOM     16  C   UNL     1       2.750  14.714  18.020  0.00  0.00    +0.000 C 
ATOM     17  C   UNL     1       3.746  15.389  18.954  0.00  0.00    +0.000 C 
ATOM     18  C   UNL     1       3.362  15.240  20.420  0.00  0.00    +0.000 C 
ATOM     19  C   UNL     1       3.182  13.777  20.816  0.00  0.00    +0.000 C 
ENDBRANCH   3  14
BRANCH   7  20
ATOM     20  C   UNL     1       1.519   8.040  20.833  0.00  0.00    +0.000 A 
ATOM     21  C   UNL     1       1.828   6.684  20.935  0.00  0.00    +0.000 A 
ATOM     22  C   UNL     1       2.449   6.017  19.880  0.00  0.00    +0.000 A 
ATOM     23  C   UNL     1       2.728   6.680  18.679  0.00  0.00    +0.000 A 
ATOM     24  C   UNL     1       2.385   8.032  18.565  0.00  0.00    +0.000 A 
ATOM     25  C   UNL     1       1.778   8.701  19.628  0.00  0.00    +0.000 A 
BRANCH  23  26
ATOM     26  C   UNL     1       3.478   6.023  17.542  0.00  0.00    +0.000 C 
BRANCH  26  27
ATOM     27  C   UNL     1       4.616   5.079  17.968  0.00  0.00    +0.000 C 
BRANCH  27  28
ATOM     28  N   UNL     1       5.804   5.169  17.099  0.00  0.00    +0.000 NA
ATOM     29  C   UNL     1       7.011   4.715  17.808  0.00  0.00    +0.000 C 
ATOM     30  C   UNL     1       7.546   5.946  18.515  0.00  0.00    +0.000 C 
ATOM     31  C   UNL     1       7.227   7.075  17.556  0.00  0.00    +0.000 C 
ATOM     32  C   UNL     1       6.102   6.548  16.675  0.00  0.00    +0.000 C 
ENDBRANCH  27  28
ENDBRANCH  26  27
ENDBRANCH  23  26
ENDBRANCH   7  20
BRANCH   1  34
ATOM     33  N   UNL     1      -1.960  16.439  19.727  0.00  0.00    +0.000 N 
ATOM     34  C   UNL     1      -1.531  16.084  20.979  0.00  0.00    +0.000 C 
ATOM     35  O   UNL     1      -1.567  16.812  21.967  0.00  0.00    +0.000 OA
ATOM     36  H   UNL     1      -2.095  15.751  18.984  0.00  0.00    +0.000 HD
BRANCH  33  38
ATOM     37  C   UNL     1      -1.988  18.418  18.590  0.00  0.00    +0.000 C 
ATOM     38  O   UNL     1      -2.651  17.658  19.596  0.00  0.00    +0.000 OA
ENDBRANCH  33  38
ENDBRANCH   1  34
TORSDOF 7
ENDMDL
MODEL 8
REMARK VINA RESULT:      -7.2      5.700      7.255
REMARK  Name = 
REMARK  8 active torsions:
REMARK  status: ('A' for Active; 'I' for Inactive)
REMARK    1  A    between atoms: C_1  and  O_2
REMARK    2  A    between atoms: O_2  and  N_3
REMARK    3  A    between atoms: C_4  and  C_6
REMARK    4  A    between atoms: N_8  and  C_9
REMARK    5  A    between atoms: N_18  and  C_19
REMARK    6  A    between atoms: C_22  and  C_23
REMARK    7  A    between atoms: C_23  and  C_24
REMARK    8  A    between atoms: C_24  and  N_25
REMARK                            x       y       z     vdW  Elec       q    Type
REMARK                         _______ _______ _______ _____ _____    ______ ____
ROOT
ATOM      1  C   UNL     1      -1.365  12.832  22.682  0.00  0.00    +0.000 A 
ATOM      2  C   UNL     1      -0.783  12.318  21.586  0.00  0.00    +0.000 A 
ATOM      3  N   UNL     1       0.214  12.909  20.819  0.00  0.00    +0.000 N 
ATOM      4  C   UNL     1       0.688  14.199  21.209  0.00  0.00    +0.000 A 
ATOM      5  N   UNL     1       1.642  14.833  20.508  0.00  0.00    +0.000 NA
ATOM      6  C   UNL     1       2.065  16.045  20.916  0.00  0.00    +0.000 A 
ATOM      7  N   UNL     1       3.064  16.702  20.204  0.00  0.00    +0.000 N 
ATOM      8  N   UNL     1       1.581  16.689  21.984  0.00  0.00    +0.000 NA
ATOM      9  C   UNL     1       0.633  16.045  22.685  0.00  0.00    +0.000 A 
ATOM     10  C   UNL     1       0.161  14.800  22.340  0.00  0.00    +0.000 A 
ATOM     11  C   UNL     1      -0.893  14.160  23.119  0.00  0.00    +0.000 A 
ATOM     12  O   UNL     1      -1.370  14.728  24.097  0.00  0.00    +0.000 OA
ATOM     13  H   UNL     1       3.316  17.531  20.730  0.00  0.00    +0.000 HD
ENDROOT
BRANCH   3  14
ATOM     14  C   UNL     1       0.570  12.500  19.425  0.00  0.00    +0.000 C 
ATOM     15  C   UNL     1       0.951  11.013  19.278  0.00  0.00    +0.000 C 
ATOM     16  C   UNL     1      -0.199  10.031  19.053  0.00  0.00    +0.000 C 
ATOM     17  C   UNL     1      -1.210  10.529  18.028  0.00  0.00    +0.000 C 
ATOM     18  C   UNL     1      -1.690  11.944  18.324  0.00  0.00    +0.000 C 
ATOM     19  C   UNL     1      -0.529  12.928  18.436  0.00  0.00    +0.000 C 
ENDBRANCH   3  14
BRANCH   7  20
ATOM     20  C   UNL     1       4.173  16.083  19.603  0.00  0.00    +0.000 A 
ATOM     21  C   UNL     1       5.306  15.849  20.381  0.00  0.00    +0.000 A 
ATOM     22  C   UNL     1       6.432  15.241  19.827  0.00  0.00    +0.000 A 
ATOM     23  C   UNL     1       6.431  14.808  18.496  0.00  0.00    +0.000 A 
ATOM     24  C   UNL     1       5.279  15.011  17.727  0.00  0.00    +0.000 A 
ATOM     25  C   UNL     1       4.161  15.634  18.278  0.00  0.00    +0.000 A 
BRANCH  23  26
ATOM     26  C   UNL     1       7.656  14.224  17.830  0.00  0.00    +0.000 C 
BRANCH  26  27
ATOM     27  C   UNL     1       8.913  14.157  18.715  0.00  0.00    +0.000 C 
BRANCH  27  28
ATOM     28  N   UNL     1       9.194  12.803  19.227  0.00  0.00    +0.000 NA
ATOM     29  C   UNL     1      10.556  12.720  19.778  0.00  0.00    +0.000 C 
ATOM     30  C   UNL     1      11.442  12.361  18.600  0.00  0.00    +0.000 C 
ATOM     31  C   UNL     1      10.568  11.451  17.761  0.00  0.00    +0.000 C 
ATOM     32  C   UNL     1       9.139  11.769  18.179  0.00  0.00    +0.000 C 
ENDBRANCH  27  28
ENDBRANCH  26  27
ENDBRANCH  23  26
ENDBRANCH   7  20
BRANCH   1  34
ATOM     33  N   UNL     1      -3.490  12.854  23.776  0.00  0.00    +0.000 N 
ATOM     34  C   UNL     1      -2.446  12.069  23.358  0.00  0.00    +0.000 C 
ATOM     35  O   UNL     1      -2.370  10.855  23.524  0.00  0.00    +0.000 OA
ATOM     36  H   UNL     1      -3.609  13.815  23.452  0.00  0.00    +0.000 HD
BRANCH  33  38
ATOM     37  C   UNL     1      -5.768  12.968  23.867  0.00  0.00    +0.000 C 
ATOM     38  O   UNL     1      -4.635  12.204  24.272  0.00  0.00    +0.000 OA
ENDBRANCH  33  38
ENDBRANCH   1  34
TORSDOF 7
ENDMDL
MODEL 9
REMARK VINA RESULT:      -7.1      3.470      4.344
REMARK  Name = 
REMARK  8 active torsions:
REMARK  status: ('A' for Active; 'I' for Inactive)
REMARK    1  A    between atoms: C_1  and  O_2
REMARK    2  A    between atoms: O_2  and  N_3
REMARK    3  A    between atoms: C_4  and  C_6
REMARK    4  A    between atoms: N_8  and  C_9
REMARK    5  A    between atoms: N_18  and  C_19
REMARK    6  A    between atoms: C_22  and  C_23
REMARK    7  A    between atoms: C_23  and  C_24
REMARK    8  A    between atoms: C_24  and  N_25
REMARK                            x       y       z     vdW  Elec       q    Type
REMARK                         _______ _______ _______ _____ _____    ______ ____
ROOT
ATOM      1  C   UNL     1      -0.672  15.377  19.985  0.00  0.00    +0.000 A 
ATOM      2  C   UNL     1       0.530  14.982  19.534  0.00  0.00    +0.000 A 
ATOM      3  N   UNL     1       1.086  13.714  19.649  0.00  0.00    +0.000 N 
ATOM      4  C   UNL     1       0.326  12.704  20.315  0.00  0.00    +0.000 A 
ATOM      5  N   UNL     1       0.805  11.459  20.471  0.00  0.00    +0.000 NA
ATOM      6  C   UNL     1       0.052  10.536  21.098  0.00  0.00    +0.000 A 
ATOM      7  N   UNL     1       0.536   9.240  21.251  0.00  0.00    +0.000 N 
ATOM      8  N   UNL     1      -1.162  10.776  21.606  0.00  0.00    +0.000 NA
ATOM      9  C   UNL     1      -1.639  12.020  21.439  0.00  0.00    +0.000 A 
ATOM     10  C   UNL     1      -0.935  13.012  20.796  0.00  0.00    +0.000 A 
ATOM     11  C   UNL     1      -1.488  14.356  20.670  0.00  0.00    +0.000 A 
ATOM     12  O   UNL     1      -2.594  14.616  21.137  0.00  0.00    +0.000 OA
ATOM     13  H   UNL     1      -0.216   8.679  21.638  0.00  0.00    +0.000 HD
ENDROOT
BRANCH   3  14
ATOM     14  C   UNL     1       2.539  13.404  19.481  0.00  0.00    +0.000 C 
ATOM     15  C   UNL     1       3.090  13.690  18.070  0.00  0.00    +0.000 C 
ATOM     16  C   UNL     1       3.574  15.116  17.802  0.00  0.00    +0.000 C 
ATOM     17  C   UNL     1       4.420  15.677  18.938  0.00  0.00    +0.000 C 
ATOM     18  C   UNL     1       3.745  15.528  20.294  0.00  0.00    +0.000 C 
ATOM     19  C   UNL     1       3.370  14.078  20.588  0.00  0.00    +0.000 C 
ENDBRANCH   3  14
BRANCH   7  20
ATOM     20  C   UNL     1       1.299   8.541  20.301  0.00  0.00    +0.000 A 
ATOM     21  C   UNL     1       1.520   9.135  19.059  0.00  0.00    +0.000 A 
ATOM     22  C   UNL     1       2.269   8.479  18.083  0.00  0.00    +0.000 A 
ATOM     23  C   UNL     1       2.857   7.236  18.346  0.00  0.00    +0.000 A 
ATOM     24  C   UNL     1       2.665   6.657  19.606  0.00  0.00    +0.000 A 
ATOM     25  C   UNL     1       1.902   7.308  20.575  0.00  0.00    +0.000 A 
BRANCH  23  26
ATOM     26  C   UNL     1       3.603   6.450  17.292  0.00  0.00    +0.000 C 
BRANCH  26  27
ATOM     27  C   UNL     1       5.113   6.292  17.541  0.00  0.00    +0.000 C 
BRANCH  27  28
ATOM     28  N   UNL     1       5.585   4.902  17.396  0.00  0.00    +0.000 NA
ATOM     29  C   UNL     1       6.997   4.866  16.980  0.00  0.00    +0.000 C 
ATOM     30  C   UNL     1       6.969   4.919  15.465  0.00  0.00    +0.000 C 
ATOM     31  C   UNL     1       5.724   4.134  15.103  0.00  0.00    +0.000 C 
ATOM     32  C   UNL     1       4.858   4.153  16.356  0.00  0.00    +0.000 C 
ENDBRANCH  27  28
ENDBRANCH  26  27
ENDBRANCH  23  26
ENDBRANCH   7  20
BRANCH   1  34
ATOM     33  N   UNL     1      -2.415  16.932  19.478  0.00  0.00    +0.000 N 
ATOM     34  C   UNL     1      -1.090  16.792  19.802  0.00  0.00    +0.000 C 
ATOM     35  O   UNL     1      -0.294  17.718  19.922  0.00  0.00    +0.000 OA
ATOM     36  H   UNL     1      -3.082  16.166  19.579  0.00  0.00    +0.000 HD
BRANCH  33  38
ATOM     37  C   UNL     1      -4.275  18.146  18.954  0.00  0.00    +0.000 C 
ATOM     38  O   UNL     1      -2.944  18.236  19.453  0.00  0.00    +0.000 OA
ENDBRANCH  33  38
ENDBRANCH   1  34
TORSDOF 7
ENDMDL
