MODEL 1
REMARK VINA RESULT:      -8.4      0.000      0.000
REMARK  Name = 
REMARK  6 active torsions:
REMARK  status: ('A' for Active; 'I' for Inactive)
REMARK    1  A    between atoms: C_1  and  C_2
REMARK    2  A    between atoms: C_6  and  C_7
REMARK    3  A    between atoms: N_9  and  C_10
REMARK    4  A    between atoms: C_15  and  N_16
REMARK    5  A    between atoms: C_17  and  C_19
REMARK    6  A    between atoms: C_23  and  C_24
REMARK                            x       y       z     vdW  Elec       q    Type
REMARK                         _______ _______ _______ _____ _____    ______ ____
ROOT
ATOM      1  C   UNL     1       5.080   6.164  16.996  0.00  0.00    +0.000 A 
ATOM      2  C   UNL     1       4.493   4.932  16.658  0.00  0.00    +0.000 A 
ATOM      3  C   UNL     1       5.230   3.928  16.031  0.00  0.00    +0.000 A 
ATOM      4  C   UNL     1       6.558   4.163  15.692  0.00  0.00    +0.000 A 
ATOM      5  C   UNL     1       7.146   5.391  15.998  0.00  0.00    +0.000 A 
ATOM      6  C   UNL     1       6.439   6.401  16.669  0.00  0.00    +0.000 A 
ENDROOT
BRANCH   1   9
ATOM      7  C   UNL     1       3.374   6.837  18.677  0.00  0.00    +0.000 C 
ATOM      8  O   UNL     1       3.447   5.820  19.363  0.00  0.00    +0.000 OA
ATOM      9  N   UNL     1       4.182   7.094  17.589  0.00  0.00    +0.000 N 
ATOM     10  H   UNL     1       3.879   7.827  16.968  0.00  0.00    +0.000 HD
BRANCH   7  16
ATOM     11  C   UNL     1       0.084   9.161  21.815  0.00  0.00    +0.000 C 
ATOM     12  C   UNL     1       0.703   8.976  20.458  0.00  0.00    +0.000 A 
ATOM     13  C   UNL     1       0.334   9.814  19.403  0.00  0.00    +0.000 A 
ATOM     14  C   UNL     1       0.926   9.673  18.151  0.00  0.00    +0.000 A 
ATOM     15  C   UNL     1       1.906   8.698  17.951  0.00  0.00    +0.000 A 
ATOM     16  C   UNL     1       2.303   7.844  18.989  0.00  0.00    +0.000 A 
ATOM     17  C   UNL     1       1.687   7.990  20.250  0.00  0.00    +0.000 A 
ENDBRANCH   7  16
ENDBRANCH   1   9
BRANCH   6  18
ATOM     18  N   UNL     1       7.069   7.628  16.990  0.00  0.00    +0.000 N 
ATOM     19  C   UNL     1       7.917   7.883  18.053  0.00  0.00    +0.000 C 
ATOM     20  O   UNL     1       8.388   7.054  18.822  0.00  0.00    +0.000 OA
ATOM     21  H   UNL     1       6.841   8.392  16.354  0.00  0.00    +0.000 HD
BRANCH  19  22
ATOM     22  C   UNL     1       8.355   9.302  18.224  0.00  0.00    +0.000 A 
ATOM     23  C   UNL     1       7.793  10.265  17.368  0.00  0.00    +0.000 A 
ATOM     24  C   UNL     1       8.154  11.607  17.483  0.00  0.00    +0.000 A 
ATOM     25  C   UNL     1       9.081  11.996  18.448  0.00  0.00    +0.000 A 
ATOM     26  C   UNL     1       9.666  11.047  19.295  0.00  0.00    +0.000 A 
ATOM     27  C   UNL     1      10.667  11.460  20.334  0.00  0.00    +0.000 C 
ATOM     28  C   UNL     1       9.310   9.693  19.167  0.00  0.00    +0.000 A 
ENDBRANCH  19  22
ENDBRANCH   6  18
TORSDOF 4
ENDMDL
MODEL 2
REMARK VINA RESULT:      -8.3      0.308      1.326
REMARK  Name = 
REMARK  6 active torsions:
REMARK  status: ('A' for Active; 'I' for Inactive)
REMARK    1  A    between atoms: C_1  and  C_2
REMARK    2  A    between atoms: C_6  and  C_7
REMARK    3  A    between atoms: N_9  and  C_10
REMARK    4  A    between atoms: C_15  and  N_16
REMARK    5  A    between atoms: C_17  and  C_19
REMARK    6  A    between atoms: C_23  and  C_24
REMARK                            x       y       z     vdW  Elec       q    Type
REMARK                         _______ _______ _______ _____ _____    ______ ____
ROOT
ATOM      1  C   UNL     1       5.073   6.205  16.968  0.00  0.00    +0.000 A 
ATOM      2  C   UNL     1       4.479   4.983  16.605  0.00  0.00    +0.000 A 
ATOM      3  C   UNL     1       5.209   3.990  15.953  0.00  0.00    +0.000 A 
ATOM      4  C   UNL     1       6.537   4.227  15.615  0.00  0.00    +0.000 A 
ATOM      5  C   UNL     1       7.132   5.445  15.946  0.00  0.00    +0.000 A 
ATOM      6  C   UNL     1       6.432   6.443  16.642  0.00  0.00    +0.000 A 
ENDROOT
BRANCH   1   9
ATOM      7  C   UNL     1       3.306   6.822  18.608  0.00  0.00    +0.000 C 
ATOM      8  O   UNL     1       3.303   5.754  19.217  0.00  0.00    +0.000 OA
ATOM      9  N   UNL     1       4.181   7.125  17.585  0.00  0.00    +0.000 N 
ATOM     10  H   UNL     1       3.940   7.915  17.007  0.00  0.00    +0.000 HD
BRANCH   7  16
ATOM     11  C   UNL     1       0.181   9.256  21.829  0.00  0.00    +0.000 C 
ATOM     12  C   UNL     1       0.737   9.031  20.451  0.00  0.00    +0.000 A 
ATOM     13  C   UNL     1       0.329   9.848  19.393  0.00  0.00    +0.000 A 
ATOM     14  C   UNL     1       0.863   9.670  18.120  0.00  0.00    +0.000 A 
ATOM     15  C   UNL     1       1.824   8.680  17.901  0.00  0.00    +0.000 A 
ATOM     16  C   UNL     1       2.260   7.847  18.942  0.00  0.00    +0.000 A 
ATOM     17  C   UNL     1       1.701   8.031  20.225  0.00  0.00    +0.000 A 
ENDBRANCH   7  16
ENDBRANCH   1   9
BRANCH   6  18
ATOM     18  N   UNL     1       7.068   7.660  16.988  0.00  0.00    +0.000 N 
ATOM     19  C   UNL     1       7.911   7.891  18.061  0.00  0.00    +0.000 C 
ATOM     20  O   UNL     1       8.370   7.046  18.818  0.00  0.00    +0.000 OA
ATOM     21  H   UNL     1       6.849   8.436  16.364  0.00  0.00    +0.000 HD
BRANCH  19  22
ATOM     22  C   UNL     1       8.357   9.303  18.258  0.00  0.00    +0.000 A 
ATOM     23  C   UNL     1       9.349   9.545  19.225  0.00  0.00    +0.000 A 
ATOM     24  C   UNL     1       9.813  10.841  19.450  0.00  0.00    +0.000 A 
ATOM     25  C   UNL     1       9.289  11.903  18.715  0.00  0.00    +0.000 A 
ATOM     26  C   UNL     1       8.286  11.683  17.763  0.00  0.00    +0.000 A 
ATOM     27  C   UNL     1       7.716  12.824  16.972  0.00  0.00    +0.000 C 
ATOM     28  C   UNL     1       7.811  10.377  17.549  0.00  0.00    +0.000 A 
ENDBRANCH  19  22
ENDBRANCH   6  18
TORSDOF 4
ENDMDL
MODEL 3
REMARK VINA RESULT:      -8.3      0.518      6.388
REMARK  Name = 
REMARK  6 active torsions:
REMARK  status: ('A' for Active; 'I' for Inactive)
REMARK    1  A    between atoms: C_1  and  C_2
REMARK    2  A    between atoms: C_6  and  C_7
REMARK    3  A    between atoms: N_9  and  C_10
REMARK    4  A    between atoms: C_15  and  N_16
REMARK    5  A    between atoms: C_17  and  C_19
REMARK    6  A    between atoms: C_23  and  C_24
REMARK                            x       y       z     vdW  Elec       q    Type
REMARK                         _______ _______ _______ _____ _____    ______ ____
ROOT
ATOM      1  C   UNL     1       6.340   6.314  16.570  0.00  0.00    +0.000 A 
ATOM      2  C   UNL     1       7.126   5.339  15.930  0.00  0.00    +0.000 A 
ATOM      3  C   UNL     1       6.612   4.080  15.627  0.00  0.00    +0.000 A 
ATOM      4  C   UNL     1       5.311   3.762  16.003  0.00  0.00    +0.000 A 
ATOM      5  C   UNL     1       4.528   4.710  16.663  0.00  0.00    +0.000 A 
ATOM      6  C   UNL     1       5.007   6.000  16.939  0.00  0.00    +0.000 A 
ENDROOT
BRANCH   1   9
ATOM      7  C   UNL     1       7.865   7.742  17.920  0.00  0.00    +0.000 C 
ATOM      8  O   UNL     1       8.245   6.857  18.683  0.00  0.00    +0.000 OA
ATOM      9  N   UNL     1       7.027   7.528  16.846  0.00  0.00    +0.000 N 
ATOM     10  H   UNL     1       6.595   8.345  16.443  0.00  0.00    +0.000 HD
BRANCH   7  16
ATOM     11  C   UNL     1       7.720  12.774  17.073  0.00  0.00    +0.000 C 
ATOM     12  C   UNL     1       8.251  11.578  17.812  0.00  0.00    +0.000 A 
ATOM     13  C   UNL     1       9.144  11.753  18.872  0.00  0.00    +0.000 A 
ATOM     14  C   UNL     1       9.615  10.655  19.584  0.00  0.00    +0.000 A 
ATOM     15  C   UNL     1       9.181   9.370  19.249  0.00  0.00    +0.000 A 
ATOM     16  C   UNL     1       8.281   9.160  18.194  0.00  0.00    +0.000 A 
ATOM     17  C   UNL     1       7.821  10.282  17.473  0.00  0.00    +0.000 A 
ENDBRANCH   7  16
ENDBRANCH   1   9
BRANCH   6  18
ATOM     18  N   UNL     1       4.181   6.951  17.587  0.00  0.00    +0.000 N 
ATOM     19  C   UNL     1       2.993   6.713  18.255  0.00  0.00    +0.000 C 
ATOM     20  O   UNL     1       2.520   5.617  18.529  0.00  0.00    +0.000 OA
ATOM     21  H   UNL     1       4.522   7.910  17.523  0.00  0.00    +0.000 HD
BRANCH  19  22
ATOM     22  C   UNL     1       2.263   7.918  18.753  0.00  0.00    +0.000 A 
ATOM     23  C   UNL     1       2.111   9.001  17.869  0.00  0.00    +0.000 A 
ATOM     24  C   UNL     1       1.432  10.151  18.272  0.00  0.00    +0.000 A 
ATOM     25  C   UNL     1       0.904  10.229  19.559  0.00  0.00    +0.000 A 
ATOM     26  C   UNL     1       1.064   9.169  20.459  0.00  0.00    +0.000 A 
ATOM     27  C   UNL     1       0.500   9.251  21.848  0.00  0.00    +0.000 C 
ATOM     28  C   UNL     1       1.761   8.018  20.054  0.00  0.00    +0.000 A 
ENDBRANCH  19  22
ENDBRANCH   6  18
TORSDOF 4
ENDMDL
MODEL 4
REMARK VINA RESULT:      -8.2      0.312      6.370
REMARK  Name = 
REMARK  6 active torsions:
REMARK  status: ('A' for Active; 'I' for Inactive)
REMARK    1  A    between atoms: C_1  and  C_2
REMARK    2  A    between atoms: C_6  and  C_7
REMARK    3  A    between atoms: N_9  and  C_10
REMARK    4  A    between atoms: C_15  and  N_16
REMARK    5  A    between atoms: C_17  and  C_19
REMARK    6  A    between atoms: C_23  and  C_24
REMARK                            x       y       z     vdW  Elec       q    Type
REMARK                         _______ _______ _______ _____ _____    ______ ____
ROOT
ATOM      1  C   UNL     1       6.402   6.325  16.575  0.00  0.00    +0.000 A 
ATOM      2  C   UNL     1       7.216   5.356  15.963  0.00  0.00    +0.000 A 
ATOM      3  C   UNL     1       6.728   4.085  15.666  0.00  0.00    +0.000 A 
ATOM      4  C   UNL     1       5.425   3.751  16.021  0.00  0.00    +0.000 A 
ATOM      5  C   UNL     1       4.614   4.694  16.653  0.00  0.00    +0.000 A 
ATOM      6  C   UNL     1       5.067   5.995  16.922  0.00  0.00    +0.000 A 
ENDROOT
BRANCH   1   9
ATOM      7  C   UNL     1       7.890   7.790  17.928  0.00  0.00    +0.000 C 
ATOM      8  O   UNL     1       8.279   6.917  18.700  0.00  0.00    +0.000 OA
ATOM      9  N   UNL     1       7.064   7.554  16.849  0.00  0.00    +0.000 N 
ATOM     10  H   UNL     1       6.621   8.360  16.437  0.00  0.00    +0.000 HD
BRANCH   7  16
ATOM     11  C   UNL     1      10.413  11.421  20.482  0.00  0.00    +0.000 C 
ATOM     12  C   UNL     1       9.459  10.990  19.403  0.00  0.00    +0.000 A 
ATOM     13  C   UNL     1       8.922  11.938  18.529  0.00  0.00    +0.000 A 
ATOM     14  C   UNL     1       8.064  11.546  17.505  0.00  0.00    +0.000 A 
ATOM     15  C   UNL     1       7.751  10.195  17.340  0.00  0.00    +0.000 A 
ATOM     16  C   UNL     1       8.277   9.217  18.197  0.00  0.00    +0.000 A 
ATOM     17  C   UNL     1       9.136   9.630  19.237  0.00  0.00    +0.000 A 
ENDBRANCH   7  16
ENDBRANCH   1   9
BRANCH   6  18
ATOM     18  N   UNL     1       4.214   6.941  17.541  0.00  0.00    +0.000 N 
ATOM     19  C   UNL     1       3.158   6.683  18.398  0.00  0.00    +0.000 C 
ATOM     20  O   UNL     1       2.866   5.599  18.886  0.00  0.00    +0.000 OA
ATOM     21  H   UNL     1       4.420   7.909  17.298  0.00  0.00    +0.000 HD
BRANCH  19  22
ATOM     22  C   UNL     1       2.348   7.866  18.822  0.00  0.00    +0.000 A 
ATOM     23  C   UNL     1       2.192   8.914  17.898  0.00  0.00    +0.000 A 
ATOM     24  C   UNL     1       1.440  10.041  18.231  0.00  0.00    +0.000 A 
ATOM     25  C   UNL     1       0.844  10.130  19.488  0.00  0.00    +0.000 A 
ATOM     26  C   UNL     1       1.007   9.105  20.427  0.00  0.00    +0.000 A 
ATOM     27  C   UNL     1       0.369   9.199  21.782  0.00  0.00    +0.000 C 
ATOM     28  C   UNL     1       1.776   7.977  20.092  0.00  0.00    +0.000 A 
ENDBRANCH  19  22
ENDBRANCH   6  18
TORSDOF 4
ENDMDL
MODEL 5
REMARK VINA RESULT:      -8.0      3.757      5.629
REMARK  Name = 
REMARK  6 active torsions:
REMARK  status: ('A' for Active; 'I' for Inactive)
REMARK    1  A    between atoms: C_1  and  C_2
REMARK    2  A    between atoms: C_6  and  C_7
REMARK    3  A    between atoms: N_9  and  C_10
REMARK    4  A    between atoms: C_15  and  N_16
REMARK    5  A    between atoms: C_17  and  C_19
REMARK    6  A    between atoms: C_23  and  C_24
REMARK                            x       y       z     vdW  Elec       q    Type
REMARK                         _______ _______ _______ _____ _____    ______ ____
ROOT
ATOM      1  C   UNL     1       2.331   4.258  20.267  0.00  0.00    +0.000 A 
ATOM      2  C   UNL     1       1.547   3.797  21.340  0.00  0.00    +0.000 A 
ATOM      3  C   UNL     1       1.789   2.559  21.932  0.00  0.00    +0.000 A 
ATOM      4  C   UNL     1       2.796   1.743  21.428  0.00  0.00    +0.000 A 
ATOM      5  C   UNL     1       3.565   2.177  20.348  0.00  0.00    +0.000 A 
ATOM      6  C   UNL     1       3.371   3.437  19.762  0.00  0.00    +0.000 A 
ENDROOT
BRANCH   1   9
ATOM      7  C   UNL     1       2.765   6.586  19.504  0.00  0.00    +0.000 C 
ATOM      8  O   UNL     1       3.991   6.523  19.557  0.00  0.00    +0.000 OA
ATOM      9  N   UNL     1       1.925   5.519  19.749  0.00  0.00    +0.000 N 
ATOM     10  H   UNL     1       0.956   5.739  19.914  0.00  0.00    +0.000 HD
BRANCH   7  16
ATOM     11  C   UNL     1      -0.070  10.640  20.768  0.00  0.00    +0.000 C 
ATOM     12  C   UNL     1       0.758   9.869  19.779  0.00  0.00    +0.000 A 
ATOM     13  C   UNL     1       1.024  10.412  18.520  0.00  0.00    +0.000 A 
ATOM     14  C   UNL     1       1.817   9.720  17.609  0.00  0.00    +0.000 A 
ATOM     15  C   UNL     1       2.365   8.484  17.960  0.00  0.00    +0.000 A 
ATOM     16  C   UNL     1       2.121   7.913  19.218  0.00  0.00    +0.000 A 
ATOM     17  C   UNL     1       1.305   8.619  20.127  0.00  0.00    +0.000 A 
ENDBRANCH   7  16
ENDBRANCH   1   9
BRANCH   6  18
ATOM     18  N   UNL     1       4.183   3.863  18.683  0.00  0.00    +0.000 N 
ATOM     19  C   UNL     1       3.912   3.744  17.331  0.00  0.00    +0.000 C 
ATOM     20  O   UNL     1       2.855   3.380  16.831  0.00  0.00    +0.000 OA
ATOM     21  H   UNL     1       5.065   4.288  18.968  0.00  0.00    +0.000 HD
BRANCH  19  22
ATOM     22  C   UNL     1       4.997   4.177  16.399  0.00  0.00    +0.000 A 
ATOM     23  C   UNL     1       5.951   5.087  16.887  0.00  0.00    +0.000 A 
ATOM     24  C   UNL     1       6.993   5.523  16.069  0.00  0.00    +0.000 A 
ATOM     25  C   UNL     1       7.088   5.057  14.758  0.00  0.00    +0.000 A 
ATOM     26  C   UNL     1       6.134   4.167  14.250  0.00  0.00    +0.000 A 
ATOM     27  C   UNL     1       6.230   3.665  12.839  0.00  0.00    +0.000 C 
ATOM     28  C   UNL     1       5.078   3.741  15.073  0.00  0.00    +0.000 A 
ENDBRANCH  19  22
ENDBRANCH   6  18
TORSDOF 4
ENDMDL
MODEL 6
REMARK VINA RESULT:      -7.8      0.559      1.837
REMARK  Name = 
REMARK  6 active torsions:
REMARK  status: ('A' for Active; 'I' for Inactive)
REMARK    1  A    between atoms: C_1  and  C_2
REMARK    2  A    between atoms: C_6  and  C_7
REMARK    3  A    between atoms: N_9  and  C_10
REMARK    4  A    between atoms: C_15  and  N_16
REMARK    5  A    between atoms: C_17  and  C_19
REMARK    6  A    between atoms: C_23  and  C_24
REMARK                            x       y       z     vdW  Elec       q    Type
REMARK                         _______ _______ _______ _____ _____    ______ ____
ROOT
ATOM      1  C   UNL     1       4.939   6.112  17.074  0.00  0.00    +0.000 A 
ATOM      2  C   UNL     1       4.324   4.904  16.699  0.00  0.00    +0.000 A 
ATOM      3  C   UNL     1       5.001   3.954  15.936  0.00  0.00    +0.000 A 
ATOM      4  C   UNL     1       6.293   4.222  15.498  0.00  0.00    +0.000 A 
ATOM      5  C   UNL     1       6.907   5.428  15.840  0.00  0.00    +0.000 A 
ATOM      6  C   UNL     1       6.263   6.381  16.645  0.00  0.00    +0.000 A 
ENDROOT
BRANCH   1   9
ATOM      7  C   UNL     1       3.363   6.637  18.926  0.00  0.00    +0.000 C 
ATOM      8  O   UNL     1       3.469   5.559  19.507  0.00  0.00    +0.000 OA
ATOM      9  N   UNL     1       4.098   6.989  17.813  0.00  0.00    +0.000 N 
ATOM     10  H   UNL     1       3.764   7.780  17.285  0.00  0.00    +0.000 HD
BRANCH   7  16
ATOM     11  C   UNL     1       0.324  10.698  18.343  0.00  0.00    +0.000 C 
ATOM     12  C   UNL     1       0.868   9.568  19.172  0.00  0.00    +0.000 A 
ATOM     13  C   UNL     1       0.366   9.341  20.456  0.00  0.00    +0.000 A 
ATOM     14  C   UNL     1       0.840   8.278  21.218  0.00  0.00    +0.000 A 
ATOM     15  C   UNL     1       1.810   7.422  20.693  0.00  0.00    +0.000 A 
ATOM     16  C   UNL     1       2.332   7.619  19.405  0.00  0.00    +0.000 A 
ATOM     17  C   UNL     1       1.851   8.708  18.648  0.00  0.00    +0.000 A 
ENDBRANCH   7  16
ENDBRANCH   1   9
BRANCH   6  18
ATOM     18  N   UNL     1       6.919   7.585  16.998  0.00  0.00    +0.000 N 
ATOM     19  C   UNL     1       7.826   7.776  18.026  0.00  0.00    +0.000 C 
ATOM     20  O   UNL     1       8.331   6.903  18.721  0.00  0.00    +0.000 OA
ATOM     21  H   UNL     1       6.663   8.384  16.419  0.00  0.00    +0.000 HD
BRANCH  19  22
ATOM     22  C   UNL     1       8.284   9.181  18.250  0.00  0.00    +0.000 A 
ATOM     23  C   UNL     1       9.257   9.400  19.241  0.00  0.00    +0.000 A 
ATOM     24  C   UNL     1       9.730  10.687  19.492  0.00  0.00    +0.000 A 
ATOM     25  C   UNL     1       9.234  11.764  18.760  0.00  0.00    +0.000 A 
ATOM     26  C   UNL     1       8.249  11.567  17.784  0.00  0.00    +0.000 A 
ATOM     27  C   UNL     1       7.709  12.724  16.996  0.00  0.00    +0.000 C 
ATOM     28  C   UNL     1       7.765  10.270  17.544  0.00  0.00    +0.000 A 
ENDBRANCH  19  22
ENDBRANCH   6  18
TORSDOF 4
ENDMDL
MODEL 7
REMARK VINA RESULT:      -7.8      0.438      1.279
REMARK  Name = 
REMARK  6 active torsions:
REMARK  status: ('A' for Active; 'I' for Inactive)
REMARK    1  A    between atoms: C_1  and  C_2
REMARK    2  A    between atoms: C_6  and  C_7
REMARK    3  A    between atoms: N_9  and  C_10
REMARK    4  A    between atoms: C_15  and  N_16
REMARK    5  A    between atoms: C_17  and  C_19
REMARK    6  A    between atoms: C_23  and  C_24
REMARK                            x       y       z     vdW  Elec       q    Type
REMARK                         _______ _______ _______ _____ _____    ______ ____
ROOT
ATOM      1  C   UNL     1       4.984   6.106  17.146  0.00  0.00    +0.000 A 
ATOM      2  C   UNL     1       4.386   4.879  16.808  0.00  0.00    +0.000 A 
ATOM      3  C   UNL     1       5.074   3.918  16.072  0.00  0.00    +0.000 A 
ATOM      4  C   UNL     1       6.361   4.191  15.622  0.00  0.00    +0.000 A 
ATOM      5  C   UNL     1       6.958   5.415  15.927  0.00  0.00    +0.000 A 
ATOM      6  C   UNL     1       6.303   6.382  16.705  0.00  0.00    +0.000 A 
ENDROOT
BRANCH   1   9
ATOM      7  C   UNL     1       3.363   6.649  18.954  0.00  0.00    +0.000 C 
ATOM      8  O   UNL     1       3.441   5.571  19.538  0.00  0.00    +0.000 OA
ATOM      9  N   UNL     1       4.132   6.993  17.862  0.00  0.00    +0.000 N 
ATOM     10  H   UNL     1       3.821   7.787  17.325  0.00  0.00    +0.000 HD
BRANCH   7  16
ATOM     11  C   UNL     1       0.322  10.691  18.257  0.00  0.00    +0.000 C 
ATOM     12  C   UNL     1       0.865   9.584  19.116  0.00  0.00    +0.000 A 
ATOM     13  C   UNL     1       0.359   9.389  20.404  0.00  0.00    +0.000 A 
ATOM     14  C   UNL     1       0.831   8.346  21.195  0.00  0.00    +0.000 A 
ATOM     15  C   UNL     1       1.804   7.478  20.695  0.00  0.00    +0.000 A 
ATOM     16  C   UNL     1       2.329   7.642  19.404  0.00  0.00    +0.000 A 
ATOM     17  C   UNL     1       1.850   8.711  18.617  0.00  0.00    +0.000 A 
ENDBRANCH   7  16
ENDBRANCH   1   9
BRANCH   6  18
ATOM     18  N   UNL     1       6.942   7.605  17.021  0.00  0.00    +0.000 N 
ATOM     19  C   UNL     1       7.855   7.838  18.036  0.00  0.00    +0.000 C 
ATOM     20  O   UNL     1       8.380   6.991  18.749  0.00  0.00    +0.000 OA
ATOM     21  H   UNL     1       6.668   8.385  16.424  0.00  0.00    +0.000 HD
BRANCH  19  22
ATOM     22  C   UNL     1       8.291   9.255  18.220  0.00  0.00    +0.000 A 
ATOM     23  C   UNL     1       7.751  10.222  17.354  0.00  0.00    +0.000 A 
ATOM     24  C   UNL     1       8.113  11.563  17.480  0.00  0.00    +0.000 A 
ATOM     25  C   UNL     1       9.018  11.947  18.468  0.00  0.00    +0.000 A 
ATOM     26  C   UNL     1       9.581  10.994  19.325  0.00  0.00    +0.000 A 
ATOM     27  C   UNL     1      10.559  11.403  20.388  0.00  0.00    +0.000 C 
ATOM     28  C   UNL     1       9.225   9.642  19.186  0.00  0.00    +0.000 A 
ENDBRANCH  19  22
ENDBRANCH   6  18
TORSDOF 4
ENDMDL
MODEL 8
REMARK VINA RESULT:      -7.8      4.049      7.261
REMARK  Name = 
REMARK  6 active torsions:
REMARK  status: ('A' for Active; 'I' for Inactive)
REMARK    1  A    between atoms: C_1  and  C_2
REMARK    2  A    between atoms: C_6  and  C_7
REMARK    3  A    between atoms: N_9  and  C_10
REMARK    4  A    between atoms: C_15  and  N_16
REMARK    5  A    between atoms: C_17  and  C_19
REMARK    6  A    between atoms: C_23  and  C_24
REMARK                            x       y       z     vdW  Elec       q    Type
REMARK                         _______ _______ _______ _____ _____    ______ ____
ROOT
ATOM      1  C   UNL     1       3.533   4.032  19.546  0.00  0.00    +0.000 A 
ATOM      2  C   UNL     1       3.726   2.717  20.005  0.00  0.00    +0.000 A 
ATOM      3  C   UNL     1       3.045   2.234  21.121  0.00  0.00    +0.000 A 
ATOM      4  C   UNL     1       2.192   3.078  21.823  0.00  0.00    +0.000 A 
ATOM      5  C   UNL     1       2.011   4.394  21.395  0.00  0.00    +0.000 A 
ATOM      6  C   UNL     1       2.650   4.891  20.248  0.00  0.00    +0.000 A 
ENDROOT
BRANCH   1   9
ATOM      7  C   UNL     1       4.039   4.079  17.111  0.00  0.00    +0.000 C 
ATOM      8  O   UNL     1       2.967   3.609  16.737  0.00  0.00    +0.000 OA
ATOM      9  N   UNL     1       4.334   4.381  18.424  0.00  0.00    +0.000 N 
ATOM     10  H   UNL     1       5.306   4.530  18.644  0.00  0.00    +0.000 HD
BRANCH   7  16
ATOM     11  C   UNL     1       6.137   3.496  12.493  0.00  0.00    +0.000 C 
ATOM     12  C   UNL     1       6.177   4.022  13.900  0.00  0.00    +0.000 A 
ATOM     13  C   UNL     1       7.248   4.814  14.319  0.00  0.00    +0.000 A 
ATOM     14  C   UNL     1       7.278   5.334  15.610  0.00  0.00    +0.000 A 
ATOM     15  C   UNL     1       6.223   5.076  16.488  0.00  0.00    +0.000 A 
ATOM     16  C   UNL     1       5.129   4.289  16.098  0.00  0.00    +0.000 A 
ATOM     17  C   UNL     1       5.118   3.758  14.790  0.00  0.00    +0.000 A 
ENDBRANCH   7  16
ENDBRANCH   1   9
BRANCH   6  18
ATOM     18  N   UNL     1       2.428   6.223  19.821  0.00  0.00    +0.000 N 
ATOM     19  C   UNL     1       1.696   7.202  20.471  0.00  0.00    +0.000 C 
ATOM     20  O   UNL     1       1.232   7.131  21.602  0.00  0.00    +0.000 OA
ATOM     21  H   UNL     1       2.857   6.450  18.924  0.00  0.00    +0.000 HD
BRANCH  19  22
ATOM     22  C   UNL     1       1.527   8.495  19.741  0.00  0.00    +0.000 A 
ATOM     23  C   UNL     1       2.094   8.599  18.459  0.00  0.00    +0.000 A 
ATOM     24  C   UNL     1       1.965   9.777  17.724  0.00  0.00    +0.000 A 
ATOM     25  C   UNL     1       1.271  10.859  18.264  0.00  0.00    +0.000 A 
ATOM     26  C   UNL     1       0.718  10.779  19.547  0.00  0.00    +0.000 A 
ATOM     27  C   UNL     1      -0.026  11.943  20.134  0.00  0.00    +0.000 C 
ATOM     28  C   UNL     1       0.864   9.596  20.291  0.00  0.00    +0.000 A 
ENDBRANCH  19  22
ENDBRANCH   6  18
TORSDOF 4
ENDMDL
MODEL 9
REMARK VINA RESULT:      -7.7      0.713      6.396
REMARK  Name = 
REMARK  6 active torsions:
REMARK  status: ('A' for Active; 'I' for Inactive)
REMARK    1  A    between atoms: C_1  and  C_2
REMARK    2  A    between atoms: C_6  and  C_7
REMARK    3  A    between atoms: N_9  and  C_10
REMARK    4  A    between atoms: C_15  and  N_16
REMARK    5  A    between atoms: C_17  and  C_19
REMARK    6  A    between atoms: C_23  and  C_24
REMARK                            x       y       z     vdW  Elec       q    Type
REMARK                         _______ _______ _______ _____ _____    ______ ____
ROOT
ATOM      1  C   UNL     1       6.280   6.273  16.527  0.00  0.00    +0.000 A 
ATOM      2  C   UNL     1       7.033   5.347  15.784  0.00  0.00    +0.000 A 
ATOM      3  C   UNL     1       6.517   4.095  15.454  0.00  0.00    +0.000 A 
ATOM      4  C   UNL     1       5.252   3.734  15.905  0.00  0.00    +0.000 A 
ATOM      5  C   UNL     1       4.504   4.633  16.666  0.00  0.00    +0.000 A 
ATOM      6  C   UNL     1       4.982   5.917  16.973  0.00  0.00    +0.000 A 
ENDROOT
BRANCH   1   9
ATOM      7  C   UNL     1       7.815   7.684  17.885  0.00  0.00    +0.000 C 
ATOM      8  O   UNL     1       8.205   6.787  18.630  0.00  0.00    +0.000 OA
ATOM      9  N   UNL     1       6.967   7.485  16.816  0.00  0.00    +0.000 N 
ATOM     10  H   UNL     1       6.529   8.307  16.431  0.00  0.00    +0.000 HD
BRANCH   7  16
ATOM     11  C   UNL     1       7.716  12.721  17.062  0.00  0.00    +0.000 C 
ATOM     12  C   UNL     1       8.221  11.519  17.808  0.00  0.00    +0.000 A 
ATOM     13  C   UNL     1       9.087  11.684  18.892  0.00  0.00    +0.000 A 
ATOM     14  C   UNL     1       9.534  10.579  19.610  0.00  0.00    +0.000 A 
ATOM     15  C   UNL     1       9.103   9.298  19.257  0.00  0.00    +0.000 A 
ATOM     16  C   UNL     1       8.230   9.098  18.177  0.00  0.00    +0.000 A 
ATOM     17  C   UNL     1       7.794  10.226  17.450  0.00  0.00    +0.000 A 
ENDBRANCH   7  16
ENDBRANCH   1   9
BRANCH   6  18
ATOM     18  N   UNL     1       4.190   6.819  17.725  0.00  0.00    +0.000 N 
ATOM     19  C   UNL     1       2.909   6.611  18.206  0.00  0.00    +0.000 C 
ATOM     20  O   UNL     1       2.290   5.555  18.189  0.00  0.00    +0.000 OA
ATOM     21  H   UNL     1       4.638   7.717  17.903  0.00  0.00    +0.000 HD
BRANCH  19  22
ATOM     22  C   UNL     1       2.258   7.777  18.876  0.00  0.00    +0.000 A 
ATOM     23  C   UNL     1       1.839   7.613  20.208  0.00  0.00    +0.000 A 
ATOM     24  C   UNL     1       1.233   8.667  20.891  0.00  0.00    +0.000 A 
ATOM     25  C   UNL     1       1.037   9.889  20.249  0.00  0.00    +0.000 A 
ATOM     26  C   UNL     1       1.430  10.062  18.917  0.00  0.00    +0.000 A 
ATOM     27  C   UNL     1       1.218  11.375  18.221  0.00  0.00    +0.000 C 
ATOM     28  C   UNL     1       2.028   8.993  18.228  0.00  0.00    +0.000 A 
ENDBRANCH  19  22
ENDBRANCH   6  18
TORSDOF 4
ENDMDL
