MODEL 1
REMARK VINA RESULT:      -7.1      0.000      0.000
REMARK  Name = 
REMARK  3 active torsions:
REMARK  status: ('A' for Active; 'I' for Inactive)
REMARK    1  A    between atoms: C_1  and  C_2
REMARK    2  A    between atoms: C_7  and  C_8
REMARK    3  A    between atoms: C_11  and  N_12
REMARK                            x       y       z     vdW  Elec       q    Type
REMARK                         _______ _______ _______ _____ _____    ______ ____
ROOT
ATOM      1  C   UNL     1      -0.459   9.899  23.178  0.00  0.00    +0.000 C 
ATOM      2  C   UNL     1       0.150   9.666  21.825  0.00  0.00    +0.000 A 
ATOM      3  C   UNL     1       0.004  10.622  20.819  0.00  0.00    +0.000 A 
ATOM      4  C   UNL     1       0.560  10.428  19.556  0.00  0.00    +0.000 A 
ATOM      5  C   UNL     1       1.278   9.246  19.321  0.00  0.00    +0.000 A 
ATOM      6  S   UNL     1       2.055   8.757  17.880  0.00  0.00    +0.000 S 
ATOM      7  C   UNL     1       2.606   7.312  18.647  0.00  0.00    +0.000 A 
ATOM      8  N   UNL     1       2.193   7.157  19.890  0.00  0.00    +0.000 NA
ATOM      9  C   UNL     1       1.451   8.265  20.295  0.00  0.00    +0.000 A 
ATOM     10  C   UNL     1       0.872   8.483  21.567  0.00  0.00    +0.000 A 
ENDROOT
BRANCH   7  11
ATOM     11  C   UNL     1       3.401   6.352  17.857  0.00  0.00    +0.000 A 
ATOM     12  C   UNL     1       3.094   4.982  17.849  0.00  0.00    +0.000 A 
ATOM     13  C   UNL     1       3.930   4.054  17.222  0.00  0.00    +0.000 A 
ATOM     14  C   UNL     1       5.108   4.469  16.607  0.00  0.00    +0.000 A 
ATOM     15  C   UNL     1       5.348   5.840  16.488  0.00  0.00    +0.000 A 
ATOM     16  C   UNL     1       4.515   6.775  17.122  0.00  0.00    +0.000 A 
BRANCH  14  17
ATOM     17  N   UNL     1       5.907   3.536  15.934  0.00  0.00    +0.000 N 
ATOM     18  H   UNL     1       6.891   3.600  16.180  0.00  0.00    +0.000 HD
ATOM     19  H   UNL     1       5.771   3.537  14.928  0.00  0.00    +0.000 HD
ENDBRANCH  14  17
ENDBRANCH   7  11
TORSDOF 2
ENDMDL
MODEL 2
REMARK VINA RESULT:      -6.8      0.403      1.227
REMARK  Name = 
REMARK  3 active torsions:
REMARK  status: ('A' for Active; 'I' for Inactive)
REMARK    1  A    between atoms: C_1  and  C_2
REMARK    2  A    between atoms: C_7  and  C_8
REMARK    3  A    between atoms: C_11  and  N_12
REMARK                            x       y       z     vdW  Elec       q    Type
REMARK                         _______ _______ _______ _____ _____    ______ ____
ROOT
ATOM      1  C   UNL     1      -0.330   9.773  22.946  0.00  0.00    +0.000 C 
ATOM      2  C   UNL     1       0.306   9.477  21.618  0.00  0.00    +0.000 A 
ATOM      3  C   UNL     1       0.143  10.363  20.552  0.00  0.00    +0.000 A 
ATOM      4  C   UNL     1       0.723  10.111  19.311  0.00  0.00    +0.000 A 
ATOM      5  C   UNL     1       1.483   8.943  19.158  0.00  0.00    +0.000 A 
ATOM      6  S   UNL     1       2.296   8.392  17.760  0.00  0.00    +0.000 S 
ATOM      7  C   UNL     1       2.885   7.017  18.622  0.00  0.00    +0.000 A 
ATOM      8  N   UNL     1       2.459   6.925  19.867  0.00  0.00    +0.000 NA
ATOM      9  C   UNL     1       1.675   8.030  20.194  0.00  0.00    +0.000 A 
ATOM     10  C   UNL     1       1.070   8.306  21.442  0.00  0.00    +0.000 A 
ENDROOT
BRANCH   7  11
ATOM     11  C   UNL     1       3.723   6.039  17.903  0.00  0.00    +0.000 A 
ATOM     12  C   UNL     1       4.919   6.424  17.275  0.00  0.00    +0.000 A 
ATOM     13  C   UNL     1       5.636   5.534  16.472  0.00  0.00    +0.000 A 
ATOM     14  C   UNL     1       5.165   4.241  16.255  0.00  0.00    +0.000 A 
ATOM     15  C   UNL     1       4.056   3.808  16.986  0.00  0.00    +0.000 A 
ATOM     16  C   UNL     1       3.328   4.701  17.789  0.00  0.00    +0.000 A 
BRANCH  14  17
ATOM     17  N   UNL     1       5.923   3.342  15.495  0.00  0.00    +0.000 N 
ATOM     18  H   UNL     1       6.844   3.698  15.255  0.00  0.00    +0.000 HD
ATOM     19  H   UNL     1       5.432   2.989  14.680  0.00  0.00    +0.000 HD
ENDBRANCH  14  17
ENDBRANCH   7  11
TORSDOF 2
ENDMDL
MODEL 3
REMARK VINA RESULT:      -6.7      4.438      7.658
REMARK  Name = 
REMARK  3 active torsions:
REMARK  status: ('A' for Active; 'I' for Inactive)
REMARK    1  A    between atoms: C_1  and  C_2
REMARK    2  A    between atoms: C_7  and  C_8
REMARK    3  A    between atoms: C_11  and  N_12
REMARK                            x       y       z     vdW  Elec       q    Type
REMARK                         _______ _______ _______ _____ _____    ______ ____
ROOT
ATOM      1  C   UNL     1       6.553   3.959  12.475  0.00  0.00    +0.000 C 
ATOM      2  C   UNL     1       6.391   4.229  13.944  0.00  0.00    +0.000 A 
ATOM      3  C   UNL     1       7.311   5.040  14.611  0.00  0.00    +0.000 A 
ATOM      4  C   UNL     1       7.182   5.306  15.973  0.00  0.00    +0.000 A 
ATOM      5  C   UNL     1       6.099   4.741  16.660  0.00  0.00    +0.000 A 
ATOM      6  S   UNL     1       5.705   4.899  18.314  0.00  0.00    +0.000 S 
ATOM      7  C   UNL     1       4.295   3.928  18.090  0.00  0.00    +0.000 A 
ATOM      8  N   UNL     1       4.143   3.452  16.869  0.00  0.00    +0.000 NA
ATOM      9  C   UNL     1       5.154   3.927  16.036  0.00  0.00    +0.000 A 
ATOM     10  C   UNL     1       5.311   3.668  14.654  0.00  0.00    +0.000 A 
ENDROOT
BRANCH   7  11
ATOM     11  C   UNL     1       3.441   3.643  19.259  0.00  0.00    +0.000 A 
ATOM     12  C   UNL     1       3.885   2.815  20.303  0.00  0.00    +0.000 A 
ATOM     13  C   UNL     1       3.027   2.426  21.336  0.00  0.00    +0.000 A 
ATOM     14  C   UNL     1       1.697   2.835  21.340  0.00  0.00    +0.000 A 
ATOM     15  C   UNL     1       1.286   3.770  20.385  0.00  0.00    +0.000 A 
ATOM     16  C   UNL     1       2.142   4.158  19.342  0.00  0.00    +0.000 A 
BRANCH  14  17
ATOM     17  N   UNL     1       0.864   2.485  22.410  0.00  0.00    +0.000 N 
ATOM     18  H   UNL     1       0.008   2.023  22.117  0.00  0.00    +0.000 HD
ATOM     19  H   UNL     1       0.677   3.254  23.046  0.00  0.00    +0.000 HD
ENDBRANCH  14  17
ENDBRANCH   7  11
TORSDOF 2
ENDMDL
MODEL 4
REMARK VINA RESULT:      -6.7      1.381      2.305
REMARK  Name = 
REMARK  3 active torsions:
REMARK  status: ('A' for Active; 'I' for Inactive)
REMARK    1  A    between atoms: C_1  and  C_2
REMARK    2  A    between atoms: C_7  and  C_8
REMARK    3  A    between atoms: C_11  and  N_12
REMARK                            x       y       z     vdW  Elec       q    Type
REMARK                         _______ _______ _______ _____ _____    ______ ____
ROOT
ATOM      1  C   UNL     1      -0.264  11.405  19.941  0.00  0.00    +0.000 C 
ATOM      2  C   UNL     1       0.495  10.109  19.928  0.00  0.00    +0.000 A 
ATOM      3  C   UNL     1       0.459   9.267  21.041  0.00  0.00    +0.000 A 
ATOM      4  C   UNL     1       1.155   8.060  21.052  0.00  0.00    +0.000 A 
ATOM      5  C   UNL     1       1.891   7.707  19.912  0.00  0.00    +0.000 A 
ATOM      6  S   UNL     1       2.827   6.300  19.658  0.00  0.00    +0.000 S 
ATOM      7  C   UNL     1       3.213   6.824  18.059  0.00  0.00    +0.000 A 
ATOM      8  N   UNL     1       2.729   8.008  17.736  0.00  0.00    +0.000 NA
ATOM      9  C   UNL     1       1.954   8.514  18.777  0.00  0.00    +0.000 A 
ATOM     10  C   UNL     1       1.244   9.737  18.794  0.00  0.00    +0.000 A 
ENDROOT
BRANCH   7  11
ATOM     11  C   UNL     1       4.092   5.976  17.232  0.00  0.00    +0.000 A 
ATOM     12  C   UNL     1       4.949   6.534  16.269  0.00  0.00    +0.000 A 
ATOM     13  C   UNL     1       5.672   5.728  15.386  0.00  0.00    +0.000 A 
ATOM     14  C   UNL     1       5.540   4.342  15.426  0.00  0.00    +0.000 A 
ATOM     15  C   UNL     1       4.802   3.776  16.468  0.00  0.00    +0.000 A 
ATOM     16  C   UNL     1       4.069   4.582  17.354  0.00  0.00    +0.000 A 
BRANCH  14  17
ATOM     17  N   UNL     1       6.313   3.545  14.573  0.00  0.00    +0.000 N 
ATOM     18  H   UNL     1       7.209   3.280  14.975  0.00  0.00    +0.000 HD
ATOM     19  H   UNL     1       6.419   3.933  13.642  0.00  0.00    +0.000 HD
ENDBRANCH  14  17
ENDBRANCH   7  11
TORSDOF 2
ENDMDL
MODEL 5
REMARK VINA RESULT:      -6.6      1.832      7.175
REMARK  Name = 
REMARK  3 active torsions:
REMARK  status: ('A' for Active; 'I' for Inactive)
REMARK    1  A    between atoms: C_1  and  C_2
REMARK    2  A    between atoms: C_7  and  C_8
REMARK    3  A    between atoms: C_11  and  N_12
REMARK                            x       y       z     vdW  Elec       q    Type
REMARK                         _______ _______ _______ _____ _____    ______ ____
ROOT
ATOM      1  C   UNL     1       6.917   4.844  14.552  0.00  0.00    +0.000 C 
ATOM      2  C   UNL     1       5.836   4.916  15.592  0.00  0.00    +0.000 A 
ATOM      3  C   UNL     1       5.337   3.745  16.163  0.00  0.00    +0.000 A 
ATOM      4  C   UNL     1       4.335   3.786  17.130  0.00  0.00    +0.000 A 
ATOM      5  C   UNL     1       3.841   5.038  17.522  0.00  0.00    +0.000 A 
ATOM      6  S   UNL     1       2.625   5.376  18.673  0.00  0.00    +0.000 S 
ATOM      7  C   UNL     1       2.830   7.071  18.419  0.00  0.00    +0.000 A 
ATOM      8  N   UNL     1       3.709   7.386  17.487  0.00  0.00    +0.000 NA
ATOM      9  C   UNL     1       4.310   6.234  16.981  0.00  0.00    +0.000 A 
ATOM     10  C   UNL     1       5.323   6.165  15.997  0.00  0.00    +0.000 A 
ENDROOT
BRANCH   7  11
ATOM     11  C   UNL     1       1.977   8.007  19.176  0.00  0.00    +0.000 A 
ATOM     12  C   UNL     1       1.470   9.175  18.584  0.00  0.00    +0.000 A 
ATOM     13  C   UNL     1       0.787  10.133  19.338  0.00  0.00    +0.000 A 
ATOM     14  C   UNL     1       0.613   9.961  20.708  0.00  0.00    +0.000 A 
ATOM     15  C   UNL     1       0.989   8.741  21.277  0.00  0.00    +0.000 A 
ATOM     16  C   UNL     1       1.681   7.778  20.525  0.00  0.00    +0.000 A 
BRANCH  14  17
ATOM     17  N   UNL     1      -0.122  10.901  21.441  0.00  0.00    +0.000 N 
ATOM     18  H   UNL     1      -0.807  10.479  22.062  0.00  0.00    +0.000 HD
ATOM     19  H   UNL     1      -0.535  11.629  20.866  0.00  0.00    +0.000 HD
ENDBRANCH  14  17
ENDBRANCH   7  11
TORSDOF 2
ENDMDL
MODEL 6
REMARK VINA RESULT:      -6.6      1.814      7.099
REMARK  Name = 
REMARK  3 active torsions:
REMARK  status: ('A' for Active; 'I' for Inactive)
REMARK    1  A    between atoms: C_1  and  C_2
REMARK    2  A    between atoms: C_7  and  C_8
REMARK    3  A    between atoms: C_11  and  N_12
REMARK                            x       y       z     vdW  Elec       q    Type
REMARK                         _______ _______ _______ _____ _____    ______ ____
ROOT
ATOM      1  C   UNL     1       6.702   4.600  14.698  0.00  0.00    +0.000 C 
ATOM      2  C   UNL     1       5.657   4.773  15.763  0.00  0.00    +0.000 A 
ATOM      3  C   UNL     1       5.160   3.660  16.443  0.00  0.00    +0.000 A 
ATOM      4  C   UNL     1       4.190   3.795  17.434  0.00  0.00    +0.000 A 
ATOM      5  C   UNL     1       3.726   5.082  17.737  0.00  0.00    +0.000 A 
ATOM      6  S   UNL     1       2.552   5.532  18.894  0.00  0.00    +0.000 S 
ATOM      7  C   UNL     1       2.771   7.198  18.495  0.00  0.00    +0.000 A 
ATOM      8  N   UNL     1       3.623   7.421  17.514  0.00  0.00    +0.000 NA
ATOM      9  C   UNL     1       4.193   6.223  17.086  0.00  0.00    +0.000 A 
ATOM     10  C   UNL     1       5.173   6.058  16.079  0.00  0.00    +0.000 A 
ENDROOT
BRANCH   7  11
ATOM     11  C   UNL     1       1.955   8.205  19.200  0.00  0.00    +0.000 A 
ATOM     12  C   UNL     1       1.564   8.022  20.537  0.00  0.00    +0.000 A 
ATOM     13  C   UNL     1       0.673   8.900  21.158  0.00  0.00    +0.000 A 
ATOM     14  C   UNL     1       0.130   9.972  20.454  0.00  0.00    +0.000 A 
ATOM     15  C   UNL     1       0.621  10.241  19.174  0.00  0.00    +0.000 A 
ATOM     16  C   UNL     1       1.512   9.358  18.543  0.00  0.00    +0.000 A 
BRANCH  14  17
ATOM     17  N   UNL     1      -0.717  10.876  21.106  0.00  0.00    +0.000 N 
ATOM     18  H   UNL     1      -1.430  11.268  20.497  0.00  0.00    +0.000 HD
ATOM     19  H   UNL     1      -0.221  11.599  21.617  0.00  0.00    +0.000 HD
ENDBRANCH  14  17
ENDBRANCH   7  11
TORSDOF 2
ENDMDL
MODEL 7
REMARK VINA RESULT:      -6.6      4.682      7.667
REMARK  Name = 
REMARK  3 active torsions:
REMARK  status: ('A' for Active; 'I' for Inactive)
REMARK    1  A    between atoms: C_1  and  C_2
REMARK    2  A    between atoms: C_7  and  C_8
REMARK    3  A    between atoms: C_11  and  N_12
REMARK                            x       y       z     vdW  Elec       q    Type
REMARK                         _______ _______ _______ _____ _____    ______ ____
ROOT
ATOM      1  C   UNL     1       6.786   4.110  12.618  0.00  0.00    +0.000 C 
ATOM      2  C   UNL     1       6.512   4.327  14.079  0.00  0.00    +0.000 A 
ATOM      3  C   UNL     1       7.300   5.214  14.814  0.00  0.00    +0.000 A 
ATOM      4  C   UNL     1       7.065   5.432  16.170  0.00  0.00    +0.000 A 
ATOM      5  C   UNL     1       6.010   4.740  16.781  0.00  0.00    +0.000 A 
ATOM      6  S   UNL     1       5.506   4.816  18.412  0.00  0.00    +0.000 S 
ATOM      7  C   UNL     1       4.224   3.707  18.086  0.00  0.00    +0.000 A 
ATOM      8  N   UNL     1       4.194   3.247  16.850  0.00  0.00    +0.000 NA
ATOM      9  C   UNL     1       5.195   3.846  16.087  0.00  0.00    +0.000 A 
ATOM     10  C   UNL     1       5.459   3.638  14.713  0.00  0.00    +0.000 A 
ENDROOT
BRANCH   7  11
ATOM     11  C   UNL     1       3.339   3.305  19.196  0.00  0.00    +0.000 A 
ATOM     12  C   UNL     1       1.982   3.667  19.215  0.00  0.00    +0.000 A 
ATOM     13  C   UNL     1       1.179   3.416  20.331  0.00  0.00    +0.000 A 
ATOM     14  C   UNL     1       1.717   2.818  21.467  0.00  0.00    +0.000 A 
ATOM     15  C   UNL     1       3.024   2.329  21.404  0.00  0.00    +0.000 A 
ATOM     16  C   UNL     1       3.836   2.585  20.288  0.00  0.00    +0.000 A 
BRANCH  14  17
ATOM     17  N   UNL     1       0.888   2.521  22.556  0.00  0.00    +0.000 N 
ATOM     18  H   UNL     1      -0.086   2.762  22.395  0.00  0.00    +0.000 HD
ATOM     19  H   UNL     1       1.227   2.894  23.436  0.00  0.00    +0.000 HD
ENDBRANCH  14  17
ENDBRANCH   7  11
TORSDOF 2
ENDMDL
MODEL 8
REMARK VINA RESULT:      -6.5      3.524      4.892
REMARK  Name = 
REMARK  3 active torsions:
REMARK  status: ('A' for Active; 'I' for Inactive)
REMARK    1  A    between atoms: C_1  and  C_2
REMARK    2  A    between atoms: C_7  and  C_8
REMARK    3  A    between atoms: C_11  and  N_12
REMARK                            x       y       z     vdW  Elec       q    Type
REMARK                         _______ _______ _______ _____ _____    ______ ____
ROOT
ATOM      1  C   UNL     1       1.466   2.520  21.939  0.00  0.00    +0.000 C 
ATOM      2  C   UNL     1       2.030   3.412  20.871  0.00  0.00    +0.000 A 
ATOM      3  C   UNL     1       1.702   4.769  20.848  0.00  0.00    +0.000 A 
ATOM      4  C   UNL     1       2.212   5.617  19.867  0.00  0.00    +0.000 A 
ATOM      5  C   UNL     1       3.071   5.074  18.902  0.00  0.00    +0.000 A 
ATOM      6  S   UNL     1       3.831   5.877  17.599  0.00  0.00    +0.000 S 
ATOM      7  C   UNL     1       4.615   4.412  17.130  0.00  0.00    +0.000 A 
ATOM      8  N   UNL     1       4.293   3.359  17.856  0.00  0.00    +0.000 NA
ATOM      9  C   UNL     1       3.429   3.726  18.885  0.00  0.00    +0.000 A 
ATOM     10  C   UNL     1       2.892   2.886  19.889  0.00  0.00    +0.000 A 
ENDROOT
BRANCH   7  11
ATOM     11  C   UNL     1       5.492   4.429  15.943  0.00  0.00    +0.000 A 
ATOM     12  C   UNL     1       6.751   5.051  15.975  0.00  0.00    +0.000 A 
ATOM     13  C   UNL     1       7.517   5.197  14.816  0.00  0.00    +0.000 A 
ATOM     14  C   UNL     1       7.036   4.746  13.590  0.00  0.00    +0.000 A 
ATOM     15  C   UNL     1       5.852   4.004  13.574  0.00  0.00    +0.000 A 
ATOM     16  C   UNL     1       5.075   3.861  14.734  0.00  0.00    +0.000 A 
BRANCH  14  17
ATOM     17  N   UNL     1       7.839   4.848  12.447  0.00  0.00    +0.000 N 
ATOM     18  H   UNL     1       7.631   5.668  11.883  0.00  0.00    +0.000 HD
ATOM     19  H   UNL     1       7.855   4.001  11.887  0.00  0.00    +0.000 HD
ENDBRANCH  14  17
ENDBRANCH   7  11
TORSDOF 2
ENDMDL
MODEL 9
REMARK VINA RESULT:      -6.4      1.191      1.819
REMARK  Name = 
REMARK  3 active torsions:
REMARK  status: ('A' for Active; 'I' for Inactive)
REMARK    1  A    between atoms: C_1  and  C_2
REMARK    2  A    between atoms: C_7  and  C_8
REMARK    3  A    between atoms: C_11  and  N_12
REMARK                            x       y       z     vdW  Elec       q    Type
REMARK                         _______ _______ _______ _____ _____    ______ ____
ROOT
ATOM      1  C   UNL     1      -0.516  11.647  20.012  0.00  0.00    +0.000 C 
ATOM      2  C   UNL     1       0.225  10.340  20.044  0.00  0.00    +0.000 A 
ATOM      3  C   UNL     1       0.201   9.552  21.195  0.00  0.00    +0.000 A 
ATOM      4  C   UNL     1       0.880   8.336  21.249  0.00  0.00    +0.000 A 
ATOM      5  C   UNL     1       1.587   7.920  20.112  0.00  0.00    +0.000 A 
ATOM      6  S   UNL     1       2.499   6.490  19.906  0.00  0.00    +0.000 S 
ATOM      7  C   UNL     1       2.859   6.933  18.277  0.00  0.00    +0.000 A 
ATOM      8  N   UNL     1       2.385   8.107  17.908  0.00  0.00    +0.000 NA
ATOM      9  C   UNL     1       1.638   8.673  18.940  0.00  0.00    +0.000 A 
ATOM     10  C   UNL     1       0.945   9.906  18.913  0.00  0.00    +0.000 A 
ENDROOT
BRANCH   7  11
ATOM     11  C   UNL     1       3.710   6.035  17.473  0.00  0.00    +0.000 A 
ATOM     12  C   UNL     1       3.475   4.651  17.431  0.00  0.00    +0.000 A 
ATOM     13  C   UNL     1       4.364   3.783  16.791  0.00  0.00    +0.000 A 
ATOM     14  C   UNL     1       5.524   4.273  16.196  0.00  0.00    +0.000 A 
ATOM     15  C   UNL     1       5.692   5.657  16.110  0.00  0.00    +0.000 A 
ATOM     16  C   UNL     1       4.805   6.533  16.757  0.00  0.00    +0.000 A 
BRANCH  14  17
ATOM     17  N   UNL     1       6.376   3.399  15.509  0.00  0.00    +0.000 N 
ATOM     18  H   UNL     1       6.936   2.818  16.127  0.00  0.00    +0.000 HD
ATOM     19  H   UNL     1       6.946   3.859  14.807  0.00  0.00    +0.000 HD
ENDBRANCH  14  17
ENDBRANCH   7  11
TORSDOF 2
ENDMDL
