MODEL 1
REMARK VINA RESULT:      -9.4      0.000      0.000
REMARK  Name = 
REMARK  6 active torsions:
REMARK  status: ('A' for Active; 'I' for Inactive)
REMARK    1  A    between atoms: C_1  and  O_2
REMARK    2  A    between atoms: O_2  and  C_3
REMARK    3  A    between atoms: N_6  and  C_7
REMARK    4  A    between atoms: C_12  and  O_13
REMARK    5  A    between atoms: O_13  and  C_14
REMARK    6  A    between atoms: C_17  and  N_18
REMARK                            x       y       z     vdW  Elec       q    Type
REMARK                         _______ _______ _______ _____ _____    ______ ____
ROOT
ATOM      1  C   UNL     1       2.492   7.288  19.575  0.00  0.00    +0.000 A 
ATOM      2  C   UNL     1       2.639   7.601  18.224  0.00  0.00    +0.000 A 
ATOM      3  C   UNL     1       1.890   8.637  17.641  0.00  0.00    +0.000 A 
ATOM      4  C   UNL     1       0.944   9.370  18.381  0.00  0.00    +0.000 A 
ATOM      5  C   UNL     1       0.911   9.134  19.759  0.00  0.00    +0.000 A 
ATOM      6  C   UNL     1       1.656   8.091  20.348  0.00  0.00    +0.000 A 
ENDROOT
BRANCH   4   7
ATOM      7  N   UNL     1       0.121  10.296  17.688  0.00  0.00    +0.000 N 
ATOM      8  C   UNL     1      -1.093  10.802  18.053  0.00  0.00    +0.000 A 
ATOM      9  N   UNL     1      -2.057  10.927  17.157  0.00  0.00    +0.000 NA
ATOM     10  C   UNL     1      -3.205  11.464  17.718  0.00  0.00    +0.000 A 
ATOM     11  C   UNL     1      -4.433  11.689  17.057  0.00  0.00    +0.000 A 
ATOM     12  C   UNL     1      -5.511  12.246  17.756  0.00  0.00    +0.000 A 
ATOM     13  C   UNL     1      -5.381  12.584  19.099  0.00  0.00    +0.000 A 
ATOM     14  C   UNL     1      -4.174  12.373  19.773  0.00  0.00    +0.000 A 
ATOM     15  C   UNL     1      -3.101  11.805  19.063  0.00  0.00    +0.000 A 
ATOM     16  S   UNL     1      -1.519  11.420  19.608  0.00  0.00    +0.000 S 
ATOM     17  H   UNL     1       0.109  10.080  16.695  0.00  0.00    +0.000 HD
ENDBRANCH   4   7
BRANCH   1  18
ATOM     18  O   UNL     1       3.097   6.116  19.987  0.00  0.00    +0.000 OA
BRANCH  18  24
ATOM     19  C   UNL     1       3.206   3.960  18.910  0.00  0.00    +0.000 A 
ATOM     20  C   UNL     1       2.599   2.693  18.800  0.00  0.00    +0.000 A 
ATOM     21  C   UNL     1       1.433   2.371  19.487  0.00  0.00    +0.000 A 
ATOM     22  C   UNL     1       0.873   3.338  20.292  0.00  0.00    +0.000 A 
ATOM     23  N   UNL     1       1.376   4.581  20.432  0.00  0.00    +0.000 NA
ATOM     24  C   UNL     1       2.509   4.882  19.732  0.00  0.00    +0.000 A 
BRANCH  19  28
ATOM     25  C   UNL     1       6.249   5.887  16.831  0.00  0.00    +0.000 C 
ATOM     26  C   UNL     1       6.290   5.739  18.365  0.00  0.00    +0.000 C 
ATOM     27  C   UNL     1       5.682   4.426  18.898  0.00  0.00    +0.000 C 
ATOM     28  N   UNL     1       4.401   4.181  18.242  0.00  0.00    +0.000 N 
ATOM     29  C   UNL     1       4.456   4.137  16.780  0.00  0.00    +0.000 C 
ATOM     30  C   UNL     1       4.874   5.510  16.272  0.00  0.00    +0.000 C 
BRANCH  25  32
ATOM     31  C   UNL     1       7.191   4.930  14.848  0.00  0.00    +0.000 C 
ATOM     32  O   UNL     1       7.303   5.096  16.260  0.00  0.00    +0.000 OA
ENDBRANCH  25  32
ENDBRANCH  19  28
ENDBRANCH  18  24
ENDBRANCH   1  18
TORSDOF 5
ENDMDL
MODEL 2
REMARK VINA RESULT:      -9.1      2.445      2.984
REMARK  Name = 
REMARK  6 active torsions:
REMARK  status: ('A' for Active; 'I' for Inactive)
REMARK    1  A    between atoms: C_1  and  O_2
REMARK    2  A    between atoms: O_2  and  C_3
REMARK    3  A    between atoms: N_6  and  C_7
REMARK    4  A    between atoms: C_12  and  O_13
REMARK    5  A    between atoms: O_13  and  C_14
REMARK    6  A    between atoms: C_17  and  N_18
REMARK                            x       y       z     vdW  Elec       q    Type
REMARK                         _______ _______ _______ _____ _____    ______ ____
ROOT
ATOM      1  C   UNL     1       2.525   6.987  19.742  0.00  0.00    +0.000 A 
ATOM      2  C   UNL     1       2.742   7.475  18.453  0.00  0.00    +0.000 A 
ATOM      3  C   UNL     1       2.125   8.661  18.020  0.00  0.00    +0.000 A 
ATOM      4  C   UNL     1       1.244   9.380  18.850  0.00  0.00    +0.000 A 
ATOM      5  C   UNL     1       1.147   8.952  20.178  0.00  0.00    +0.000 A 
ATOM      6  C   UNL     1       1.759   7.758  20.615  0.00  0.00    +0.000 A 
ENDROOT
BRANCH   4   7
ATOM      7  N   UNL     1       0.546  10.482  18.291  0.00  0.00    +0.000 N 
ATOM      8  C   UNL     1       0.791  11.816  18.443  0.00  0.00    +0.000 A 
ATOM      9  N   UNL     1      -0.211  12.660  18.621  0.00  0.00    +0.000 NA
ATOM     10  C   UNL     1       0.239  13.964  18.746  0.00  0.00    +0.000 A 
ATOM     11  C   UNL     1      -0.557  15.105  18.989  0.00  0.00    +0.000 A 
ATOM     12  C   UNL     1       0.041  16.367  19.088  0.00  0.00    +0.000 A 
ATOM     13  C   UNL     1       1.417  16.508  18.942  0.00  0.00    +0.000 A 
ATOM     14  C   UNL     1       2.225  15.394  18.697  0.00  0.00    +0.000 A 
ATOM     15  C   UNL     1       1.615  14.130  18.610  0.00  0.00    +0.000 A 
ATOM     16  S   UNL     1       2.329  12.593  18.331  0.00  0.00    +0.000 S 
ATOM     17  H   UNL     1      -0.457  10.319  18.332  0.00  0.00    +0.000 HD
ENDBRANCH   4   7
BRANCH   1  18
ATOM     18  O   UNL     1       2.989   5.709  19.984  0.00  0.00    +0.000 OA
BRANCH  18  24
ATOM     19  C   UNL     1       3.019   3.806  18.502  0.00  0.00    +0.000 A 
ATOM     20  C   UNL     1       2.334   2.639  18.107  0.00  0.00    +0.000 A 
ATOM     21  C   UNL     1       1.106   2.284  18.654  0.00  0.00    +0.000 A 
ATOM     22  C   UNL     1       0.561   3.116  19.608  0.00  0.00    +0.000 A 
ATOM     23  N   UNL     1       1.139   4.261  20.021  0.00  0.00    +0.000 NA
ATOM     24  C   UNL     1       2.334   4.601  19.456  0.00  0.00    +0.000 A 
BRANCH  19  28
ATOM     25  C   UNL     1       6.265   5.839  16.881  0.00  0.00    +0.000 C 
ATOM     26  C   UNL     1       6.180   5.528  18.389  0.00  0.00    +0.000 C 
ATOM     27  C   UNL     1       5.499   4.188  18.729  0.00  0.00    +0.000 C 
ATOM     28  N   UNL     1       4.269   4.056  17.954  0.00  0.00    +0.000 N 
ATOM     29  C   UNL     1       4.438   4.164  16.505  0.00  0.00    +0.000 C 
ATOM     30  C   UNL     1       4.930   5.569  16.181  0.00  0.00    +0.000 C 
BRANCH  25  32
ATOM     31  C   UNL     1       7.213   4.874  14.904  0.00  0.00    +0.000 C 
ATOM     32  O   UNL     1       7.340   5.078  16.311  0.00  0.00    +0.000 OA
ENDBRANCH  25  32
ENDBRANCH  19  28
ENDBRANCH  18  24
ENDBRANCH   1  18
TORSDOF 5
ENDMDL
MODEL 3
REMARK VINA RESULT:      -9.0      2.893      3.644
REMARK  Name = 
REMARK  6 active torsions:
REMARK  status: ('A' for Active; 'I' for Inactive)
REMARK    1  A    between atoms: C_1  and  O_2
REMARK    2  A    between atoms: O_2  and  C_3
REMARK    3  A    between atoms: N_6  and  C_7
REMARK    4  A    between atoms: C_12  and  O_13
REMARK    5  A    between atoms: O_13  and  C_14
REMARK    6  A    between atoms: C_17  and  N_18
REMARK                            x       y       z     vdW  Elec       q    Type
REMARK                         _______ _______ _______ _____ _____    ______ ____
ROOT
ATOM      1  C   UNL     1       2.321   7.395  19.354  0.00  0.00    +0.000 A 
ATOM      2  C   UNL     1       1.622   8.118  20.322  0.00  0.00    +0.000 A 
ATOM      3  C   UNL     1       0.965   9.315  19.989  0.00  0.00    +0.000 A 
ATOM      4  C   UNL     1       1.014   9.846  18.687  0.00  0.00    +0.000 A 
ATOM      5  C   UNL     1       1.600   9.041  17.705  0.00  0.00    +0.000 A 
ATOM      6  C   UNL     1       2.267   7.842  18.035  0.00  0.00    +0.000 A 
ENDROOT
BRANCH   4   7
ATOM      7  N   UNL     1       0.454  11.131  18.466  0.00  0.00    +0.000 N 
ATOM      8  C   UNL     1       1.021  12.357  18.667  0.00  0.00    +0.000 A 
ATOM      9  N   UNL     1       0.316  13.334  19.211  0.00  0.00    +0.000 NA
ATOM     10  C   UNL     1       1.061  14.497  19.323  0.00  0.00    +0.000 A 
ATOM     11  C   UNL     1       0.632  15.713  19.898  0.00  0.00    +0.000 A 
ATOM     12  C   UNL     1       1.500  16.812  19.937  0.00  0.00    +0.000 A 
ATOM     13  C   UNL     1       2.782  16.716  19.409  0.00  0.00    +0.000 A 
ATOM     14  C   UNL     1       3.228  15.523  18.831  0.00  0.00    +0.000 A 
ATOM     15  C   UNL     1       2.351  14.423  18.806  0.00  0.00    +0.000 A 
ATOM     16  S   UNL     1       2.605  12.843  18.184  0.00  0.00    +0.000 S 
ATOM     17  H   UNL     1      -0.512  11.153  18.783  0.00  0.00    +0.000 HD
ENDBRANCH   4   7
BRANCH   1  18
ATOM     18  O   UNL     1       3.114   6.369  19.830  0.00  0.00    +0.000 OA
BRANCH  18  24
ATOM     19  C   UNL     1       3.408   4.066  19.177  0.00  0.00    +0.000 A 
ATOM     20  C   UNL     1       2.934   2.749  19.345  0.00  0.00    +0.000 A 
ATOM     21  C   UNL     1       1.836   2.457  20.147  0.00  0.00    +0.000 A 
ATOM     22  C   UNL     1       1.208   3.504  20.785  0.00  0.00    +0.000 A 
ATOM     23  N   UNL     1       1.582   4.792  20.658  0.00  0.00    +0.000 NA
ATOM     24  C   UNL     1       2.649   5.059  19.849  0.00  0.00    +0.000 A 
BRANCH  19  28
ATOM     25  C   UNL     1       6.284   5.933  16.826  0.00  0.00    +0.000 C 
ATOM     26  C   UNL     1       6.448   5.812  18.354  0.00  0.00    +0.000 C 
ATOM     27  C   UNL     1       5.878   4.513  18.958  0.00  0.00    +0.000 C 
ATOM     28  N   UNL     1       4.546   4.266  18.411  0.00  0.00    +0.000 N 
ATOM     29  C   UNL     1       4.483   4.195  16.951  0.00  0.00    +0.000 C 
ATOM     30  C   UNL     1       4.867   5.557  16.386  0.00  0.00    +0.000 C 
BRANCH  25  32
ATOM     31  C   UNL     1       7.046   4.915  14.795  0.00  0.00    +0.000 C 
ATOM     32  O   UNL     1       7.284   5.125  16.186  0.00  0.00    +0.000 OA
ENDBRANCH  25  32
ENDBRANCH  19  28
ENDBRANCH  18  24
ENDBRANCH   1  18
TORSDOF 5
ENDMDL
MODEL 4
REMARK VINA RESULT:      -8.7      1.696      2.198
REMARK  Name = 
REMARK  6 active torsions:
REMARK  status: ('A' for Active; 'I' for Inactive)
REMARK    1  A    between atoms: C_1  and  O_2
REMARK    2  A    between atoms: O_2  and  C_3
REMARK    3  A    between atoms: N_6  and  C_7
REMARK    4  A    between atoms: C_12  and  O_13
REMARK    5  A    between atoms: O_13  and  C_14
REMARK    6  A    between atoms: C_17  and  N_18
REMARK                            x       y       z     vdW  Elec       q    Type
REMARK                         _______ _______ _______ _____ _____    ______ ____
ROOT
ATOM      1  C   UNL     1       2.285   7.350  19.465  0.00  0.00    +0.000 A 
ATOM      2  C   UNL     1       1.620   7.807  20.603  0.00  0.00    +0.000 A 
ATOM      3  C   UNL     1       0.916   9.023  20.585  0.00  0.00    +0.000 A 
ATOM      4  C   UNL     1       0.882   9.838  19.438  0.00  0.00    +0.000 A 
ATOM      5  C   UNL     1       1.437   9.301  18.272  0.00  0.00    +0.000 A 
ATOM      6  C   UNL     1       2.151   8.084  18.287  0.00  0.00    +0.000 A 
ENDROOT
BRANCH   4   7
ATOM      7  N   UNL     1       0.279  11.119  19.544  0.00  0.00    +0.000 N 
ATOM      8  C   UNL     1      -0.691  11.538  20.409  0.00  0.00    +0.000 A 
ATOM      9  N   UNL     1      -1.680  12.303  19.978  0.00  0.00    +0.000 NA
ATOM     10  C   UNL     1      -2.554  12.629  21.002  0.00  0.00    +0.000 A 
ATOM     11  C   UNL     1      -3.737  13.391  20.882  0.00  0.00    +0.000 A 
ATOM     12  C   UNL     1      -4.523  13.644  22.014  0.00  0.00    +0.000 A 
ATOM     13  C   UNL     1      -4.144  13.153  23.258  0.00  0.00    +0.000 A 
ATOM     14  C   UNL     1      -2.975  12.400  23.402  0.00  0.00    +0.000 A 
ATOM     15  C   UNL     1      -2.199  12.144  22.258  0.00  0.00    +0.000 A 
ATOM     16  S   UNL     1      -0.737  11.255  22.111  0.00  0.00    +0.000 S 
ATOM     17  H   UNL     1       0.088  11.494  18.619  0.00  0.00    +0.000 HD
ENDBRANCH   4   7
BRANCH   1  18
ATOM     18  O   UNL     1       3.129   6.273  19.656  0.00  0.00    +0.000 OA
BRANCH  18  24
ATOM     19  C   UNL     1       3.393   3.985  18.939  0.00  0.00    +0.000 A 
ATOM     20  C   UNL     1       2.893   2.673  19.059  0.00  0.00    +0.000 A 
ATOM     21  C   UNL     1       1.775   2.377  19.832  0.00  0.00    +0.000 A 
ATOM     22  C   UNL     1       1.155   3.416  20.490  0.00  0.00    +0.000 A 
ATOM     23  N   UNL     1       1.555   4.700  20.408  0.00  0.00    +0.000 NA
ATOM     24  C   UNL     1       2.641   4.971  19.627  0.00  0.00    +0.000 A 
BRANCH  19  28
ATOM     25  C   UNL     1       6.344   5.867  16.694  0.00  0.00    +0.000 C 
ATOM     26  C   UNL     1       6.477   5.700  18.220  0.00  0.00    +0.000 C 
ATOM     27  C   UNL     1       5.874   4.396  18.777  0.00  0.00    +0.000 C 
ATOM     28  N   UNL     1       4.549   4.187  18.200  0.00  0.00    +0.000 N 
ATOM     29  C   UNL     1       4.511   4.159  16.737  0.00  0.00    +0.000 C 
ATOM     30  C   UNL     1       4.928   5.528  16.218  0.00  0.00    +0.000 C 
BRANCH  25  32
ATOM     31  C   UNL     1       7.124   4.893  14.650  0.00  0.00    +0.000 C 
ATOM     32  O   UNL     1       7.341   5.060  16.050  0.00  0.00    +0.000 OA
ENDBRANCH  25  32
ENDBRANCH  19  28
ENDBRANCH  18  24
ENDBRANCH   1  18
TORSDOF 5
ENDMDL
MODEL 5
REMARK VINA RESULT:      -8.6      1.240      1.601
REMARK  Name = 
REMARK  6 active torsions:
REMARK  status: ('A' for Active; 'I' for Inactive)
REMARK    1  A    between atoms: C_1  and  O_2
REMARK    2  A    between atoms: O_2  and  C_3
REMARK    3  A    between atoms: N_6  and  C_7
REMARK    4  A    between atoms: C_12  and  O_13
REMARK    5  A    between atoms: O_13  and  C_14
REMARK    6  A    between atoms: C_17  and  N_18
REMARK                            x       y       z     vdW  Elec       q    Type
REMARK                         _______ _______ _______ _____ _____    ______ ____
ROOT
ATOM      1  C   UNL     1       2.459   7.189  19.627  0.00  0.00    +0.000 A 
ATOM      2  C   UNL     1       2.423   7.743  18.347  0.00  0.00    +0.000 A 
ATOM      3  C   UNL     1       1.610   8.855  18.069  0.00  0.00    +0.000 A 
ATOM      4  C   UNL     1       0.781   9.428  19.052  0.00  0.00    +0.000 A 
ATOM      5  C   UNL     1       0.935   8.947  20.356  0.00  0.00    +0.000 A 
ATOM      6  C   UNL     1       1.744   7.826  20.639  0.00  0.00    +0.000 A 
ENDROOT
BRANCH   4   7
ATOM      7  N   UNL     1      -0.120  10.450  18.656  0.00  0.00    +0.000 N 
ATOM      8  C   UNL     1      -0.843  11.303  19.440  0.00  0.00    +0.000 A 
ATOM      9  N   UNL     1      -2.102  11.574  19.141  0.00  0.00    +0.000 NA
ATOM     10  C   UNL     1      -2.660  12.462  20.046  0.00  0.00    +0.000 A 
ATOM     11  C   UNL     1      -3.993  12.928  20.049  0.00  0.00    +0.000 A 
ATOM     12  C   UNL     1      -4.415  13.834  21.030  0.00  0.00    +0.000 A 
ATOM     13  C   UNL     1      -3.528  14.283  22.002  0.00  0.00    +0.000 A 
ATOM     14  C   UNL     1      -2.203  13.839  22.017  0.00  0.00    +0.000 A 
ATOM     15  C   UNL     1      -1.792  12.922  21.033  0.00  0.00    +0.000 A 
ATOM     16  S   UNL     1      -0.255  12.195  20.796  0.00  0.00    +0.000 S 
ATOM     17  H   UNL     1      -0.702  10.127  17.888  0.00  0.00    +0.000 HD
ENDBRANCH   4   7
BRANCH   1  18
ATOM     18  O   UNL     1       3.104   5.972  19.734  0.00  0.00    +0.000 OA
BRANCH  18  24
ATOM     19  C   UNL     1       3.151   3.908  18.485  0.00  0.00    +0.000 A 
ATOM     20  C   UNL     1       2.490   2.685  18.252  0.00  0.00    +0.000 A 
ATOM     21  C   UNL     1       1.288   2.366  18.875  0.00  0.00    +0.000 A 
ATOM     22  C   UNL     1       0.745   3.290  19.740  0.00  0.00    +0.000 A 
ATOM     23  N   UNL     1       1.300   4.491  19.998  0.00  0.00    +0.000 NA
ATOM     24  C   UNL     1       2.469   4.793  19.360  0.00  0.00    +0.000 A 
BRANCH  19  28
ATOM     25  C   UNL     1       6.366   5.853  16.705  0.00  0.00    +0.000 C 
ATOM     26  C   UNL     1       6.351   5.537  18.213  0.00  0.00    +0.000 C 
ATOM     27  C   UNL     1       5.649   4.215  18.584  0.00  0.00    +0.000 C 
ATOM     28  N   UNL     1       4.376   4.124  17.874  0.00  0.00    +0.000 N 
ATOM     29  C   UNL     1       4.473   4.236  16.418  0.00  0.00    +0.000 C 
ATOM     30  C   UNL     1       4.988   5.627  16.075  0.00  0.00    +0.000 C 
BRANCH  25  32
ATOM     31  C   UNL     1       7.218   4.932  14.665  0.00  0.00    +0.000 C 
ATOM     32  O   UNL     1       7.387   5.064  16.075  0.00  0.00    +0.000 OA
ENDBRANCH  25  32
ENDBRANCH  19  28
ENDBRANCH  18  24
ENDBRANCH   1  18
TORSDOF 5
ENDMDL
MODEL 6
REMARK VINA RESULT:      -8.6      2.384      2.919
REMARK  Name = 
REMARK  6 active torsions:
REMARK  status: ('A' for Active; 'I' for Inactive)
REMARK    1  A    between atoms: C_1  and  O_2
REMARK    2  A    between atoms: O_2  and  C_3
REMARK    3  A    between atoms: N_6  and  C_7
REMARK    4  A    between atoms: C_12  and  O_13
REMARK    5  A    between atoms: O_13  and  C_14
REMARK    6  A    between atoms: C_17  and  N_18
REMARK                            x       y       z     vdW  Elec       q    Type
REMARK                         _______ _______ _______ _____ _____    ______ ____
ROOT
ATOM      1  C   UNL     1       2.336   7.376  19.296  0.00  0.00    +0.000 A 
ATOM      2  C   UNL     1       1.592   8.071  20.250  0.00  0.00    +0.000 A 
ATOM      3  C   UNL     1       0.965   9.286  19.926  0.00  0.00    +0.000 A 
ATOM      4  C   UNL     1       1.090   9.862  18.649  0.00  0.00    +0.000 A 
ATOM      5  C   UNL     1       1.722   9.087  17.672  0.00  0.00    +0.000 A 
ATOM      6  C   UNL     1       2.359   7.870  17.993  0.00  0.00    +0.000 A 
ENDROOT
BRANCH   4   7
ATOM      7  N   UNL     1       0.554  11.161  18.444  0.00  0.00    +0.000 N 
ATOM      8  C   UNL     1       0.463  12.198  19.328  0.00  0.00    +0.000 A 
ATOM      9  N   UNL     1      -0.635  12.932  19.381  0.00  0.00    +0.000 NA
ATOM     10  C   UNL     1      -0.530  13.935  20.331  0.00  0.00    +0.000 A 
ATOM     11  C   UNL     1      -1.533  14.867  20.677  0.00  0.00    +0.000 A 
ATOM     12  C   UNL     1      -1.280  15.833  21.659  0.00  0.00    +0.000 A 
ATOM     13  C   UNL     1      -0.045  15.884  22.295  0.00  0.00    +0.000 A 
ATOM     14  C   UNL     1       0.964  14.974  21.967  0.00  0.00    +0.000 A 
ATOM     15  C   UNL     1       0.696  14.003  20.986  0.00  0.00    +0.000 A 
ATOM     16  S   UNL     1       1.713  12.759  20.379  0.00  0.00    +0.000 S 
ATOM     17  H   UNL     1      -0.305  11.106  17.904  0.00  0.00    +0.000 HD
ENDBRANCH   4   7
BRANCH   1  18
ATOM     18  O   UNL     1       3.093   6.325  19.777  0.00  0.00    +0.000 OA
BRANCH  18  24
ATOM     19  C   UNL     1       3.351   4.034  19.068  0.00  0.00    +0.000 A 
ATOM     20  C   UNL     1       2.849   2.723  19.194  0.00  0.00    +0.000 A 
ATOM     21  C   UNL     1       1.734   2.432  19.973  0.00  0.00    +0.000 A 
ATOM     22  C   UNL     1       1.118   3.474  20.630  0.00  0.00    +0.000 A 
ATOM     23  N   UNL     1       1.519   4.758  20.542  0.00  0.00    +0.000 NA
ATOM     24  C   UNL     1       2.603   5.024  19.755  0.00  0.00    +0.000 A 
BRANCH  19  28
ATOM     25  C   UNL     1       6.301   5.906  16.813  0.00  0.00    +0.000 C 
ATOM     26  C   UNL     1       6.441   5.732  18.338  0.00  0.00    +0.000 C 
ATOM     27  C   UNL     1       5.833   4.430  18.894  0.00  0.00    +0.000 C 
ATOM     28  N   UNL     1       4.504   4.231  18.323  0.00  0.00    +0.000 N 
ATOM     29  C   UNL     1       4.458   4.208  16.860  0.00  0.00    +0.000 C 
ATOM     30  C   UNL     1       4.881   5.577  16.343  0.00  0.00    +0.000 C 
BRANCH  25  32
ATOM     31  C   UNL     1       7.069   4.939  14.760  0.00  0.00    +0.000 C 
ATOM     32  O   UNL     1       7.290   5.095  16.161  0.00  0.00    +0.000 OA
ENDBRANCH  25  32
ENDBRANCH  19  28
ENDBRANCH  18  24
ENDBRANCH   1  18
TORSDOF 5
ENDMDL
MODEL 7
REMARK VINA RESULT:      -8.6      0.693      1.242
REMARK  Name = 
REMARK  6 active torsions:
REMARK  status: ('A' for Active; 'I' for Inactive)
REMARK    1  A    between atoms: C_1  and  O_2
REMARK    2  A    between atoms: O_2  and  C_3
REMARK    3  A    between atoms: N_6  and  C_7
REMARK    4  A    between atoms: C_12  and  O_13
REMARK    5  A    between atoms: O_13  and  C_14
REMARK    6  A    between atoms: C_17  and  N_18
REMARK                            x       y       z     vdW  Elec       q    Type
REMARK                         _______ _______ _______ _____ _____    ______ ____
ROOT
ATOM      1  C   UNL     1       2.310   7.404  19.634  0.00  0.00    +0.000 A 
ATOM      2  C   UNL     1       2.494   7.735  18.291  0.00  0.00    +0.000 A 
ATOM      3  C   UNL     1       1.751   8.769  17.697  0.00  0.00    +0.000 A 
ATOM      4  C   UNL     1       0.775   9.483  18.417  0.00  0.00    +0.000 A 
ATOM      5  C   UNL     1       0.702   9.231  19.791  0.00  0.00    +0.000 A 
ATOM      6  C   UNL     1       1.441   8.189  20.390  0.00  0.00    +0.000 A 
ENDROOT
BRANCH   4   7
ATOM      7  N   UNL     1      -0.037  10.408  17.710  0.00  0.00    +0.000 N 
ATOM      8  C   UNL     1      -1.273  10.887  18.038  0.00  0.00    +0.000 A 
ATOM      9  N   UNL     1      -2.205  11.013  17.110  0.00  0.00    +0.000 NA
ATOM     10  C   UNL     1      -3.381  11.521  17.637  0.00  0.00    +0.000 A 
ATOM     11  C   UNL     1      -4.588  11.738  16.935  0.00  0.00    +0.000 A 
ATOM     12  C   UNL     1      -5.700  12.265  17.603  0.00  0.00    +0.000 A 
ATOM     13  C   UNL     1      -5.625  12.581  18.955  0.00  0.00    +0.000 A 
ATOM     14  C   UNL     1      -4.441  12.379  19.670  0.00  0.00    +0.000 A 
ATOM     15  C   UNL     1      -3.333  11.840  18.991  0.00  0.00    +0.000 A 
ATOM     16  S   UNL     1      -1.766  11.471  19.587  0.00  0.00    +0.000 S 
ATOM     17  H   UNL     1      -0.009  10.209  16.713  0.00  0.00    +0.000 HD
ENDBRANCH   4   7
BRANCH   1  18
ATOM     18  O   UNL     1       2.916   6.235  20.050  0.00  0.00    +0.000 OA
BRANCH  18  24
ATOM     19  C   UNL     1       3.246   4.389  18.532  0.00  0.00    +0.000 A 
ATOM     20  C   UNL     1       2.822   3.092  18.183  0.00  0.00    +0.000 A 
ATOM     21  C   UNL     1       1.775   2.455  18.842  0.00  0.00    +0.000 A 
ATOM     22  C   UNL     1       1.150   3.136  19.863  0.00  0.00    +0.000 A 
ATOM     23  N   UNL     1       1.478   4.387  20.241  0.00  0.00    +0.000 NA
ATOM     24  C   UNL     1       2.493   5.001  19.566  0.00  0.00    +0.000 A 
BRANCH  19  28
ATOM     25  C   UNL     1       7.050   4.791  16.900  0.00  0.00    +0.000 C 
ATOM     26  C   UNL     1       5.861   4.288  16.058  0.00  0.00    +0.000 C 
ATOM     27  C   UNL     1       4.506   4.928  16.417  0.00  0.00    +0.000 C 
ATOM     28  N   UNL     1       4.337   4.929  17.867  0.00  0.00    +0.000 N 
ATOM     29  C   UNL     1       5.406   5.597  18.611  0.00  0.00    +0.000 C 
ATOM     30  C   UNL     1       6.701   4.826  18.391  0.00  0.00    +0.000 C 
BRANCH  25  32
ATOM     31  C   UNL     1       7.651   7.047  17.435  0.00  0.00    +0.000 C 
ATOM     32  O   UNL     1       7.457   6.076  16.408  0.00  0.00    +0.000 OA
ENDBRANCH  25  32
ENDBRANCH  19  28
ENDBRANCH  18  24
ENDBRANCH   1  18
TORSDOF 5
ENDMDL
MODEL 8
REMARK VINA RESULT:      -8.6      2.949      3.770
REMARK  Name = 
REMARK  6 active torsions:
REMARK  status: ('A' for Active; 'I' for Inactive)
REMARK    1  A    between atoms: C_1  and  O_2
REMARK    2  A    between atoms: O_2  and  C_3
REMARK    3  A    between atoms: N_6  and  C_7
REMARK    4  A    between atoms: C_12  and  O_13
REMARK    5  A    between atoms: O_13  and  C_14
REMARK    6  A    between atoms: C_17  and  N_18
REMARK                            x       y       z     vdW  Elec       q    Type
REMARK                         _______ _______ _______ _____ _____    ______ ____
ROOT
ATOM      1  C   UNL     1       2.264   7.538  19.396  0.00  0.00    +0.000 A 
ATOM      2  C   UNL     1       1.510   8.236  20.340  0.00  0.00    +0.000 A 
ATOM      3  C   UNL     1       0.845   9.424  19.993  0.00  0.00    +0.000 A 
ATOM      4  C   UNL     1       0.940   9.971  18.699  0.00  0.00    +0.000 A 
ATOM      5  C   UNL     1       1.583   9.189  17.735  0.00  0.00    +0.000 A 
ATOM      6  C   UNL     1       2.259   7.999  18.080  0.00  0.00    +0.000 A 
ENDROOT
BRANCH   4   7
ATOM      7  N   UNL     1       0.365  11.249  18.468  0.00  0.00    +0.000 N 
ATOM      8  C   UNL     1       0.917  12.482  18.660  0.00  0.00    +0.000 A 
ATOM      9  N   UNL     1       0.200  13.455  19.196  0.00  0.00    +0.000 NA
ATOM     10  C   UNL     1       0.932  14.627  19.300  0.00  0.00    +0.000 A 
ATOM     11  C   UNL     1       0.488  15.843  19.866  0.00  0.00    +0.000 A 
ATOM     12  C   UNL     1       1.343  16.952  19.898  0.00  0.00    +0.000 A 
ATOM     13  C   UNL     1       2.627  16.867  19.371  0.00  0.00    +0.000 A 
ATOM     14  C   UNL     1       3.087  15.675  18.803  0.00  0.00    +0.000 A 
ATOM     15  C   UNL     1       2.223  14.565  18.786  0.00  0.00    +0.000 A 
ATOM     16  S   UNL     1       2.497  12.983  18.175  0.00  0.00    +0.000 S 
ATOM     17  H   UNL     1      -0.601  11.261  18.784  0.00  0.00    +0.000 HD
ENDBRANCH   4   7
BRANCH   1  18
ATOM     18  O   UNL     1       3.056   6.522  19.895  0.00  0.00    +0.000 OA
BRANCH  18  24
ATOM     19  C   UNL     1       3.318   4.354  18.870  0.00  0.00    +0.000 A 
ATOM     20  C   UNL     1       2.934   2.999  18.923  0.00  0.00    +0.000 A 
ATOM     21  C   UNL     1       2.011   2.528  19.851  0.00  0.00    +0.000 A 
ATOM     22  C   UNL     1       1.468   3.435  20.735  0.00  0.00    +0.000 A 
ATOM     23  N   UNL     1       1.763   4.750  20.735  0.00  0.00    +0.000 NA
ATOM     24  C   UNL     1       2.654   5.194  19.801  0.00  0.00    +0.000 A 
BRANCH  19  28
ATOM     25  C   UNL     1       6.867   4.406  16.704  0.00  0.00    +0.000 C 
ATOM     26  C   UNL     1       5.610   3.687  16.174  0.00  0.00    +0.000 C 
ATOM     27  C   UNL     1       4.278   4.371  16.541  0.00  0.00    +0.000 C 
ATOM     28  N   UNL     1       4.290   4.731  17.957  0.00  0.00    +0.000 N 
ATOM     29  C   UNL     1       5.407   5.583  18.367  0.00  0.00    +0.000 C 
ATOM     30  C   UNL     1       6.702   4.805  18.173  0.00  0.00    +0.000 C 
BRANCH  25  32
ATOM     31  C   UNL     1       7.142   5.225  14.470  0.00  0.00    +0.000 C 
ATOM     32  O   UNL     1       7.145   5.535  15.863  0.00  0.00    +0.000 OA
ENDBRANCH  25  32
ENDBRANCH  19  28
ENDBRANCH  18  24
ENDBRANCH   1  18
TORSDOF 5
ENDMDL
MODEL 9
REMARK VINA RESULT:      -8.5      2.828      3.504
REMARK  Name = 
REMARK  6 active torsions:
REMARK  status: ('A' for Active; 'I' for Inactive)
REMARK    1  A    between atoms: C_1  and  O_2
REMARK    2  A    between atoms: O_2  and  C_3
REMARK    3  A    between atoms: N_6  and  C_7
REMARK    4  A    between atoms: C_12  and  O_13
REMARK    5  A    between atoms: O_13  and  C_14
REMARK    6  A    between atoms: C_17  and  N_18
REMARK                            x       y       z     vdW  Elec       q    Type
REMARK                         _______ _______ _______ _____ _____    ______ ____
ROOT
ATOM      1  C   UNL     1       2.110   7.335  19.800  0.00  0.00    +0.000 A 
ATOM      2  C   UNL     1       2.244   7.763  18.479  0.00  0.00    +0.000 A 
ATOM      3  C   UNL     1       1.679   8.979  18.058  0.00  0.00    +0.000 A 
ATOM      4  C   UNL     1       0.933   9.789  18.934  0.00  0.00    +0.000 A 
ATOM      5  C   UNL     1       0.927   9.412  20.281  0.00  0.00    +0.000 A 
ATOM      6  C   UNL     1       1.486   8.189  20.708  0.00  0.00    +0.000 A 
ENDROOT
BRANCH   4   7
ATOM      7  N   UNL     1       0.269  10.923  18.398  0.00  0.00    +0.000 N 
ATOM      8  C   UNL     1       0.588  12.244  18.532  0.00  0.00    +0.000 A 
ATOM      9  N   UNL     1      -0.361  13.138  18.746  0.00  0.00    +0.000 NA
ATOM     10  C   UNL     1       0.159  14.418  18.846  0.00  0.00    +0.000 A 
ATOM     11  C   UNL     1      -0.568  15.599  19.115  0.00  0.00    +0.000 A 
ATOM     12  C   UNL     1       0.098  16.830  19.182  0.00  0.00    +0.000 A 
ATOM     13  C   UNL     1       1.472  16.899  18.981  0.00  0.00    +0.000 A 
ATOM     14  C   UNL     1       2.212  15.745  18.709  0.00  0.00    +0.000 A 
ATOM     15  C   UNL     1       1.535  14.513  18.654  0.00  0.00    +0.000 A 
ATOM     16  S   UNL     1       2.158  12.941  18.355  0.00  0.00    +0.000 S 
ATOM     17  H   UNL     1      -0.738  10.812  18.480  0.00  0.00    +0.000 HD
ENDBRANCH   4   7
BRANCH   1  18
ATOM     18  O   UNL     1       2.498   6.032  20.049  0.00  0.00    +0.000 OA
BRANCH  18  24
ATOM     19  C   UNL     1       3.629   4.886  18.252  0.00  0.00    +0.000 A 
ATOM     20  C   UNL     1       3.553   3.818  17.337  0.00  0.00    +0.000 A 
ATOM     21  C   UNL     1       2.437   2.992  17.257  0.00  0.00    +0.000 A 
ATOM     22  C   UNL     1       1.385   3.248  18.109  0.00  0.00    +0.000 A 
ATOM     23  N   UNL     1       1.368   4.263  18.995  0.00  0.00    +0.000 NA
ATOM     24  C   UNL     1       2.465   5.074  19.041  0.00  0.00    +0.000 A 
BRANCH  19  28
ATOM     25  C   UNL     1       7.578   6.044  17.661  0.00  0.00    +0.000 C 
ATOM     26  C   UNL     1       6.445   6.553  16.749  0.00  0.00    +0.000 C 
ATOM     27  C   UNL     1       5.098   6.775  17.464  0.00  0.00    +0.000 C 
ATOM     28  N   UNL     1       4.802   5.624  18.312  0.00  0.00    +0.000 N 
ATOM     29  C   UNL     1       5.833   5.304  19.300  0.00  0.00    +0.000 C 
ATOM     30  C   UNL     1       7.100   4.899  18.558  0.00  0.00    +0.000 C 
BRANCH  25  32
ATOM     31  C   UNL     1       8.046   8.392  17.723  0.00  0.00    +0.000 C 
ATOM     32  O   UNL     1       8.095   7.148  18.419  0.00  0.00    +0.000 OA
ENDBRANCH  25  32
ENDBRANCH  19  28
ENDBRANCH  18  24
ENDBRANCH   1  18
TORSDOF 5
ENDMDL
