MODEL 1
REMARK VINA RESULT:      -7.0      0.000      0.000
REMARK  Name = 
REMARK  10 active torsions:
REMARK  status: ('A' for Active; 'I' for Inactive)
REMARK    1  A    between atoms: C_2  and  C_3
REMARK    2  A    between atoms: C_3  and  C_4
REMARK    3  A    between atoms: C_3  and  C_6
REMARK    4  A    between atoms: C_3  and  N_8
REMARK    5  A    between atoms: C_4  and  C_5
REMARK    6  A    between atoms: C_6  and  C_7
REMARK    7  A    between atoms: C_9  and  C_11
REMARK    8  A    between atoms: C_11  and  S_12
REMARK    9  A    between atoms: S_12  and  C_13
REMARK   10  A    between atoms: C_15  and  C_16
REMARK                            x       y       z     vdW  Elec       q    Type
REMARK                         _______ _______ _______ _____ _____    ______ ____
ROOT
ATOM      1  S   UNL     1       2.176   7.485  19.626  0.00  0.00    +0.000 S 
ENDROOT
BRANCH   1   2
ATOM      2  C   UNL     1       2.387   5.730  19.585  0.00  0.00    +0.000 A 
ATOM      3  N   UNL     1       1.746   4.953  20.476  0.00  0.00    +0.000 NA
ATOM      4  C   UNL     1       1.958   3.623  20.450  0.00  0.00    +0.000 A 
ATOM      5  C   UNL     1       1.262   2.821  21.508  0.00  0.00    +0.000 C 
ATOM      6  N   UNL     1       2.733   2.962  19.577  0.00  0.00    +0.000 NA
ATOM      7  C   UNL     1       3.346   3.765  18.689  0.00  0.00    +0.000 A 
ATOM      8  S   UNL     1       4.392   3.116  17.479  0.00  0.00    +0.000 S 
ATOM      9  C   UNL     1       4.702   4.651  16.890  0.00  0.00    +0.000 A 
ATOM     10  C   UNL     1       4.055   5.642  17.576  0.00  0.00    +0.000 A 
ATOM     11  C   UNL     1       3.237   5.155  18.628  0.00  0.00    +0.000 A 
ATOM     12  C   UNL     1       4.411   6.977  17.030  0.00  0.00    +0.000 C 
ATOM     13  C   UNL     1       5.047   6.620  15.659  0.00  0.00    +0.000 C 
ATOM     14  C   UNL     1       5.556   5.148  15.779  0.00  0.00    +0.000 C 
ENDBRANCH   1   2
BRANCH   1  15
ATOM     15  C   UNL     1       1.270   7.703  21.189  0.00  0.00    +0.000 C 
BRANCH  15  17
ATOM     16  N   UNL     1       0.055   9.734  20.438  0.00  0.00    +0.000 N 
ATOM     17  C   UNL     1       0.927   9.174  21.368  0.00  0.00    +0.000 C 
ATOM     18  O   UNL     1       1.387   9.805  22.327  0.00  0.00    +0.000 OA
ATOM     19  H   UNL     1      -0.233   9.172  19.648  0.00  0.00    +0.000 HD
BRANCH  16  20
ATOM     20  C   UNL     1      -0.329  11.156  20.464  0.00  0.00    +0.000 C 
BRANCH  20  22
ATOM     21  C   UNL     1      -1.490  11.900  22.930  0.00  0.00    +0.000 C 
ATOM     22  C   UNL     1      -0.954  11.556  21.791  0.00  0.00    +0.000 C 
ENDBRANCH  20  22
BRANCH  20  23
ATOM     23  C   UNL     1      -1.390  11.460  19.362  0.00  0.00    +0.000 C 
ATOM     24  C   UNL     1      -1.656  10.282  18.421  0.00  0.00    +0.000 C 
ENDBRANCH  20  23
BRANCH  20  25
ATOM     25  C   UNL     1       0.938  12.046  20.267  0.00  0.00    +0.000 C 
ATOM     26  C   UNL     1       1.601  11.902  18.892  0.00  0.00    +0.000 C 
ENDBRANCH  20  25
ENDBRANCH  16  20
ENDBRANCH  15  17
ENDBRANCH   1  15
TORSDOF 7
ENDMDL
MODEL 2
REMARK VINA RESULT:      -6.9      1.975      4.071
REMARK  Name = 
REMARK  10 active torsions:
REMARK  status: ('A' for Active; 'I' for Inactive)
REMARK    1  A    between atoms: C_2  and  C_3
REMARK    2  A    between atoms: C_3  and  C_4
REMARK    3  A    between atoms: C_3  and  C_6
REMARK    4  A    between atoms: C_3  and  N_8
REMARK    5  A    between atoms: C_4  and  C_5
REMARK    6  A    between atoms: C_6  and  C_7
REMARK    7  A    between atoms: C_9  and  C_11
REMARK    8  A    between atoms: C_11  and  S_12
REMARK    9  A    between atoms: S_12  and  C_13
REMARK   10  A    between atoms: C_15  and  C_16
REMARK                            x       y       z     vdW  Elec       q    Type
REMARK                         _______ _______ _______ _____ _____    ______ ____
ROOT
ATOM      1  S   UNL     1       2.648   7.249  18.809  0.00  0.00    +0.000 S 
ENDROOT
BRANCH   1   2
ATOM      2  C   UNL     1       3.477   5.926  17.980  0.00  0.00    +0.000 A 
ATOM      3  N   UNL     1       4.377   6.193  17.016  0.00  0.00    +0.000 NA
ATOM      4  C   UNL     1       4.962   5.166  16.371  0.00  0.00    +0.000 A 
ATOM      5  C   UNL     1       5.906   5.531  15.265  0.00  0.00    +0.000 C 
ATOM      6  N   UNL     1       4.770   3.862  16.620  0.00  0.00    +0.000 NA
ATOM      7  C   UNL     1       3.880   3.629  17.601  0.00  0.00    +0.000 A 
ATOM      8  S   UNL     1       3.486   2.018  18.078  0.00  0.00    +0.000 S 
ATOM      9  C   UNL     1       2.404   2.593  19.216  0.00  0.00    +0.000 A 
ATOM     10  C   UNL     1       2.316   3.959  19.248  0.00  0.00    +0.000 A 
ATOM     11  C   UNL     1       3.183   4.598  18.323  0.00  0.00    +0.000 A 
ATOM     12  C   UNL     1       1.308   4.397  20.245  0.00  0.00    +0.000 C 
ATOM     13  C   UNL     1       1.096   3.114  21.095  0.00  0.00    +0.000 C 
ATOM     14  C   UNL     1       1.507   1.912  20.187  0.00  0.00    +0.000 C 
ENDBRANCH   1   2
BRANCH   1  15
ATOM     15  C   UNL     1       2.781   8.585  17.582  0.00  0.00    +0.000 C 
BRANCH  15  17
ATOM     16  N   UNL     1       1.114   9.582  19.128  0.00  0.00    +0.000 N 
ATOM     17  C   UNL     1       1.988   9.790  18.065  0.00  0.00    +0.000 C 
ATOM     18  O   UNL     1       2.164  10.897  17.542  0.00  0.00    +0.000 OA
ATOM     19  H   UNL     1       0.979   8.637  19.463  0.00  0.00    +0.000 HD
BRANCH  16  20
ATOM     20  C   UNL     1       0.252  10.647  19.668  0.00  0.00    +0.000 C 
BRANCH  20  22
ATOM     21  C   UNL     1       1.748  12.846  20.621  0.00  0.00    +0.000 C 
ATOM     22  C   UNL     1       1.057  11.831  20.181  0.00  0.00    +0.000 C 
ENDBRANCH  20  22
BRANCH  20  23
ATOM     23  C   UNL     1      -0.584  10.121  20.875  0.00  0.00    +0.000 C 
ATOM     24  C   UNL     1      -0.018   8.846  21.507  0.00  0.00    +0.000 C 
ENDBRANCH  20  23
BRANCH  20  25
ATOM     25  C   UNL     1      -0.687  11.186  18.544  0.00  0.00    +0.000 C 
ATOM     26  C   UNL     1      -1.919  10.312  18.281  0.00  0.00    +0.000 C 
ENDBRANCH  20  25
ENDBRANCH  16  20
ENDBRANCH  15  17
ENDBRANCH   1  15
TORSDOF 7
ENDMDL
MODEL 3
REMARK VINA RESULT:      -6.9      1.986      4.193
REMARK  Name = 
REMARK  10 active torsions:
REMARK  status: ('A' for Active; 'I' for Inactive)
REMARK    1  A    between atoms: C_2  and  C_3
REMARK    2  A    between atoms: C_3  and  C_4
REMARK    3  A    between atoms: C_3  and  C_6
REMARK    4  A    between atoms: C_3  and  N_8
REMARK    5  A    between atoms: C_4  and  C_5
REMARK    6  A    between atoms: C_6  and  C_7
REMARK    7  A    between atoms: C_9  and  C_11
REMARK    8  A    between atoms: C_11  and  S_12
REMARK    9  A    between atoms: S_12  and  C_13
REMARK   10  A    between atoms: C_15  and  C_16
REMARK                            x       y       z     vdW  Elec       q    Type
REMARK                         _______ _______ _______ _____ _____    ______ ____
ROOT
ATOM      1  S   UNL     1       2.780   7.168  18.830  0.00  0.00    +0.000 S 
ENDROOT
BRANCH   1   2
ATOM      2  C   UNL     1       3.535   5.818  17.975  0.00  0.00    +0.000 A 
ATOM      3  N   UNL     1       4.405   6.054  16.977  0.00  0.00    +0.000 NA
ATOM      4  C   UNL     1       4.933   5.007  16.314  0.00  0.00    +0.000 A 
ATOM      5  C   UNL     1       5.847   5.339  15.173  0.00  0.00    +0.000 C 
ATOM      6  N   UNL     1       4.710   3.710  16.576  0.00  0.00    +0.000 NA
ATOM      7  C   UNL     1       3.850   3.508  17.590  0.00  0.00    +0.000 A 
ATOM      8  S   UNL     1       3.423   1.911  18.086  0.00  0.00    +0.000 S 
ATOM      9  C   UNL     1       2.403   2.524  19.262  0.00  0.00    +0.000 A 
ATOM     10  C   UNL     1       2.360   3.891  19.292  0.00  0.00    +0.000 A 
ATOM     11  C   UNL     1       3.211   4.501  18.334  0.00  0.00    +0.000 A 
ATOM     12  C   UNL     1       1.404   4.364  20.325  0.00  0.00    +0.000 C 
ATOM     13  C   UNL     1       1.183   3.090  21.186  0.00  0.00    +0.000 C 
ATOM     14  C   UNL     1       1.522   1.873  20.268  0.00  0.00    +0.000 C 
ENDBRANCH   1   2
BRANCH   1  15
ATOM     15  C   UNL     1       2.809   8.466  17.555  0.00  0.00    +0.000 C 
BRANCH  15  17
ATOM     16  N   UNL     1       1.003   9.356  19.007  0.00  0.00    +0.000 N 
ATOM     17  C   UNL     1       1.918   9.618  17.992  0.00  0.00    +0.000 C 
ATOM     18  O   UNL     1       2.053  10.735  17.476  0.00  0.00    +0.000 OA
ATOM     19  H   UNL     1       0.910   8.404  19.338  0.00  0.00    +0.000 HD
BRANCH  16  20
ATOM     20  C   UNL     1       0.049  10.364  19.498  0.00  0.00    +0.000 C 
BRANCH  20  22
ATOM     21  C   UNL     1      -2.333  10.403  17.980  0.00  0.00    +0.000 C 
ATOM     22  C   UNL     1      -1.233  10.386  18.681  0.00  0.00    +0.000 C 
ENDBRANCH  20  22
BRANCH  20  23
ATOM     23  C   UNL     1       0.662  11.795  19.403  0.00  0.00    +0.000 C 
ATOM     24  C   UNL     1       1.080  12.378  20.756  0.00  0.00    +0.000 C 
ENDBRANCH  20  23
BRANCH  20  25
ATOM     25  C   UNL     1      -0.352  10.036  20.971  0.00  0.00    +0.000 C 
ATOM     26  C   UNL     1       0.108   8.656  21.456  0.00  0.00    +0.000 C 
ENDBRANCH  20  25
ENDBRANCH  16  20
ENDBRANCH  15  17
ENDBRANCH   1  15
TORSDOF 7
ENDMDL
MODEL 4
REMARK VINA RESULT:      -6.9      2.350      3.940
REMARK  Name = 
REMARK  10 active torsions:
REMARK  status: ('A' for Active; 'I' for Inactive)
REMARK    1  A    between atoms: C_2  and  C_3
REMARK    2  A    between atoms: C_3  and  C_4
REMARK    3  A    between atoms: C_3  and  C_6
REMARK    4  A    between atoms: C_3  and  N_8
REMARK    5  A    between atoms: C_4  and  C_5
REMARK    6  A    between atoms: C_6  and  C_7
REMARK    7  A    between atoms: C_9  and  C_11
REMARK    8  A    between atoms: C_11  and  S_12
REMARK    9  A    between atoms: S_12  and  C_13
REMARK   10  A    between atoms: C_15  and  C_16
REMARK                            x       y       z     vdW  Elec       q    Type
REMARK                         _______ _______ _______ _____ _____    ______ ____
ROOT
ATOM      1  S   UNL     1       3.174   7.023  17.435  0.00  0.00    +0.000 S 
ENDROOT
BRANCH   1   2
ATOM      2  C   UNL     1       4.361   5.941  18.173  0.00  0.00    +0.000 A 
ATOM      3  N   UNL     1       5.634   6.346  18.333  0.00  0.00    +0.000 NA
ATOM      4  C   UNL     1       6.528   5.486  18.857  0.00  0.00    +0.000 A 
ATOM      5  C   UNL     1       7.942   5.976  18.951  0.00  0.00    +0.000 C 
ATOM      6  N   UNL     1       6.271   4.242  19.290  0.00  0.00    +0.000 NA
ATOM      7  C   UNL     1       4.987   3.875  19.133  0.00  0.00    +0.000 A 
ATOM      8  S   UNL     1       4.445   2.312  19.624  0.00  0.00    +0.000 S 
ATOM      9  C   UNL     1       2.895   2.658  19.100  0.00  0.00    +0.000 A 
ATOM     10  C   UNL     1       2.766   3.908  18.557  0.00  0.00    +0.000 A 
ATOM     11  C   UNL     1       3.973   4.655  18.576  0.00  0.00    +0.000 A 
ATOM     12  C   UNL     1       1.380   4.131  18.073  0.00  0.00    +0.000 C 
ATOM     13  C   UNL     1       0.594   2.987  18.771  0.00  0.00    +0.000 C 
ATOM     14  C   UNL     1       1.635   1.869  19.094  0.00  0.00    +0.000 C 
ENDBRANCH   1   2
BRANCH   1  15
ATOM     15  C   UNL     1       2.327   7.685  18.903  0.00  0.00    +0.000 C 
BRANCH  15  17
ATOM     16  N   UNL     1       1.008   9.679  19.575  0.00  0.00    +0.000 N 
ATOM     17  C   UNL     1       1.713   9.034  18.562  0.00  0.00    +0.000 C 
ATOM     18  O   UNL     1       1.885   9.526  17.440  0.00  0.00    +0.000 OA
ATOM     19  H   UNL     1       0.860   9.187  20.447  0.00  0.00    +0.000 HD
BRANCH  16  20
ATOM     20  C   UNL     1       0.326  10.968  19.373  0.00  0.00    +0.000 C 
BRANCH  20  22
ATOM     21  C   UNL     1       2.068  12.945  18.355  0.00  0.00    +0.000 C 
ATOM     22  C   UNL     1       1.264  12.033  18.825  0.00  0.00    +0.000 C 
ENDBRANCH  20  22
BRANCH  20  23
ATOM     23  C   UNL     1      -0.229  11.516  20.723  0.00  0.00    +0.000 C 
ATOM     24  C   UNL     1      -0.429  10.436  21.790  0.00  0.00    +0.000 C 
ENDBRANCH  20  23
BRANCH  20  25
ATOM     25  C   UNL     1      -0.827  10.796  18.335  0.00  0.00    +0.000 C 
ATOM     26  C   UNL     1      -1.797  11.981  18.269  0.00  0.00    +0.000 C 
ENDBRANCH  20  25
ENDBRANCH  16  20
ENDBRANCH  15  17
ENDBRANCH   1  15
TORSDOF 7
ENDMDL
MODEL 5
REMARK VINA RESULT:      -6.8      0.507      1.639
REMARK  Name = 
REMARK  10 active torsions:
REMARK  status: ('A' for Active; 'I' for Inactive)
REMARK    1  A    between atoms: C_2  and  C_3
REMARK    2  A    between atoms: C_3  and  C_4
REMARK    3  A    between atoms: C_3  and  C_6
REMARK    4  A    between atoms: C_3  and  N_8
REMARK    5  A    between atoms: C_4  and  C_5
REMARK    6  A    between atoms: C_6  and  C_7
REMARK    7  A    between atoms: C_9  and  C_11
REMARK    8  A    between atoms: C_11  and  S_12
REMARK    9  A    between atoms: S_12  and  C_13
REMARK   10  A    between atoms: C_15  and  C_16
REMARK                            x       y       z     vdW  Elec       q    Type
REMARK                         _______ _______ _______ _____ _____    ______ ____
ROOT
ATOM      1  S   UNL     1       2.178   7.465  19.761  0.00  0.00    +0.000 S 
ENDROOT
BRANCH   1   2
ATOM      2  C   UNL     1       2.383   5.711  19.675  0.00  0.00    +0.000 A 
ATOM      3  N   UNL     1       1.754   4.915  20.559  0.00  0.00    +0.000 NA
ATOM      4  C   UNL     1       1.962   3.586  20.499  0.00  0.00    +0.000 A 
ATOM      5  C   UNL     1       1.282   2.761  21.551  0.00  0.00    +0.000 C 
ATOM      6  N   UNL     1       2.720   2.943  19.598  0.00  0.00    +0.000 NA
ATOM      7  C   UNL     1       3.320   3.765  18.718  0.00  0.00    +0.000 A 
ATOM      8  S   UNL     1       4.343   3.140  17.476  0.00  0.00    +0.000 S 
ATOM      9  C   UNL     1       4.648   4.688  16.917  0.00  0.00    +0.000 A 
ATOM     10  C   UNL     1       4.016   5.665  17.637  0.00  0.00    +0.000 A 
ATOM     11  C   UNL     1       3.214   5.156  18.692  0.00  0.00    +0.000 A 
ATOM     12  C   UNL     1       4.366   7.010  17.116  0.00  0.00    +0.000 C 
ATOM     13  C   UNL     1       4.977   6.683  15.726  0.00  0.00    +0.000 C 
ATOM     14  C   UNL     1       5.484   5.208  15.803  0.00  0.00    +0.000 C 
ENDBRANCH   1   2
BRANCH   1  15
ATOM     15  C   UNL     1       1.154   7.637  21.255  0.00  0.00    +0.000 C 
BRANCH  15  17
ATOM     16  N   UNL     1      -0.025   9.760  20.739  0.00  0.00    +0.000 N 
ATOM     17  C   UNL     1       0.918   9.114  21.533  0.00  0.00    +0.000 C 
ATOM     18  O   UNL     1       1.523   9.674  22.455  0.00  0.00    +0.000 OA
ATOM     19  H   UNL     1      -0.436   9.251  19.967  0.00  0.00    +0.000 HD
BRANCH  16  20
ATOM     20  C   UNL     1      -0.323  11.197  20.868  0.00  0.00    +0.000 C 
BRANCH  20  22
ATOM     21  C   UNL     1      -2.426  12.006  19.164  0.00  0.00    +0.000 C 
ATOM     22  C   UNL     1      -1.454  11.632  19.951  0.00  0.00    +0.000 C 
ENDBRANCH  20  22
BRANCH  20  23
ATOM     23  C   UNL     1       0.921  12.054  20.480  0.00  0.00    +0.000 C 
ATOM     24  C   UNL     1       1.405  11.823  19.046  0.00  0.00    +0.000 C 
ENDBRANCH  20  23
BRANCH  20  25
ATOM     25  C   UNL     1      -0.771  11.512  22.330  0.00  0.00    +0.000 C 
ATOM     26  C   UNL     1      -0.883  13.008  22.645  0.00  0.00    +0.000 C 
ENDBRANCH  20  25
ENDBRANCH  16  20
ENDBRANCH  15  17
ENDBRANCH   1  15
TORSDOF 7
ENDMDL
MODEL 6
REMARK VINA RESULT:      -6.8      0.507      1.690
REMARK  Name = 
REMARK  10 active torsions:
REMARK  status: ('A' for Active; 'I' for Inactive)
REMARK    1  A    between atoms: C_2  and  C_3
REMARK    2  A    between atoms: C_3  and  C_4
REMARK    3  A    between atoms: C_3  and  C_6
REMARK    4  A    between atoms: C_3  and  N_8
REMARK    5  A    between atoms: C_4  and  C_5
REMARK    6  A    between atoms: C_6  and  C_7
REMARK    7  A    between atoms: C_9  and  C_11
REMARK    8  A    between atoms: C_11  and  S_12
REMARK    9  A    between atoms: S_12  and  C_13
REMARK   10  A    between atoms: C_15  and  C_16
REMARK                            x       y       z     vdW  Elec       q    Type
REMARK                         _______ _______ _______ _____ _____    ______ ____
ROOT
ATOM      1  S   UNL     1       2.181   7.473  19.823  0.00  0.00    +0.000 S 
ENDROOT
BRANCH   1   2
ATOM      2  C   UNL     1       2.383   5.720  19.732  0.00  0.00    +0.000 A 
ATOM      3  N   UNL     1       1.758   4.922  20.616  0.00  0.00    +0.000 NA
ATOM      4  C   UNL     1       1.963   3.593  20.551  0.00  0.00    +0.000 A 
ATOM      5  C   UNL     1       1.287   2.766  21.604  0.00  0.00    +0.000 C 
ATOM      6  N   UNL     1       2.717   2.952  19.645  0.00  0.00    +0.000 NA
ATOM      7  C   UNL     1       3.314   3.775  18.765  0.00  0.00    +0.000 A 
ATOM      8  S   UNL     1       4.331   3.153  17.517  0.00  0.00    +0.000 S 
ATOM      9  C   UNL     1       4.635   4.701  16.961  0.00  0.00    +0.000 A 
ATOM     10  C   UNL     1       4.008   5.678  17.686  0.00  0.00    +0.000 A 
ATOM     11  C   UNL     1       3.210   5.166  18.743  0.00  0.00    +0.000 A 
ATOM     12  C   UNL     1       4.357   7.024  17.167  0.00  0.00    +0.000 C 
ATOM     13  C   UNL     1       4.961   6.700  15.774  0.00  0.00    +0.000 C 
ATOM     14  C   UNL     1       5.466   5.224  15.845  0.00  0.00    +0.000 C 
ENDBRANCH   1   2
BRANCH   1  15
ATOM     15  C   UNL     1       1.103   7.638  21.280  0.00  0.00    +0.000 C 
BRANCH  15  17
ATOM     16  N   UNL     1      -0.142   9.742  20.846  0.00  0.00    +0.000 N 
ATOM     17  C   UNL     1       0.870   9.113  21.567  0.00  0.00    +0.000 C 
ATOM     18  O   UNL     1       1.539   9.689  22.434  0.00  0.00    +0.000 OA
ATOM     19  H   UNL     1      -0.605   9.221  20.112  0.00  0.00    +0.000 HD
BRANCH  16  20
ATOM     20  C   UNL     1      -0.448  11.175  20.989  0.00  0.00    +0.000 C 
BRANCH  20  22
ATOM     21  C   UNL     1       1.815  12.799  20.517  0.00  0.00    +0.000 C 
ATOM     22  C   UNL     1       0.770  12.049  20.735  0.00  0.00    +0.000 C 
ENDBRANCH  20  22
BRANCH  20  23
ATOM     23  C   UNL     1      -0.931  11.494  22.437  0.00  0.00    +0.000 C 
ATOM     24  C   UNL     1      -2.105  12.475  22.493  0.00  0.00    +0.000 C 
ENDBRANCH  20  23
BRANCH  20  25
ATOM     25  C   UNL     1      -1.533  11.588  19.945  0.00  0.00    +0.000 C 
ATOM     26  C   UNL     1      -1.509  10.764  18.653  0.00  0.00    +0.000 C 
ENDBRANCH  20  25
ENDBRANCH  16  20
ENDBRANCH  15  17
ENDBRANCH   1  15
TORSDOF 7
ENDMDL
MODEL 7
REMARK VINA RESULT:      -6.8      2.033      4.101
REMARK  Name = 
REMARK  10 active torsions:
REMARK  status: ('A' for Active; 'I' for Inactive)
REMARK    1  A    between atoms: C_2  and  C_3
REMARK    2  A    between atoms: C_3  and  C_4
REMARK    3  A    between atoms: C_3  and  C_6
REMARK    4  A    between atoms: C_3  and  N_8
REMARK    5  A    between atoms: C_4  and  C_5
REMARK    6  A    between atoms: C_6  and  C_7
REMARK    7  A    between atoms: C_9  and  C_11
REMARK    8  A    between atoms: C_11  and  S_12
REMARK    9  A    between atoms: S_12  and  C_13
REMARK   10  A    between atoms: C_15  and  C_16
REMARK                            x       y       z     vdW  Elec       q    Type
REMARK                         _______ _______ _______ _____ _____    ______ ____
ROOT
ATOM      1  S   UNL     1       2.195   7.567  19.203  0.00  0.00    +0.000 S 
ENDROOT
BRANCH   1   2
ATOM      2  C   UNL     1       3.140   6.416  18.250  0.00  0.00    +0.000 A 
ATOM      3  N   UNL     1       3.979   6.859  17.297  0.00  0.00    +0.000 NA
ATOM      4  C   UNL     1       4.655   5.960  16.557  0.00  0.00    +0.000 A 
ATOM      5  C   UNL     1       5.525   6.517  15.470  0.00  0.00    +0.000 C 
ATOM      6  N   UNL     1       4.612   4.626  16.698  0.00  0.00    +0.000 NA
ATOM      7  C   UNL     1       3.778   4.216  17.670  0.00  0.00    +0.000 A 
ATOM      8  S   UNL     1       3.573   2.538  18.014  0.00  0.00    +0.000 S 
ATOM      9  C   UNL     1       2.465   2.895  19.216  0.00  0.00    +0.000 A 
ATOM     10  C   UNL     1       2.231   4.235  19.365  0.00  0.00    +0.000 A 
ATOM     11  C   UNL     1       2.999   5.040  18.484  0.00  0.00    +0.000 A 
ATOM     12  C   UNL     1       1.208   4.476  20.413  0.00  0.00    +0.000 C 
ATOM     13  C   UNL     1       1.158   3.112  21.154  0.00  0.00    +0.000 C 
ATOM     14  C   UNL     1       1.673   2.041  20.140  0.00  0.00    +0.000 C 
ENDBRANCH   1   2
BRANCH   1  15
ATOM     15  C   UNL     1       1.888   8.881  17.983  0.00  0.00    +0.000 C 
BRANCH  15  17
ATOM     16  N   UNL     1      -0.139  10.314  17.946  0.00  0.00    +0.000 N 
ATOM     17  C   UNL     1       1.029   9.964  18.618  0.00  0.00    +0.000 C 
ATOM     18  O   UNL     1       1.361  10.462  19.701  0.00  0.00    +0.000 OA
ATOM     19  H   UNL     1      -0.313   9.907  17.037  0.00  0.00    +0.000 HD
BRANCH  16  20
ATOM     20  C   UNL     1      -1.042  11.376  18.422  0.00  0.00    +0.000 C 
BRANCH  20  22
ATOM     21  C   UNL     1       0.193  13.917  18.389  0.00  0.00    +0.000 C 
ATOM     22  C   UNL     1      -0.378  12.744  18.404  0.00  0.00    +0.000 C 
ENDBRANCH  20  22
BRANCH  20  23
ATOM     23  C   UNL     1      -1.476  11.110  19.896  0.00  0.00    +0.000 C 
ATOM     24  C   UNL     1      -2.226  12.281  20.538  0.00  0.00    +0.000 C 
ENDBRANCH  20  23
BRANCH  20  25
ATOM     25  C   UNL     1      -2.291  11.462  17.490  0.00  0.00    +0.000 C 
ATOM     26  C   UNL     1      -2.871  10.100  17.088  0.00  0.00    +0.000 C 
ENDBRANCH  20  25
ENDBRANCH  16  20
ENDBRANCH  15  17
ENDBRANCH   1  15
TORSDOF 7
ENDMDL
MODEL 8
REMARK VINA RESULT:      -6.8      1.940      3.753
REMARK  Name = 
REMARK  10 active torsions:
REMARK  status: ('A' for Active; 'I' for Inactive)
REMARK    1  A    between atoms: C_2  and  C_3
REMARK    2  A    between atoms: C_3  and  C_4
REMARK    3  A    between atoms: C_3  and  C_6
REMARK    4  A    between atoms: C_3  and  N_8
REMARK    5  A    between atoms: C_4  and  C_5
REMARK    6  A    between atoms: C_6  and  C_7
REMARK    7  A    between atoms: C_9  and  C_11
REMARK    8  A    between atoms: C_11  and  S_12
REMARK    9  A    between atoms: S_12  and  C_13
REMARK   10  A    between atoms: C_15  and  C_16
REMARK                            x       y       z     vdW  Elec       q    Type
REMARK                         _______ _______ _______ _____ _____    ______ ____
ROOT
ATOM      1  S   UNL     1       2.499   7.372  18.988  0.00  0.00    +0.000 S 
ENDROOT
BRANCH   1   2
ATOM      2  C   UNL     1       3.352   6.111  18.090  0.00  0.00    +0.000 A 
ATOM      3  N   UNL     1       4.218   6.446  17.116  0.00  0.00    +0.000 NA
ATOM      4  C   UNL     1       4.822   5.465  16.419  0.00  0.00    +0.000 A 
ATOM      5  C   UNL     1       5.727   5.904  15.306  0.00  0.00    +0.000 C 
ATOM      6  N   UNL     1       4.681   4.146  16.622  0.00  0.00    +0.000 NA
ATOM      7  C   UNL     1       3.823   3.845  17.613  0.00  0.00    +0.000 A 
ATOM      8  S   UNL     1       3.495   2.205  18.036  0.00  0.00    +0.000 S 
ATOM      9  C   UNL     1       2.422   2.699  19.220  0.00  0.00    +0.000 A 
ATOM     10  C   UNL     1       2.289   4.058  19.306  0.00  0.00    +0.000 A 
ATOM     11  C   UNL     1       3.111   4.762  18.388  0.00  0.00    +0.000 A 
ATOM     12  C   UNL     1       1.291   4.424  20.343  0.00  0.00    +0.000 C 
ATOM     13  C   UNL     1       1.143   3.103  21.147  0.00  0.00    +0.000 C 
ATOM     14  C   UNL     1       1.573   1.951  20.184  0.00  0.00    +0.000 C 
ENDBRANCH   1   2
BRANCH   1  15
ATOM     15  C   UNL     1       2.346   8.675  17.726  0.00  0.00    +0.000 C 
BRANCH  15  17
ATOM     16  N   UNL     1       1.012   9.767  19.513  0.00  0.00    +0.000 N 
ATOM     17  C   UNL     1       1.793   9.936  18.373  0.00  0.00    +0.000 C 
ATOM     18  O   UNL     1       2.075  11.046  17.905  0.00  0.00    +0.000 OA
ATOM     19  H   UNL     1       0.776   8.827  19.800  0.00  0.00    +0.000 HD
BRANCH  16  20
ATOM     20  C   UNL     1       0.377  10.895  20.215  0.00  0.00    +0.000 C 
BRANCH  20  22
ATOM     21  C   UNL     1      -0.665  10.134  22.728  0.00  0.00    +0.000 C 
ATOM     22  C   UNL     1      -0.184  10.486  21.568  0.00  0.00    +0.000 C 
ENDBRANCH  20  22
BRANCH  20  23
ATOM     23  C   UNL     1      -0.820  11.455  19.388  0.00  0.00    +0.000 C 
ATOM     24  C   UNL     1      -1.650  10.372  18.693  0.00  0.00    +0.000 C 
ENDBRANCH  20  23
BRANCH  20  25
ATOM     25  C   UNL     1       1.433  12.014  20.477  0.00  0.00    +0.000 C 
ATOM     26  C   UNL     1       0.849  13.310  21.051  0.00  0.00    +0.000 C 
ENDBRANCH  20  25
ENDBRANCH  16  20
ENDBRANCH  15  17
ENDBRANCH   1  15
TORSDOF 7
ENDMDL
MODEL 9
REMARK VINA RESULT:      -6.8      2.352      3.901
REMARK  Name = 
REMARK  10 active torsions:
REMARK  status: ('A' for Active; 'I' for Inactive)
REMARK    1  A    between atoms: C_2  and  C_3
REMARK    2  A    between atoms: C_3  and  C_4
REMARK    3  A    between atoms: C_3  and  C_6
REMARK    4  A    between atoms: C_3  and  N_8
REMARK    5  A    between atoms: C_4  and  C_5
REMARK    6  A    between atoms: C_6  and  C_7
REMARK    7  A    between atoms: C_9  and  C_11
REMARK    8  A    between atoms: C_11  and  S_12
REMARK    9  A    between atoms: S_12  and  C_13
REMARK   10  A    between atoms: C_15  and  C_16
REMARK                            x       y       z     vdW  Elec       q    Type
REMARK                         _______ _______ _______ _____ _____    ______ ____
ROOT
ATOM      1  S   UNL     1       3.165   7.038  17.438  0.00  0.00    +0.000 S 
ENDROOT
BRANCH   1   2
ATOM      2  C   UNL     1       4.357   5.957  18.170  0.00  0.00    +0.000 A 
ATOM      3  N   UNL     1       5.629   6.364  18.327  0.00  0.00    +0.000 NA
ATOM      4  C   UNL     1       6.526   5.505  18.848  0.00  0.00    +0.000 A 
ATOM      5  C   UNL     1       7.940   5.998  18.938  0.00  0.00    +0.000 C 
ATOM      6  N   UNL     1       6.273   4.260  19.280  0.00  0.00    +0.000 NA
ATOM      7  C   UNL     1       4.989   3.890  19.125  0.00  0.00    +0.000 A 
ATOM      8  S   UNL     1       4.452   2.325  19.615  0.00  0.00    +0.000 S 
ATOM      9  C   UNL     1       2.899   2.670  19.095  0.00  0.00    +0.000 A 
ATOM     10  C   UNL     1       2.767   3.920  18.555  0.00  0.00    +0.000 A 
ATOM     11  C   UNL     1       3.972   4.670  18.573  0.00  0.00    +0.000 A 
ATOM     12  C   UNL     1       1.379   4.141  18.075  0.00  0.00    +0.000 C 
ATOM     13  C   UNL     1       0.597   2.995  18.773  0.00  0.00    +0.000 C 
ATOM     14  C   UNL     1       1.641   1.878  19.091  0.00  0.00    +0.000 C 
ENDBRANCH   1   2
BRANCH   1  15
ATOM     15  C   UNL     1       2.287   7.657  18.906  0.00  0.00    +0.000 C 
BRANCH  15  17
ATOM     16  N   UNL     1       1.109   9.711  19.653  0.00  0.00    +0.000 N 
ATOM     17  C   UNL     1       1.676   9.013  18.590  0.00  0.00    +0.000 C 
ATOM     18  O   UNL     1       1.730   9.464  17.439  0.00  0.00    +0.000 OA
ATOM     19  H   UNL     1       1.049   9.252  20.553  0.00  0.00    +0.000 HD
BRANCH  16  20
ATOM     20  C   UNL     1       0.443  11.014  19.485  0.00  0.00    +0.000 C 
BRANCH  20  22
ATOM     21  C   UNL     1      -1.886  10.820  17.898  0.00  0.00    +0.000 C 
ATOM     22  C   UNL     1      -0.811  10.910  18.631  0.00  0.00    +0.000 C 
ENDBRANCH  20  22
BRANCH  20  23
ATOM     23  C   UNL     1       1.387  12.027  18.768  0.00  0.00    +0.000 C 
ATOM     24  C   UNL     1       0.782  13.424  18.604  0.00  0.00    +0.000 C 
ENDBRANCH  20  23
BRANCH  20  25
ATOM     25  C   UNL     1       0.004  11.564  20.878  0.00  0.00    +0.000 C 
ATOM     26  C   UNL     1      -0.510  10.491  21.845  0.00  0.00    +0.000 C 
ENDBRANCH  20  25
ENDBRANCH  16  20
ENDBRANCH  15  17
ENDBRANCH   1  15
TORSDOF 7
ENDMDL
