MODEL 1
REMARK VINA RESULT:      -6.4      0.000      0.000
REMARK  Name = 
REMARK  6 active torsions:
REMARK  status: ('A' for Active; 'I' for Inactive)
REMARK    1  A    between atoms: C_1  and  C_2
REMARK    2  A    between atoms: C_6  and  C_7
REMARK    3  A    between atoms: N_10  and  C_11
REMARK    4  A    between atoms: C_11  and  C_12
REMARK    5  A    between atoms: C_17  and  N_18
REMARK    6  A    between atoms: C_20  and  O_21
REMARK                            x       y       z     vdW  Elec       q    Type
REMARK                         _______ _______ _______ _____ _____    ______ ____
ROOT
ATOM      1  C   UNL     1       0.749   9.779  18.862  0.00  0.00    +0.000 C 
ATOM      2  C   UNL     1       1.998   9.486  18.025  0.00  0.00    +0.000 C 
ATOM      3  C   UNL     1       2.354   7.997  18.022  0.00  0.00    +0.000 C 
ATOM      4  N   UNL     1       1.952   7.256  19.236  0.00  0.00    +0.000 NA
ATOM      5  C   UNL     1       1.971   8.132  20.425  0.00  0.00    +0.000 C 
ATOM      6  C   UNL     1       0.963   9.306  20.320  0.00  0.00    +0.000 C 
ENDROOT
BRANCH   1  12
ATOM      7  C   UNL     1      -2.102  11.016  18.012  0.00  0.00    +0.000 C 
ATOM      8  C   UNL     1      -0.881  11.791  18.391  0.00  0.00    +0.000 A 
ATOM      9  C   UNL     1      -0.843  13.227  18.403  0.00  0.00    +0.000 A 
ATOM     10  C   UNL     1       0.377  13.725  18.788  0.00  0.00    +0.000 A 
ATOM     11  S   UNL     1       1.486  12.486  19.143  0.00  0.00    +0.000 S 
ATOM     12  C   UNL     1       0.344  11.249  18.771  0.00  0.00    +0.000 A 
ENDBRANCH   1  12
BRANCH   6  13
ATOM     13  O   UNL     1      -0.296   8.914  20.889  0.00  0.00    +0.000 OA
ATOM     14  H   UNL     1      -0.087   8.428  21.704  0.00  0.00    +0.000 HD
ENDBRANCH   6  13
BRANCH   4  15
ATOM     15  C   UNL     1       2.855   6.094  19.448  0.00  0.00    +0.000 C 
BRANCH  15  16
ATOM     16  C   UNL     1       2.219   4.745  19.189  0.00  0.00    +0.000 A 
ATOM     17  C   UNL     1       1.261   4.248  20.084  0.00  0.00    +0.000 A 
ATOM     18  C   UNL     1       0.657   3.020  19.847  0.00  0.00    +0.000 A 
ATOM     19  C   UNL     1       1.029   2.319  18.717  0.00  0.00    +0.000 A 
ATOM     20  N   UNL     1       1.953   2.756  17.838  0.00  0.00    +0.000 NA
ATOM     21  C   UNL     1       2.537   3.946  18.086  0.00  0.00    +0.000 A 
BRANCH  21  22
ATOM     22  N   UNL     1       3.490   4.316  17.138  0.00  0.00    +0.000 N 
ATOM     23  H   UNL     1       3.689   5.297  17.325  0.00  0.00    +0.000 HD
ATOM     24  H   UNL     1       3.126   4.205  16.198  0.00  0.00    +0.000 HD
ENDBRANCH  21  22
ENDBRANCH  15  16
ENDBRANCH   4  15
TORSDOF 5
ENDMDL
MODEL 2
REMARK VINA RESULT:      -6.4      4.983      7.369
REMARK  Name = 
REMARK  6 active torsions:
REMARK  status: ('A' for Active; 'I' for Inactive)
REMARK    1  A    between atoms: C_1  and  C_2
REMARK    2  A    between atoms: C_6  and  C_7
REMARK    3  A    between atoms: N_10  and  C_11
REMARK    4  A    between atoms: C_11  and  C_12
REMARK    5  A    between atoms: C_17  and  N_18
REMARK    6  A    between atoms: C_20  and  O_21
REMARK                            x       y       z     vdW  Elec       q    Type
REMARK                         _______ _______ _______ _____ _____    ______ ____
ROOT
ATOM      1  C   UNL     1       3.600   4.787  17.954  0.00  0.00    +0.000 C 
ATOM      2  C   UNL     1       3.998   6.143  17.362  0.00  0.00    +0.000 C 
ATOM      3  C   UNL     1       4.926   5.994  16.153  0.00  0.00    +0.000 C 
ATOM      4  N   UNL     1       5.781   4.789  16.167  0.00  0.00    +0.000 NA
ATOM      5  C   UNL     1       6.115   4.389  17.549  0.00  0.00    +0.000 C 
ATOM      6  C   UNL     1       4.863   4.001  18.379  0.00  0.00    +0.000 C 
ENDROOT
BRANCH   1  12
ATOM      7  C   UNL     1       1.364   2.691  18.947  0.00  0.00    +0.000 C 
ATOM      8  C   UNL     1       1.614   4.050  19.517  0.00  0.00    +0.000 A 
ATOM      9  C   UNL     1       0.845   4.594  20.601  0.00  0.00    +0.000 A 
ATOM     10  C   UNL     1       1.252   5.853  20.965  0.00  0.00    +0.000 A 
ATOM     11  S   UNL     1       2.558   6.396  20.022  0.00  0.00    +0.000 S 
ATOM     12  C   UNL     1       2.592   4.946  19.092  0.00  0.00    +0.000 A 
ENDBRANCH   1  12
BRANCH   6  13
ATOM     13  O   UNL     1       4.619   2.592  18.253  0.00  0.00    +0.000 OA
ATOM     14  H   UNL     1       5.109   2.299  17.468  0.00  0.00    +0.000 HD
ENDBRANCH   6  13
BRANCH   4  15
ATOM     15  C   UNL     1       7.028   5.039  15.397  0.00  0.00    +0.000 C 
BRANCH  15  16
ATOM     16  C   UNL     1       6.975   4.597  13.950  0.00  0.00    +0.000 A 
ATOM     17  C   UNL     1       6.023   3.648  13.551  0.00  0.00    +0.000 A 
ATOM     18  C   UNL     1       5.953   3.249  12.222  0.00  0.00    +0.000 A 
ATOM     19  C   UNL     1       6.840   3.811  11.326  0.00  0.00    +0.000 A 
ATOM     20  N   UNL     1       7.777   4.718  11.671  0.00  0.00    +0.000 NA
ATOM     21  C   UNL     1       7.838   5.089  12.965  0.00  0.00    +0.000 A 
BRANCH  21  22
ATOM     22  N   UNL     1       8.842   6.017  13.239  0.00  0.00    +0.000 N 
ATOM     23  H   UNL     1       8.495   6.904  12.879  0.00  0.00    +0.000 HD
ATOM     24  H   UNL     1       9.706   5.763  12.773  0.00  0.00    +0.000 HD
ENDBRANCH  21  22
ENDBRANCH  15  16
ENDBRANCH   4  15
TORSDOF 5
ENDMDL
MODEL 3
REMARK VINA RESULT:      -6.4      3.060      4.494
REMARK  Name = 
REMARK  6 active torsions:
REMARK  status: ('A' for Active; 'I' for Inactive)
REMARK    1  A    between atoms: C_1  and  C_2
REMARK    2  A    between atoms: C_6  and  C_7
REMARK    3  A    between atoms: N_10  and  C_11
REMARK    4  A    between atoms: C_11  and  C_12
REMARK    5  A    between atoms: C_17  and  N_18
REMARK    6  A    between atoms: C_20  and  O_21
REMARK                            x       y       z     vdW  Elec       q    Type
REMARK                         _______ _______ _______ _____ _____    ______ ____
ROOT
ATOM      1  C   UNL     1       2.095   6.978  19.248  0.00  0.00    +0.000 C 
ATOM      2  C   UNL     1       3.374   7.283  18.461  0.00  0.00    +0.000 C 
ATOM      3  C   UNL     1       3.899   6.052  17.716  0.00  0.00    +0.000 C 
ATOM      4  N   UNL     1       3.578   4.755  18.348  0.00  0.00    +0.000 NA
ATOM      5  C   UNL     1       3.490   4.886  19.817  0.00  0.00    +0.000 C 
ATOM      6  C   UNL     1       2.354   5.842  20.265  0.00  0.00    +0.000 C 
ENDROOT
BRANCH   1  12
ATOM      7  C   UNL     1       0.939   9.621  17.811  0.00  0.00    +0.000 C 
ATOM      8  C   UNL     1       1.036   9.388  19.285  0.00  0.00    +0.000 A 
ATOM      9  C   UNL     1       0.621  10.361  20.256  0.00  0.00    +0.000 A 
ATOM     10  C   UNL     1       0.796   9.934  21.549  0.00  0.00    +0.000 A 
ATOM     11  S   UNL     1       1.450   8.366  21.616  0.00  0.00    +0.000 S 
ATOM     12  C   UNL     1       1.525   8.238  19.899  0.00  0.00    +0.000 A 
ENDBRANCH   1  12
BRANCH   6  13
ATOM     13  O   UNL     1       1.146   5.094  20.470  0.00  0.00    +0.000 OA
ATOM     14  H   UNL     1       1.104   4.899  21.421  0.00  0.00    +0.000 HD
ENDBRANCH   6  13
BRANCH   4  15
ATOM     15  C   UNL     1       4.608   3.744  17.991  0.00  0.00    +0.000 C 
BRANCH  15  16
ATOM     16  C   UNL     1       5.485   4.125  16.818  0.00  0.00    +0.000 A 
ATOM     17  C   UNL     1       4.942   4.145  15.525  0.00  0.00    +0.000 A 
ATOM     18  C   UNL     1       5.733   4.511  14.444  0.00  0.00    +0.000 A 
ATOM     19  C   UNL     1       7.050   4.848  14.684  0.00  0.00    +0.000 A 
ATOM     20  N   UNL     1       7.613   4.831  15.910  0.00  0.00    +0.000 NA
ATOM     21  C   UNL     1       6.836   4.466  16.948  0.00  0.00    +0.000 A 
BRANCH  21  22
ATOM     22  N   UNL     1       7.498   4.461  18.175  0.00  0.00    +0.000 N 
ATOM     23  H   UNL     1       6.974   5.103  18.768  0.00  0.00    +0.000 HD
ATOM     24  H   UNL     1       8.455   4.781  18.071  0.00  0.00    +0.000 HD
ENDBRANCH  21  22
ENDBRANCH  15  16
ENDBRANCH   4  15
TORSDOF 5
ENDMDL
MODEL 4
REMARK VINA RESULT:      -6.4      1.103      1.128
REMARK  Name = 
REMARK  6 active torsions:
REMARK  status: ('A' for Active; 'I' for Inactive)
REMARK    1  A    between atoms: C_1  and  C_2
REMARK    2  A    between atoms: C_6  and  C_7
REMARK    3  A    between atoms: N_10  and  C_11
REMARK    4  A    between atoms: C_11  and  C_12
REMARK    5  A    between atoms: C_17  and  N_18
REMARK    6  A    between atoms: C_20  and  O_21
REMARK                            x       y       z     vdW  Elec       q    Type
REMARK                         _______ _______ _______ _____ _____    ______ ____
ROOT
ATOM      1  C   UNL     1       0.645   9.161  19.088  0.00  0.00    +0.000 C 
ATOM      2  C   UNL     1       1.869   9.022  18.179  0.00  0.00    +0.000 C 
ATOM      3  C   UNL     1       2.428   7.596  18.180  0.00  0.00    +0.000 C 
ATOM      4  N   UNL     1       2.206   6.839  19.430  0.00  0.00    +0.000 NA
ATOM      5  C   UNL     1       2.175   7.740  20.599  0.00  0.00    +0.000 C 
ATOM      6  C   UNL     1       1.010   8.761  20.537  0.00  0.00    +0.000 C 
ENDROOT
BRANCH   1  12
ATOM      7  C   UNL     1      -1.957  10.100  17.435  0.00  0.00    +0.000 C 
ATOM      8  C   UNL     1      -1.081  10.975  18.273  0.00  0.00    +0.000 A 
ATOM      9  C   UNL     1      -1.306  12.385  18.426  0.00  0.00    +0.000 A 
ATOM     10  C   UNL     1      -0.383  12.988  19.244  0.00  0.00    +0.000 A 
ATOM     11  S   UNL     1       0.757  11.876  19.843  0.00  0.00    +0.000 S 
ATOM     12  C   UNL     1       0.035  10.559  18.996  0.00  0.00    +0.000 A 
ENDBRANCH   1  12
BRANCH   6  13
ATOM     13  O   UNL     1      -0.146   8.215  21.192  0.00  0.00    +0.000 OA
ATOM     14  H   UNL     1       0.185   7.714  21.956  0.00  0.00    +0.000 HD
ENDBRANCH   6  13
BRANCH   4  15
ATOM     15  C   UNL     1       3.274   5.819  19.605  0.00  0.00    +0.000 C 
BRANCH  15  16
ATOM     16  C   UNL     1       2.825   4.391  19.372  0.00  0.00    +0.000 A 
ATOM     17  C   UNL     1       1.456   4.098  19.301  0.00  0.00    +0.000 A 
ATOM     18  C   UNL     1       1.034   2.796  19.069  0.00  0.00    +0.000 A 
ATOM     19  C   UNL     1       1.996   1.817  18.915  0.00  0.00    +0.000 A 
ATOM     20  N   UNL     1       3.322   2.055  18.987  0.00  0.00    +0.000 NA
ATOM     21  C   UNL     1       3.716   3.322  19.221  0.00  0.00    +0.000 A 
BRANCH  21  22
ATOM     22  N   UNL     1       5.100   3.479  19.296  0.00  0.00    +0.000 N 
ATOM     23  H   UNL     1       5.294   4.377  18.855  0.00  0.00    +0.000 HD
ATOM     24  H   UNL     1       5.575   2.734  18.799  0.00  0.00    +0.000 HD
ENDBRANCH  21  22
ENDBRANCH  15  16
ENDBRANCH   4  15
TORSDOF 5
ENDMDL
MODEL 5
REMARK VINA RESULT:      -6.4      1.029      1.576
REMARK  Name = 
REMARK  6 active torsions:
REMARK  status: ('A' for Active; 'I' for Inactive)
REMARK    1  A    between atoms: C_1  and  C_2
REMARK    2  A    between atoms: C_6  and  C_7
REMARK    3  A    between atoms: N_10  and  C_11
REMARK    4  A    between atoms: C_11  and  C_12
REMARK    5  A    between atoms: C_17  and  N_18
REMARK    6  A    between atoms: C_20  and  O_21
REMARK                            x       y       z     vdW  Elec       q    Type
REMARK                         _______ _______ _______ _____ _____    ______ ____
ROOT
ATOM      1  C   UNL     1       0.622   9.337  19.059  0.00  0.00    +0.000 C 
ATOM      2  C   UNL     1       1.870   9.060  18.215  0.00  0.00    +0.000 C 
ATOM      3  C   UNL     1       2.327   7.602  18.324  0.00  0.00    +0.000 C 
ATOM      4  N   UNL     1       2.003   6.940  19.605  0.00  0.00    +0.000 NA
ATOM      5  C   UNL     1       1.987   7.911  20.717  0.00  0.00    +0.000 C 
ATOM      6  C   UNL     1       0.898   9.002  20.544  0.00  0.00    +0.000 C 
ENDROOT
BRANCH   1  12
ATOM      7  C   UNL     1      -2.103  10.307  17.639  0.00  0.00    +0.000 C 
ATOM      8  C   UNL     1      -1.055  11.192  18.234  0.00  0.00    +0.000 A 
ATOM      9  C   UNL     1      -1.146  12.624  18.224  0.00  0.00    +0.000 A 
ATOM     10  C   UNL     1      -0.075  13.233  18.830  0.00  0.00    +0.000 A 
ATOM     11  S   UNL     1       1.046  12.100  19.423  0.00  0.00    +0.000 S 
ATOM     12  C   UNL     1       0.115  10.764  18.859  0.00  0.00    +0.000 A 
ENDBRANCH   1  12
BRANCH   6  13
ATOM     13  O   UNL     1      -0.318   8.575  21.177  0.00  0.00    +0.000 OA
ATOM     14  H   UNL     1      -0.136   8.552  22.130  0.00  0.00    +0.000 HD
ENDBRANCH   6  13
BRANCH   4  15
ATOM     15  C   UNL     1       2.989   5.863  19.887  0.00  0.00    +0.000 C 
BRANCH  15  16
ATOM     16  C   UNL     1       2.749   4.575  19.127  0.00  0.00    +0.000 A 
ATOM     17  C   UNL     1       3.653   4.181  18.131  0.00  0.00    +0.000 A 
ATOM     18  C   UNL     1       3.453   2.992  17.441  0.00  0.00    +0.000 A 
ATOM     19  C   UNL     1       2.351   2.227  17.766  0.00  0.00    +0.000 A 
ATOM     20  N   UNL     1       1.452   2.576  18.710  0.00  0.00    +0.000 NA
ATOM     21  C   UNL     1       1.655   3.736  19.365  0.00  0.00    +0.000 A 
BRANCH  21  22
ATOM     22  N   UNL     1       0.674   4.029  20.312  0.00  0.00    +0.000 N 
ATOM     23  H   UNL     1      -0.013   4.599  19.821  0.00  0.00    +0.000 HD
ATOM     24  H   UNL     1       1.066   4.545  21.091  0.00  0.00    +0.000 HD
ENDBRANCH  21  22
ENDBRANCH  15  16
ENDBRANCH   4  15
TORSDOF 5
ENDMDL
MODEL 6
REMARK VINA RESULT:      -6.4      4.194      5.985
REMARK  Name = 
REMARK  6 active torsions:
REMARK  status: ('A' for Active; 'I' for Inactive)
REMARK    1  A    between atoms: C_1  and  C_2
REMARK    2  A    between atoms: C_6  and  C_7
REMARK    3  A    between atoms: N_10  and  C_11
REMARK    4  A    between atoms: C_11  and  C_12
REMARK    5  A    between atoms: C_17  and  N_18
REMARK    6  A    between atoms: C_20  and  O_21
REMARK                            x       y       z     vdW  Elec       q    Type
REMARK                         _______ _______ _______ _____ _____    ______ ____
ROOT
ATOM      1  C   UNL     1       2.924   6.270  17.965  0.00  0.00    +0.000 C 
ATOM      2  C   UNL     1       4.437   6.504  17.989  0.00  0.00    +0.000 C 
ATOM      3  C   UNL     1       5.155   5.748  16.867  0.00  0.00    +0.000 C 
ATOM      4  N   UNL     1       4.494   4.498  16.434  0.00  0.00    +0.000 NA
ATOM      5  C   UNL     1       3.763   3.868  17.551  0.00  0.00    +0.000 C 
ATOM      6  C   UNL     1       2.617   4.759  18.095  0.00  0.00    +0.000 C 
ENDROOT
BRANCH   1  12
ATOM      7  C   UNL     1       1.962   9.338  17.758  0.00  0.00    +0.000 C 
ATOM      8  C   UNL     1       1.804   8.442  18.944  0.00  0.00    +0.000 A 
ATOM      9  C   UNL     1       1.195   8.874  20.171  0.00  0.00    +0.000 A 
ATOM     10  C   UNL     1       1.151   7.885  21.122  0.00  0.00    +0.000 A 
ATOM     11  S   UNL     1       1.828   6.431  20.559  0.00  0.00    +0.000 S 
ATOM     12  C   UNL     1       2.210   7.112  19.022  0.00  0.00    +0.000 A 
ENDBRANCH   1  12
BRANCH   6  13
ATOM     13  O   UNL     1       1.397   4.454  17.402  0.00  0.00    +0.000 OA
ATOM     14  H   UNL     1       0.881   3.884  17.996  0.00  0.00    +0.000 HD
ENDBRANCH   6  13
BRANCH   4  15
ATOM     15  C   UNL     1       5.502   3.550  15.889  0.00  0.00    +0.000 C 
BRANCH  15  16
ATOM     16  C   UNL     1       6.207   4.030  14.638  0.00  0.00    +0.000 A 
ATOM     17  C   UNL     1       5.872   3.472  13.396  0.00  0.00    +0.000 A 
ATOM     18  C   UNL     1       6.499   3.918  12.240  0.00  0.00    +0.000 A 
ATOM     19  C   UNL     1       7.449   4.913  12.357  0.00  0.00    +0.000 A 
ATOM     20  N   UNL     1       7.808   5.468  13.533  0.00  0.00    +0.000 NA
ATOM     21  C   UNL     1       7.197   5.020  14.647  0.00  0.00    +0.000 A 
BRANCH  21  22
ATOM     22  N   UNL     1       7.636   5.634  15.819  0.00  0.00    +0.000 N 
ATOM     23  H   UNL     1       7.608   4.906  16.532  0.00  0.00    +0.000 HD
ATOM     24  H   UNL     1       7.024   6.401  16.076  0.00  0.00    +0.000 HD
ENDBRANCH  21  22
ENDBRANCH  15  16
ENDBRANCH   4  15
TORSDOF 5
ENDMDL
MODEL 7
REMARK VINA RESULT:      -6.4      2.790      4.184
REMARK  Name = 
REMARK  6 active torsions:
REMARK  status: ('A' for Active; 'I' for Inactive)
REMARK    1  A    between atoms: C_1  and  C_2
REMARK    2  A    between atoms: C_6  and  C_7
REMARK    3  A    between atoms: N_10  and  C_11
REMARK    4  A    between atoms: C_11  and  C_12
REMARK    5  A    between atoms: C_17  and  N_18
REMARK    6  A    between atoms: C_20  and  O_21
REMARK                            x       y       z     vdW  Elec       q    Type
REMARK                         _______ _______ _______ _____ _____    ______ ____
ROOT
ATOM      1  C   UNL     1       1.979   8.008  19.789  0.00  0.00    +0.000 C 
ATOM      2  C   UNL     1       1.565   6.707  20.483  0.00  0.00    +0.000 C 
ATOM      3  C   UNL     1       2.622   5.609  20.329  0.00  0.00    +0.000 C 
ATOM      4  N   UNL     1       3.436   5.694  19.098  0.00  0.00    +0.000 NA
ATOM      5  C   UNL     1       2.664   6.293  17.990  0.00  0.00    +0.000 C 
ATOM      6  C   UNL     1       2.228   7.752  18.284  0.00  0.00    +0.000 C 
ENDROOT
BRANCH   1  12
ATOM      7  C   UNL     1       1.013   9.230  22.610  0.00  0.00    +0.000 C 
ATOM      8  C   UNL     1       0.534   9.648  21.256  0.00  0.00    +0.000 A 
ATOM      9  C   UNL     1      -0.457  10.669  21.061  0.00  0.00    +0.000 A 
ATOM     10  C   UNL     1      -0.740  10.892  19.737  0.00  0.00    +0.000 A 
ATOM     11  S   UNL     1       0.178   9.891  18.713  0.00  0.00    +0.000 S 
ATOM     12  C   UNL     1       0.966   9.124  20.040  0.00  0.00    +0.000 A 
ENDBRANCH   1  12
BRANCH   6  13
ATOM     13  O   UNL     1       3.228   8.661  17.799  0.00  0.00    +0.000 OA
ATOM     14  H   UNL     1       3.268   8.534  16.837  0.00  0.00    +0.000 HD
ENDBRANCH   6  13
BRANCH   4  15
ATOM     15  C   UNL     1       3.916   4.342  18.708  0.00  0.00    +0.000 C 
BRANCH  15  16
ATOM     16  C   UNL     1       5.082   4.341  17.743  0.00  0.00    +0.000 A 
ATOM     17  C   UNL     1       4.885   3.923  16.419  0.00  0.00    +0.000 A 
ATOM     18  C   UNL     1       5.944   3.936  15.521  0.00  0.00    +0.000 A 
ATOM     19  C   UNL     1       7.176   4.367  15.972  0.00  0.00    +0.000 A 
ATOM     20  N   UNL     1       7.410   4.766  17.238  0.00  0.00    +0.000 NA
ATOM     21  C   UNL     1       6.375   4.741  18.101  0.00  0.00    +0.000 A 
BRANCH  21  22
ATOM     22  N   UNL     1       6.704   5.154  19.392  0.00  0.00    +0.000 N 
ATOM     23  H   UNL     1       7.573   4.672  19.615  0.00  0.00    +0.000 HD
ATOM     24  H   UNL     1       5.979   4.894  20.050  0.00  0.00    +0.000 HD
ENDBRANCH  21  22
ENDBRANCH  15  16
ENDBRANCH   4  15
TORSDOF 5
ENDMDL
MODEL 8
REMARK VINA RESULT:      -6.3      5.127      7.730
REMARK  Name = 
REMARK  6 active torsions:
REMARK  status: ('A' for Active; 'I' for Inactive)
REMARK    1  A    between atoms: C_1  and  C_2
REMARK    2  A    between atoms: C_6  and  C_7
REMARK    3  A    between atoms: N_10  and  C_11
REMARK    4  A    between atoms: C_11  and  C_12
REMARK    5  A    between atoms: C_17  and  N_18
REMARK    6  A    between atoms: C_20  and  O_21
REMARK                            x       y       z     vdW  Elec       q    Type
REMARK                         _______ _______ _______ _____ _____    ______ ____
ROOT
ATOM      1  C   UNL     1       4.050   4.558  18.605  0.00  0.00    +0.000 C 
ATOM      2  C   UNL     1       5.407   5.123  19.036  0.00  0.00    +0.000 C 
ATOM      3  C   UNL     1       6.160   5.767  17.869  0.00  0.00    +0.000 C 
ATOM      4  N   UNL     1       5.862   5.193  16.540  0.00  0.00    +0.000 NA
ATOM      5  C   UNL     1       5.521   3.760  16.644  0.00  0.00    +0.000 C 
ATOM      6  C   UNL     1       4.243   3.509  17.485  0.00  0.00    +0.000 C 
ENDROOT
BRANCH   1  12
ATOM      7  C   UNL     1       1.822   6.062  20.382  0.00  0.00    +0.000 C 
ATOM      8  C   UNL     1       2.310   4.662  20.578  0.00  0.00    +0.000 A 
ATOM      9  C   UNL     1       1.830   3.810  21.629  0.00  0.00    +0.000 A 
ATOM     10  C   UNL     1       2.413   2.566  21.617  0.00  0.00    +0.000 A 
ATOM     11  S   UNL     1       3.532   2.402  20.347  0.00  0.00    +0.000 S 
ATOM     12  C   UNL     1       3.264   4.014  19.797  0.00  0.00    +0.000 A 
ENDBRANCH   1  12
BRANCH   6  13
ATOM     13  O   UNL     1       3.093   3.505  16.625  0.00  0.00    +0.000 OA
ATOM     14  H   UNL     1       2.402   4.005  17.090  0.00  0.00    +0.000 HD
ENDBRANCH   6  13
BRANCH   4  15
ATOM     15  C   UNL     1       7.027   5.372  15.633  0.00  0.00    +0.000 C 
BRANCH  15  16
ATOM     16  C   UNL     1       6.848   4.778  14.252  0.00  0.00    +0.000 A 
ATOM     17  C   UNL     1       5.797   3.881  14.016  0.00  0.00    +0.000 A 
ATOM     18  C   UNL     1       5.612   3.344  12.748  0.00  0.00    +0.000 A 
ATOM     19  C   UNL     1       6.487   3.719  11.748  0.00  0.00    +0.000 A 
ATOM     20  N   UNL     1       7.517   4.569  11.937  0.00  0.00    +0.000 NA
ATOM     21  C   UNL     1       7.688   5.076  13.174  0.00  0.00    +0.000 A 
BRANCH  21  22
ATOM     22  N   UNL     1       8.783   5.933  13.287  0.00  0.00    +0.000 N 
ATOM     23  H   UNL     1       8.413   6.866  13.113  0.00  0.00    +0.000 HD
ATOM     24  H   UNL     1       9.493   5.703  12.601  0.00  0.00    +0.000 HD
ENDBRANCH  21  22
ENDBRANCH  15  16
ENDBRANCH   4  15
TORSDOF 5
ENDMDL
MODEL 9
REMARK VINA RESULT:      -6.1      5.436      7.747
REMARK  Name = 
REMARK  6 active torsions:
REMARK  status: ('A' for Active; 'I' for Inactive)
REMARK    1  A    between atoms: C_1  and  C_2
REMARK    2  A    between atoms: C_6  and  C_7
REMARK    3  A    between atoms: N_10  and  C_11
REMARK    4  A    between atoms: C_11  and  C_12
REMARK    5  A    between atoms: C_17  and  N_18
REMARK    6  A    between atoms: C_20  and  O_21
REMARK                            x       y       z     vdW  Elec       q    Type
REMARK                         _______ _______ _______ _____ _____    ______ ____
ROOT
ATOM      1  C   UNL     1       3.352   4.155  18.150  0.00  0.00    +0.000 C 
ATOM      2  C   UNL     1       3.766   5.628  18.092  0.00  0.00    +0.000 C 
ATOM      3  C   UNL     1       4.470   5.978  16.777  0.00  0.00    +0.000 C 
ATOM      4  N   UNL     1       5.207   4.862  16.147  0.00  0.00    +0.000 NA
ATOM      5  C   UNL     1       5.723   3.924  17.165  0.00  0.00    +0.000 C 
ATOM      6  C   UNL     1       4.593   3.247  17.982  0.00  0.00    +0.000 C 
ENDROOT
BRANCH   1  12
ATOM      7  C   UNL     1       0.820   2.191  18.493  0.00  0.00    +0.000 C 
ATOM      8  C   UNL     1       1.456   3.008  19.572  0.00  0.00    +0.000 A 
ATOM      9  C   UNL     1       0.978   3.017  20.926  0.00  0.00    +0.000 A 
ATOM     10  C   UNL     1       1.715   3.834  21.747  0.00  0.00    +0.000 A 
ATOM     11  S   UNL     1       2.987   4.594  20.912  0.00  0.00    +0.000 S 
ATOM     12  C   UNL     1       2.559   3.845  19.419  0.00  0.00    +0.000 A 
ENDBRANCH   1  12
BRANCH   6  13
ATOM     13  O   UNL     1       4.209   2.017  17.348  0.00  0.00    +0.000 OA
ATOM     14  H   UNL     1       4.944   1.770  16.764  0.00  0.00    +0.000 HD
ENDBRANCH   6  13
BRANCH   4  15
ATOM     15  C   UNL     1       6.330   5.390  15.329  0.00  0.00    +0.000 C 
BRANCH  15  16
ATOM     16  C   UNL     1       6.486   4.732  13.974  0.00  0.00    +0.000 A 
ATOM     17  C   UNL     1       5.515   3.823  13.530  0.00  0.00    +0.000 A 
ATOM     18  C   UNL     1       5.638   3.227  12.282  0.00  0.00    +0.000 A 
ATOM     19  C   UNL     1       6.733   3.557  11.508  0.00  0.00    +0.000 A 
ATOM     20  N   UNL     1       7.694   4.417  11.902  0.00  0.00    +0.000 NA
ATOM     21  C   UNL     1       7.565   4.981  13.119  0.00  0.00    +0.000 A 
BRANCH  21  22
ATOM     22  N   UNL     1       8.607   5.845  13.455  0.00  0.00    +0.000 N 
ATOM     23  H   UNL     1       8.677   5.802  14.471  0.00  0.00    +0.000 HD
ATOM     24  H   UNL     1       8.401   6.792  13.158  0.00  0.00    +0.000 HD
ENDBRANCH  21  22
ENDBRANCH  15  16
ENDBRANCH   4  15
TORSDOF 5
ENDMDL
