MODEL 1
REMARK VINA RESULT:     -10.0      0.000      0.000
REMARK  Name = 
REMARK  5 active torsions:
REMARK  status: ('A' for Active; 'I' for Inactive)
REMARK    1  A    between atoms: C_1  and  N_2
REMARK    2  A    between atoms: C_3  and  C_5
REMARK    3  A    between atoms: C_7  and  C_8
REMARK    4  A    between atoms: C_15  and  C_16
REMARK    5  A    between atoms: C_16  and  C_17
REMARK                            x       y       z     vdW  Elec       q    Type
REMARK                         _______ _______ _______ _____ _____    ______ ____
ROOT
ATOM      1  C   UNL     1       2.027   5.605  19.561  0.00  0.00    +0.000 A 
ATOM      2  C   UNL     1       1.386   4.783  20.539  0.00  0.00    +0.000 A 
ATOM      3  C   UNL     1       1.565   3.466  20.582  0.00  0.00    +0.000 A 
ATOM      4  F   UNL     1       0.922   2.754  21.527  0.00  0.00    +0.000 F 
ATOM      5  C   UNL     1       2.416   2.816  19.657  0.00  0.00    +0.000 A 
ATOM      6  N   UNL     1       2.752   1.555  19.503  0.00  0.00    +0.000 NA
ATOM      7  C   UNL     1       3.598   1.539  18.460  0.00  0.00    +0.000 A 
ATOM      8  C   UNL     1       3.804   2.787  17.937  0.00  0.00    +0.000 A 
ATOM      9  N   UNL     1       3.039   3.627  18.712  0.00  0.00    +0.000 N 
ATOM     10  C   UNL     1       2.835   5.006  18.674  0.00  0.00    +0.000 A 
ENDROOT
BRANCH   1  13
ATOM     11  C   UNL     1       1.101   9.091  20.712  0.00  0.00    +0.000 A 
ATOM     12  C   UNL     1       1.351   7.719  20.693  0.00  0.00    +0.000 A 
ATOM     13  C   UNL     1       1.809   7.052  19.564  0.00  0.00    +0.000 A 
ATOM     14  C   UNL     1       2.062   7.807  18.437  0.00  0.00    +0.000 A 
ATOM     15  C   UNL     1       1.856   9.172  18.434  0.00  0.00    +0.000 A 
ATOM     16  C   UNL     1       1.381   9.794  19.567  0.00  0.00    +0.000 A 
ATOM     17  F   UNL     1       1.175  11.106  19.539  0.00  0.00    +0.000 F 
BRANCH  11  20
ATOM     18  C   UNL     1      -1.212  11.175  23.027  0.00  0.00    +0.000 C 
ATOM     19  N   UNL     1      -0.657  10.495  21.858  0.00  0.00    +0.000 N 
ATOM     20  C   UNL     1       0.572   9.798  21.937  0.00  0.00    +0.000 C 
ATOM     21  O   UNL     1       1.217   9.736  22.982  0.00  0.00    +0.000 OA
ATOM     22  H   UNL     1      -1.189  10.552  20.990  0.00  0.00    +0.000 HD
ENDBRANCH  11  20
ENDBRANCH   1  13
BRANCH   8  23
ATOM     23  C   UNL     1       4.658   3.127  16.792  0.00  0.00    +0.000 C 
BRANCH  23  24
ATOM     24  C   UNL     1       5.284   4.487  16.931  0.00  0.00    +0.000 A 
ATOM     25  C   UNL     1       5.027   5.459  16.006  0.00  0.00    +0.000 A 
ATOM     26  C   UNL     1       5.288   6.771  16.323  0.00  0.00    +0.000 A 
ATOM     27  C   UNL     1       6.332   7.077  17.124  0.00  0.00    +0.000 A 
ATOM     28  N   UNL     1       6.793   8.301  17.020  0.00  0.00    +0.000 NA
ATOM     29  C   UNL     1       7.822   8.467  17.815  0.00  0.00    +0.000 A 
ATOM     30  C   UNL     1       8.805   8.658  18.555  0.00  0.00    +0.000 A 
ATOM     31  C   UNL     1       8.013   6.916  18.630  0.00  0.00    +0.000 A 
ATOM     32  C   UNL     1       6.847   6.135  17.947  0.00  0.00    +0.000 A 
ATOM     33  C   UNL     1       6.171   4.825  17.944  0.00  0.00    +0.000 A 
ENDBRANCH  23  24
ENDBRANCH   8  23
TORSDOF 4
ENDMDL
MODEL 2
REMARK VINA RESULT:     -10.0      0.820      1.302
REMARK  Name = 
REMARK  5 active torsions:
REMARK  status: ('A' for Active; 'I' for Inactive)
REMARK    1  A    between atoms: C_1  and  N_2
REMARK    2  A    between atoms: C_3  and  C_5
REMARK    3  A    between atoms: C_7  and  C_8
REMARK    4  A    between atoms: C_15  and  C_16
REMARK    5  A    between atoms: C_16  and  C_17
REMARK                            x       y       z     vdW  Elec       q    Type
REMARK                         _______ _______ _______ _____ _____    ______ ____
ROOT
ATOM      1  C   UNL     1       1.954   6.075  19.638  0.00  0.00    +0.000 A 
ATOM      2  C   UNL     1       1.288   5.160  20.509  0.00  0.00    +0.000 A 
ATOM      3  C   UNL     1       1.513   3.850  20.465  0.00  0.00    +0.000 A 
ATOM      4  F   UNL     1       0.842   3.046  21.312  0.00  0.00    +0.000 F 
ATOM      5  C   UNL     1       2.441   3.302  19.548  0.00  0.00    +0.000 A 
ATOM      6  N   UNL     1       2.833   2.068  19.321  0.00  0.00    +0.000 NA
ATOM      7  C   UNL     1       3.739   2.159  18.334  0.00  0.00    +0.000 A 
ATOM      8  C   UNL     1       3.928   3.451  17.920  0.00  0.00    +0.000 A 
ATOM      9  N   UNL     1       3.089   4.203  18.707  0.00  0.00    +0.000 N 
ATOM     10  C   UNL     1       2.835   5.573  18.760  0.00  0.00    +0.000 A 
ENDROOT
BRANCH   1  13
ATOM     11  C   UNL     1       0.828   9.429  20.985  0.00  0.00    +0.000 A 
ATOM     12  C   UNL     1       1.129   8.071  20.879  0.00  0.00    +0.000 A 
ATOM     13  C   UNL     1       1.682   7.509  19.735  0.00  0.00    +0.000 A 
ATOM     14  C   UNL     1       1.977   8.357  18.687  0.00  0.00    +0.000 A 
ATOM     15  C   UNL     1       1.721   9.712  18.774  0.00  0.00    +0.000 A 
ATOM     16  C   UNL     1       1.152  10.228  19.916  0.00  0.00    +0.000 A 
ATOM     17  F   UNL     1       0.900  11.531  19.974  0.00  0.00    +0.000 F 
BRANCH  11  20
ATOM     18  C   UNL     1      -1.622  11.385  23.271  0.00  0.00    +0.000 C 
ATOM     19  N   UNL     1      -0.971  10.811  22.094  0.00  0.00    +0.000 N 
ATOM     20  C   UNL     1       0.196  10.022  22.222  0.00  0.00    +0.000 C 
ATOM     21  O   UNL     1       0.705   9.787  23.317  0.00  0.00    +0.000 OA
ATOM     22  H   UNL     1      -1.389  11.011  21.186  0.00  0.00    +0.000 HD
ENDBRANCH  11  20
ENDBRANCH   1  13
BRANCH   8  23
ATOM     23  C   UNL     1       4.836   3.906  16.858  0.00  0.00    +0.000 C 
BRANCH  23  24
ATOM     24  C   UNL     1       5.827   4.923  17.352  0.00  0.00    +0.000 A 
ATOM     25  C   UNL     1       6.572   4.669  18.469  0.00  0.00    +0.000 A 
ATOM     26  C   UNL     1       7.708   5.410  18.698  0.00  0.00    +0.000 A 
ATOM     27  C   UNL     1       7.756   6.706  18.323  0.00  0.00    +0.000 A 
ATOM     28  N   UNL     1       8.634   7.451  18.952  0.00  0.00    +0.000 NA
ATOM     29  C   UNL     1       8.562   8.690  18.530  0.00  0.00    +0.000 A 
ATOM     30  C   UNL     1       8.518   9.877  18.156  0.00  0.00    +0.000 A 
ATOM     31  C   UNL     1       7.304   8.671  17.296  0.00  0.00    +0.000 A 
ATOM     32  C   UNL     1       6.911   7.162  17.370  0.00  0.00    +0.000 A 
ATOM     33  C   UNL     1       6.016   6.163  16.759  0.00  0.00    +0.000 A 
ENDBRANCH  23  24
ENDBRANCH   8  23
TORSDOF 4
ENDMDL
MODEL 3
REMARK VINA RESULT:      -9.4      2.099      2.897
REMARK  Name = 
REMARK  5 active torsions:
REMARK  status: ('A' for Active; 'I' for Inactive)
REMARK    1  A    between atoms: C_1  and  N_2
REMARK    2  A    between atoms: C_3  and  C_5
REMARK    3  A    between atoms: C_7  and  C_8
REMARK    4  A    between atoms: C_15  and  C_16
REMARK    5  A    between atoms: C_16  and  C_17
REMARK                            x       y       z     vdW  Elec       q    Type
REMARK                         _______ _______ _______ _____ _____    ______ ____
ROOT
ATOM      1  C   UNL     1       2.135   6.435  20.031  0.00  0.00    +0.000 A 
ATOM      2  C   UNL     1       1.322   5.430  20.639  0.00  0.00    +0.000 A 
ATOM      3  C   UNL     1       1.718   4.164  20.737  0.00  0.00    +0.000 A 
ATOM      4  F   UNL     1       0.895   3.269  21.316  0.00  0.00    +0.000 F 
ATOM      5  C   UNL     1       2.981   3.757  20.247  0.00  0.00    +0.000 A 
ATOM      6  N   UNL     1       3.587   2.591  20.232  0.00  0.00    +0.000 NA
ATOM      7  C   UNL     1       4.771   2.814  19.640  0.00  0.00    +0.000 A 
ATOM      8  C   UNL     1       4.928   4.122  19.267  0.00  0.00    +0.000 A 
ATOM      9  N   UNL     1       3.767   4.745  19.660  0.00  0.00    +0.000 N 
ATOM     10  C   UNL     1       3.334   6.066  19.558  0.00  0.00    +0.000 A 
ENDROOT
BRANCH   1  13
ATOM     11  C   UNL     1       0.563   9.742  20.993  0.00  0.00    +0.000 A 
ATOM     12  C   UNL     1       1.056   8.438  21.045  0.00  0.00    +0.000 A 
ATOM     13  C   UNL     1       1.660   7.817  19.959  0.00  0.00    +0.000 A 
ATOM     14  C   UNL     1       1.808   8.556  18.803  0.00  0.00    +0.000 A 
ATOM     15  C   UNL     1       1.360   9.861  18.731  0.00  0.00    +0.000 A 
ATOM     16  C   UNL     1       0.747  10.434  19.821  0.00  0.00    +0.000 A 
ATOM     17  F   UNL     1       0.309  11.685  19.726  0.00  0.00    +0.000 F 
BRANCH  11  20
ATOM     18  C   UNL     1      -1.916  11.898  23.058  0.00  0.00    +0.000 C 
ATOM     19  N   UNL     1      -1.214  11.264  21.942  0.00  0.00    +0.000 N 
ATOM     20  C   UNL     1      -0.122  10.394  22.170  0.00  0.00    +0.000 C 
ATOM     21  O   UNL     1       0.278  10.137  23.304  0.00  0.00    +0.000 OA
ATOM     22  H   UNL     1      -1.543  11.482  21.002  0.00  0.00    +0.000 HD
ENDBRANCH  11  20
ENDBRANCH   1  13
BRANCH   8  23
ATOM     23  C   UNL     1       6.094   4.706  18.591  0.00  0.00    +0.000 C 
BRANCH  23  24
ATOM     24  C   UNL     1       6.040   4.521  17.100  0.00  0.00    +0.000 A 
ATOM     25  C   UNL     1       5.122   3.674  16.546  0.00  0.00    +0.000 A 
ATOM     26  C   UNL     1       4.831   3.786  15.206  0.00  0.00    +0.000 A 
ATOM     27  C   UNL     1       5.795   4.153  14.335  0.00  0.00    +0.000 A 
ATOM     28  N   UNL     1       5.596   3.806  13.084  0.00  0.00    +0.000 NA
ATOM     29  C   UNL     1       6.610   4.183  12.343  0.00  0.00    +0.000 A 
ATOM     30  C   UNL     1       7.558   4.522  11.611  0.00  0.00    +0.000 A 
ATOM     31  C   UNL     1       7.707   4.992  13.462  0.00  0.00    +0.000 A 
ATOM     32  C   UNL     1       6.888   4.812  14.779  0.00  0.00    +0.000 A 
ATOM     33  C   UNL     1       6.915   5.138  16.217  0.00  0.00    +0.000 A 
ENDBRANCH  23  24
ENDBRANCH   8  23
TORSDOF 4
ENDMDL
MODEL 4
REMARK VINA RESULT:      -9.4      1.649      2.372
REMARK  Name = 
REMARK  5 active torsions:
REMARK  status: ('A' for Active; 'I' for Inactive)
REMARK    1  A    between atoms: C_1  and  N_2
REMARK    2  A    between atoms: C_3  and  C_5
REMARK    3  A    between atoms: C_7  and  C_8
REMARK    4  A    between atoms: C_15  and  C_16
REMARK    5  A    between atoms: C_16  and  C_17
REMARK                            x       y       z     vdW  Elec       q    Type
REMARK                         _______ _______ _______ _____ _____    ______ ____
ROOT
ATOM      1  C   UNL     1       1.834   5.781  19.903  0.00  0.00    +0.000 A 
ATOM      2  C   UNL     1       1.268   4.742  20.704  0.00  0.00    +0.000 A 
ATOM      3  C   UNL     1       1.517   3.456  20.474  0.00  0.00    +0.000 A 
ATOM      4  F   UNL     1       0.942   2.531  21.266  0.00  0.00    +0.000 F 
ATOM      5  C   UNL     1       2.371   3.058  19.419  0.00  0.00    +0.000 A 
ATOM      6  N   UNL     1       2.768   1.876  19.003  0.00  0.00    +0.000 NA
ATOM      7  C   UNL     1       3.579   2.120  17.962  0.00  0.00    +0.000 A 
ATOM      8  C   UNL     1       3.703   3.458  17.702  0.00  0.00    +0.000 A 
ATOM      9  N   UNL     1       2.921   4.078  18.647  0.00  0.00    +0.000 N 
ATOM     10  C   UNL     1       2.644   5.422  18.896  0.00  0.00    +0.000 A 
ENDROOT
BRANCH   1  13
ATOM     11  C   UNL     1       1.528   9.538  19.553  0.00  0.00    +0.000 A 
ATOM     12  C   UNL     1       1.766   8.192  19.278  0.00  0.00    +0.000 A 
ATOM     13  C   UNL     1       1.540   7.182  20.205  0.00  0.00    +0.000 A 
ATOM     14  C   UNL     1       1.016   7.546  21.429  0.00  0.00    +0.000 A 
ATOM     15  C   UNL     1       0.739   8.867  21.719  0.00  0.00    +0.000 A 
ATOM     16  C   UNL     1       0.997   9.842  20.782  0.00  0.00    +0.000 A 
ATOM     17  F   UNL     1       0.736  11.109  21.086  0.00  0.00    +0.000 F 
BRANCH  11  20
ATOM     18  C   UNL     1       2.138  13.058  18.039  0.00  0.00    +0.000 C 
ATOM     19  N   UNL     1       1.848  11.976  18.979  0.00  0.00    +0.000 N 
ATOM     20  C   UNL     1       1.810  10.629  18.548  0.00  0.00    +0.000 C 
ATOM     21  O   UNL     1       2.017  10.316  17.377  0.00  0.00    +0.000 OA
ATOM     22  H   UNL     1       1.671  12.237  19.949  0.00  0.00    +0.000 HD
ENDBRANCH  11  20
ENDBRANCH   1  13
BRANCH   8  23
ATOM     23  C   UNL     1       4.503   4.072  16.633  0.00  0.00    +0.000 C 
BRANCH  23  24
ATOM     24  C   UNL     1       5.561   4.995  17.170  0.00  0.00    +0.000 A 
ATOM     25  C   UNL     1       6.319   4.620  18.242  0.00  0.00    +0.000 A 
ATOM     26  C   UNL     1       7.500   5.280  18.491  0.00  0.00    +0.000 A 
ATOM     27  C   UNL     1       7.609   6.597  18.211  0.00  0.00    +0.000 A 
ATOM     28  N   UNL     1       8.543   7.245  18.867  0.00  0.00    +0.000 NA
ATOM     29  C   UNL     1       8.528   8.514  18.540  0.00  0.00    +0.000 A 
ATOM     30  C   UNL     1       8.539   9.727  18.255  0.00  0.00    +0.000 A 
ATOM     31  C   UNL     1       7.239   8.654  17.345  0.00  0.00    +0.000 A 
ATOM     32  C   UNL     1       6.766   7.167  17.321  0.00  0.00    +0.000 A 
ATOM     33  C   UNL     1       5.801   6.265  16.664  0.00  0.00    +0.000 A 
ENDBRANCH  23  24
ENDBRANCH   8  23
TORSDOF 4
ENDMDL
MODEL 5
REMARK VINA RESULT:      -9.3      4.065      8.155
REMARK  Name = 
REMARK  5 active torsions:
REMARK  status: ('A' for Active; 'I' for Inactive)
REMARK    1  A    between atoms: C_1  and  N_2
REMARK    2  A    between atoms: C_3  and  C_5
REMARK    3  A    between atoms: C_7  and  C_8
REMARK    4  A    between atoms: C_15  and  C_16
REMARK    5  A    between atoms: C_16  and  C_17
REMARK                            x       y       z     vdW  Elec       q    Type
REMARK                         _______ _______ _______ _____ _____    ______ ____
ROOT
ATOM      1  C   UNL     1       3.940   4.331  17.067  0.00  0.00    +0.000 A 
ATOM      2  C   UNL     1       3.186   3.117  17.114  0.00  0.00    +0.000 A 
ATOM      3  C   UNL     1       2.237   2.909  18.022  0.00  0.00    +0.000 A 
ATOM      4  F   UNL     1       1.573   1.738  18.010  0.00  0.00    +0.000 F 
ATOM      5  C   UNL     1       1.924   3.896  18.987  0.00  0.00    +0.000 A 
ATOM      6  N   UNL     1       1.044   3.927  19.962  0.00  0.00    +0.000 NA
ATOM      7  C   UNL     1       1.202   5.128  20.543  0.00  0.00    +0.000 A 
ATOM      8  C   UNL     1       2.186   5.869  19.946  0.00  0.00    +0.000 A 
ATOM      9  N   UNL     1       2.662   5.076  18.929  0.00  0.00    +0.000 N 
ATOM     10  C   UNL     1       3.659   5.276  17.976  0.00  0.00    +0.000 A 
ENDROOT
BRANCH   1  13
ATOM     11  C   UNL     1       5.853   4.032  13.814  0.00  0.00    +0.000 A 
ATOM     12  C   UNL     1       4.874   3.899  14.798  0.00  0.00    +0.000 A 
ATOM     13  C   UNL     1       4.964   4.517  16.039  0.00  0.00    +0.000 A 
ATOM     14  C   UNL     1       6.056   5.329  16.269  0.00  0.00    +0.000 A 
ATOM     15  C   UNL     1       7.026   5.507  15.302  0.00  0.00    +0.000 A 
ATOM     16  C   UNL     1       6.912   4.860  14.092  0.00  0.00    +0.000 A 
ATOM     17  F   UNL     1       7.863   5.033  13.181  0.00  0.00    +0.000 F 
BRANCH  11  20
ATOM     18  C   UNL     1       6.710   1.701  10.833  0.00  0.00    +0.000 C 
ATOM     19  N   UNL     1       6.776   2.418  12.105  0.00  0.00    +0.000 N 
ATOM     20  C   UNL     1       5.760   3.327  12.482  0.00  0.00    +0.000 C 
ATOM     21  O   UNL     1       4.788   3.550  11.761  0.00  0.00    +0.000 OA
ATOM     22  H   UNL     1       7.585   2.238  12.700  0.00  0.00    +0.000 HD
ENDBRANCH  11  20
ENDBRANCH   1  13
BRANCH   8  23
ATOM     23  C   UNL     1       2.623   7.218  20.333  0.00  0.00    +0.000 C 
BRANCH  23  24
ATOM     24  C   UNL     1       1.689   8.285  19.835  0.00  0.00    +0.000 A 
ATOM     25  C   UNL     1       1.766   8.716  18.540  0.00  0.00    +0.000 A 
ATOM     26  C   UNL     1       0.703   9.398  17.997  0.00  0.00    +0.000 A 
ATOM     27  C   UNL     1      -0.046  10.211  18.774  0.00  0.00    +0.000 A 
ATOM     28  N   UNL     1      -0.717  11.145  18.142  0.00  0.00    +0.000 NA
ATOM     29  C   UNL     1      -1.372  11.890  18.999  0.00  0.00    +0.000 A 
ATOM     30  C   UNL     1      -2.004  12.620  19.785  0.00  0.00    +0.000 A 
ATOM     31  C   UNL     1      -1.001  11.192  20.575  0.00  0.00    +0.000 A 
ATOM     32  C   UNL     1      -0.049  10.044  20.115  0.00  0.00    +0.000 A 
ATOM     33  C   UNL     1       0.747   8.917  20.635  0.00  0.00    +0.000 A 
ENDBRANCH  23  24
ENDBRANCH   8  23
TORSDOF 4
ENDMDL
MODEL 6
REMARK VINA RESULT:      -9.3      3.980      8.578
REMARK  Name = 
REMARK  5 active torsions:
REMARK  status: ('A' for Active; 'I' for Inactive)
REMARK    1  A    between atoms: C_1  and  N_2
REMARK    2  A    between atoms: C_3  and  C_5
REMARK    3  A    between atoms: C_7  and  C_8
REMARK    4  A    between atoms: C_15  and  C_16
REMARK    5  A    between atoms: C_16  and  C_17
REMARK                            x       y       z     vdW  Elec       q    Type
REMARK                         _______ _______ _______ _____ _____    ______ ____
ROOT
ATOM      1  C   UNL     1       4.709   4.646  17.100  0.00  0.00    +0.000 A 
ATOM      2  C   UNL     1       4.637   3.441  17.864  0.00  0.00    +0.000 A 
ATOM      3  C   UNL     1       3.898   3.346  18.966  0.00  0.00    +0.000 A 
ATOM      4  F   UNL     1       3.884   2.180  19.640  0.00  0.00    +0.000 F 
ATOM      5  C   UNL     1       3.136   4.445  19.429  0.00  0.00    +0.000 A 
ATOM      6  N   UNL     1       2.341   4.593  20.465  0.00  0.00    +0.000 NA
ATOM      7  C   UNL     1       1.892   5.856  20.389  0.00  0.00    +0.000 A 
ATOM      8  C   UNL     1       2.400   6.525  19.307  0.00  0.00    +0.000 A 
ATOM      9  N   UNL     1       3.211   5.613  18.674  0.00  0.00    +0.000 N 
ATOM     10  C   UNL     1       3.996   5.699  17.526  0.00  0.00    +0.000 A 
ENDROOT
BRANCH   1  13
ATOM     11  C   UNL     1       5.971   3.970  13.595  0.00  0.00    +0.000 A 
ATOM     12  C   UNL     1       5.192   3.967  14.752  0.00  0.00    +0.000 A 
ATOM     13  C   UNL     1       5.525   4.696  15.887  0.00  0.00    +0.000 A 
ATOM     14  C   UNL     1       6.657   5.483  15.828  0.00  0.00    +0.000 A 
ATOM     15  C   UNL     1       7.431   5.532  14.686  0.00  0.00    +0.000 A 
ATOM     16  C   UNL     1       7.079   4.779  13.589  0.00  0.00    +0.000 A 
ATOM     17  F   UNL     1       7.845   4.829  12.505  0.00  0.00    +0.000 F 
BRANCH  11  20
ATOM     18  C   UNL     1       6.150   1.263  10.821  0.00  0.00    +0.000 C 
ATOM     19  N   UNL     1       6.471   2.095  11.980  0.00  0.00    +0.000 N 
ATOM     20  C   UNL     1       5.614   3.146  12.381  0.00  0.00    +0.000 C 
ATOM     21  O   UNL     1       4.573   3.401  11.777  0.00  0.00    +0.000 OA
ATOM     22  H   UNL     1       7.338   1.887  12.476  0.00  0.00    +0.000 HD
ENDBRANCH  11  20
ENDBRANCH   1  13
BRANCH   8  23
ATOM     23  C   UNL     1       2.125   7.918  18.931  0.00  0.00    +0.000 C 
BRANCH  23  24
ATOM     24  C   UNL     1       1.425   8.677  20.023  0.00  0.00    +0.000 A 
ATOM     25  C   UNL     1       1.474   8.226  21.312  0.00  0.00    +0.000 A 
ATOM     26  C   UNL     1       1.162   9.090  22.336  0.00  0.00    +0.000 A 
ATOM     27  C   UNL     1       0.224  10.044  22.152  0.00  0.00    +0.000 A 
ATOM     28  N   UNL     1      -0.338  10.510  23.243  0.00  0.00    +0.000 NA
ATOM     29  C   UNL     1      -1.252  11.398  22.937  0.00  0.00    +0.000 A 
ATOM     30  C   UNL     1      -2.131  12.243  22.682  0.00  0.00    +0.000 A 
ATOM     31  C   UNL     1      -1.208  11.500  21.177  0.00  0.00    +0.000 A 
ATOM     32  C   UNL     1      -0.096  10.441  20.900  0.00  0.00    +0.000 A 
ATOM     33  C   UNL     1       0.669   9.820  19.802  0.00  0.00    +0.000 A 
ENDBRANCH  23  24
ENDBRANCH   8  23
TORSDOF 4
ENDMDL
MODEL 7
REMARK VINA RESULT:      -9.2      1.963      3.074
REMARK  Name = 
REMARK  5 active torsions:
REMARK  status: ('A' for Active; 'I' for Inactive)
REMARK    1  A    between atoms: C_1  and  N_2
REMARK    2  A    between atoms: C_3  and  C_5
REMARK    3  A    between atoms: C_7  and  C_8
REMARK    4  A    between atoms: C_15  and  C_16
REMARK    5  A    between atoms: C_16  and  C_17
REMARK                            x       y       z     vdW  Elec       q    Type
REMARK                         _______ _______ _______ _____ _____    ______ ____
ROOT
ATOM      1  C   UNL     1       2.042   6.576  20.006  0.00  0.00    +0.000 A 
ATOM      2  C   UNL     1       1.189   5.519  20.449  0.00  0.00    +0.000 A 
ATOM      3  C   UNL     1       1.591   4.252  20.480  0.00  0.00    +0.000 A 
ATOM      4  F   UNL     1       0.729   3.307  20.902  0.00  0.00    +0.000 F 
ATOM      5  C   UNL     1       2.900   3.894  20.078  0.00  0.00    +0.000 A 
ATOM      6  N   UNL     1       3.520   2.736  20.024  0.00  0.00    +0.000 NA
ATOM      7  C   UNL     1       4.751   3.015  19.566  0.00  0.00    +0.000 A 
ATOM      8  C   UNL     1       4.924   4.350  19.320  0.00  0.00    +0.000 A 
ATOM      9  N   UNL     1       3.724   4.932  19.652  0.00  0.00    +0.000 N 
ATOM     10  C   UNL     1       3.285   6.255  19.619  0.00  0.00    +0.000 A 
ENDROOT
BRANCH   1  13
ATOM     11  C   UNL     1       0.438   9.816  21.132  0.00  0.00    +0.000 A 
ATOM     12  C   UNL     1       0.940   8.514  21.118  0.00  0.00    +0.000 A 
ATOM     13  C   UNL     1       1.558   7.957  20.005  0.00  0.00    +0.000 A 
ATOM     14  C   UNL     1       1.710   8.758  18.893  0.00  0.00    +0.000 A 
ATOM     15  C   UNL     1       1.253  10.062  18.887  0.00  0.00    +0.000 A 
ATOM     16  C   UNL     1       0.626  10.571  20.001  0.00  0.00    +0.000 A 
ATOM     17  F   UNL     1       0.181  11.823  19.970  0.00  0.00    +0.000 F 
BRANCH  11  20
ATOM     18  C   UNL     1      -2.073  11.841  23.287  0.00  0.00    +0.000 C 
ATOM     19  N   UNL     1      -1.357  11.274  22.146  0.00  0.00    +0.000 N 
ATOM     20  C   UNL     1      -0.262  10.398  22.336  0.00  0.00    +0.000 C 
ATOM     21  O   UNL     1       0.128  10.081  23.459  0.00  0.00    +0.000 OA
ATOM     22  H   UNL     1      -1.678  11.541  21.215  0.00  0.00    +0.000 HD
ENDBRANCH  11  20
ENDBRANCH   1  13
BRANCH   8  23
ATOM     23  C   UNL     1       6.141   4.996  18.807  0.00  0.00    +0.000 C 
BRANCH  23  24
ATOM     24  C   UNL     1       6.304   4.807  17.325  0.00  0.00    +0.000 A 
ATOM     25  C   UNL     1       7.224   5.547  16.636  0.00  0.00    +0.000 A 
ATOM     26  C   UNL     1       7.625   5.124  15.390  0.00  0.00    +0.000 A 
ATOM     27  C   UNL     1       6.751   4.492  14.578  0.00  0.00    +0.000 A 
ATOM     28  N   UNL     1       7.033   4.529  13.296  0.00  0.00    +0.000 NA
ATOM     29  C   UNL     1       6.099   3.917  12.610  0.00  0.00    +0.000 A 
ATOM     30  C   UNL     1       5.228   3.347  11.926  0.00  0.00    +0.000 A 
ATOM     31  C   UNL     1       4.954   3.342  13.822  0.00  0.00    +0.000 A 
ATOM     32  C   UNL     1       5.657   3.895  15.102  0.00  0.00    +0.000 A 
ATOM     33  C   UNL     1       5.531   3.936  16.571  0.00  0.00    +0.000 A 
ENDBRANCH  23  24
ENDBRANCH   8  23
TORSDOF 4
ENDMDL
MODEL 8
REMARK VINA RESULT:      -9.1      4.425      8.733
REMARK  Name = 
REMARK  5 active torsions:
REMARK  status: ('A' for Active; 'I' for Inactive)
REMARK    1  A    between atoms: C_1  and  N_2
REMARK    2  A    between atoms: C_3  and  C_5
REMARK    3  A    between atoms: C_7  and  C_8
REMARK    4  A    between atoms: C_15  and  C_16
REMARK    5  A    between atoms: C_16  and  C_17
REMARK                            x       y       z     vdW  Elec       q    Type
REMARK                         _______ _______ _______ _____ _____    ______ ____
ROOT
ATOM      1  C   UNL     1       4.533   4.836  16.706  0.00  0.00    +0.000 A 
ATOM      2  C   UNL     1       4.134   3.648  17.394  0.00  0.00    +0.000 A 
ATOM      3  C   UNL     1       3.340   3.682  18.460  0.00  0.00    +0.000 A 
ATOM      4  F   UNL     1       3.012   2.523  19.063  0.00  0.00    +0.000 F 
ATOM      5  C   UNL     1       2.843   4.910  18.959  0.00  0.00    +0.000 A 
ATOM      6  N   UNL     1       2.056   5.196  19.972  0.00  0.00    +0.000 NA
ATOM      7  C   UNL     1       1.929   6.533  19.954  0.00  0.00    +0.000 A 
ATOM      8  C   UNL     1       2.636   7.110  18.934  0.00  0.00    +0.000 A 
ATOM      9  N   UNL     1       3.234   6.060  18.278  0.00  0.00    +0.000 N 
ATOM     10  C   UNL     1       4.074   6.008  17.166  0.00  0.00    +0.000 A 
ENDROOT
BRANCH   1  13
ATOM     11  C   UNL     1       5.876   3.833  13.311  0.00  0.00    +0.000 A 
ATOM     12  C   UNL     1       5.055   3.965  14.431  0.00  0.00    +0.000 A 
ATOM     13  C   UNL     1       5.397   4.745  15.528  0.00  0.00    +0.000 A 
ATOM     14  C   UNL     1       6.584   5.444  15.467  0.00  0.00    +0.000 A 
ATOM     15  C   UNL     1       7.403   5.360  14.359  0.00  0.00    +0.000 A 
ATOM     16  C   UNL     1       7.040   4.560  13.300  0.00  0.00    +0.000 A 
ATOM     17  F   UNL     1       7.849   4.481  12.249  0.00  0.00    +0.000 F 
BRANCH  11  20
ATOM     18  C   UNL     1       5.952   0.925  10.743  0.00  0.00    +0.000 C 
ATOM     19  N   UNL     1       6.289   1.810  11.857  0.00  0.00    +0.000 N 
ATOM     20  C   UNL     1       5.507   2.955  12.139  0.00  0.00    +0.000 C 
ATOM     21  O   UNL     1       4.521   3.250  11.465  0.00  0.00    +0.000 OA
ATOM     22  H   UNL     1       7.111   1.569  12.412  0.00  0.00    +0.000 HD
ENDBRANCH  11  20
ENDBRANCH   1  13
BRANCH   8  23
ATOM     23  C   UNL     1       2.724   8.545  18.631  0.00  0.00    +0.000 C 
BRANCH  23  24
ATOM     24  C   UNL     1       1.380   9.216  18.655  0.00  0.00    +0.000 A 
ATOM     25  C   UNL     1       0.902   9.755  19.817  0.00  0.00    +0.000 A 
ATOM     26  C   UNL     1      -0.124  10.669  19.759  0.00  0.00    +0.000 A 
ATOM     27  C   UNL     1      -1.074  10.557  18.806  0.00  0.00    +0.000 A 
ATOM     28  N   UNL     1      -2.219  11.142  19.070  0.00  0.00    +0.000 NA
ATOM     29  C   UNL     1      -3.069  10.935  18.095  0.00  0.00    +0.000 A 
ATOM     30  C   UNL     1      -3.904  10.754  17.188  0.00  0.00    +0.000 A 
ATOM     31  C   UNL     1      -2.175   9.975  16.917  0.00  0.00    +0.000 A 
ATOM     32  C   UNL     1      -0.819   9.854  17.680  0.00  0.00    +0.000 A 
ATOM     33  C   UNL     1       0.540   9.294  17.553  0.00  0.00    +0.000 A 
ENDBRANCH  23  24
ENDBRANCH   8  23
TORSDOF 4
ENDMDL
MODEL 9
REMARK VINA RESULT:      -9.1      4.067      8.268
REMARK  Name = 
REMARK  5 active torsions:
REMARK  status: ('A' for Active; 'I' for Inactive)
REMARK    1  A    between atoms: C_1  and  N_2
REMARK    2  A    between atoms: C_3  and  C_5
REMARK    3  A    between atoms: C_7  and  C_8
REMARK    4  A    between atoms: C_15  and  C_16
REMARK    5  A    between atoms: C_16  and  C_17
REMARK                            x       y       z     vdW  Elec       q    Type
REMARK                         _______ _______ _______ _____ _____    ______ ____
ROOT
ATOM      1  C   UNL     1       3.944   4.379  17.095  0.00  0.00    +0.000 A 
ATOM      2  C   UNL     1       3.189   3.167  17.159  0.00  0.00    +0.000 A 
ATOM      3  C   UNL     1       2.245   2.970  18.075  0.00  0.00    +0.000 A 
ATOM      4  F   UNL     1       1.579   1.800  18.079  0.00  0.00    +0.000 F 
ATOM      5  C   UNL     1       1.940   3.967  19.031  0.00  0.00    +0.000 A 
ATOM      6  N   UNL     1       1.066   4.010  20.012  0.00  0.00    +0.000 NA
ATOM      7  C   UNL     1       1.229   5.216  20.579  0.00  0.00    +0.000 A 
ATOM      8  C   UNL     1       2.210   5.950  19.969  0.00  0.00    +0.000 A 
ATOM      9  N   UNL     1       2.679   5.145  18.957  0.00  0.00    +0.000 N 
ATOM     10  C   UNL     1       3.670   5.334  17.995  0.00  0.00    +0.000 A 
ENDROOT
BRANCH   1  13
ATOM     11  C   UNL     1       5.839   4.041  13.834  0.00  0.00    +0.000 A 
ATOM     12  C   UNL     1       4.865   3.920  14.826  0.00  0.00    +0.000 A 
ATOM     13  C   UNL     1       4.962   4.553  16.059  0.00  0.00    +0.000 A 
ATOM     14  C   UNL     1       6.056   5.367  16.272  0.00  0.00    +0.000 A 
ATOM     15  C   UNL     1       7.020   5.534  15.298  0.00  0.00    +0.000 A 
ATOM     16  C   UNL     1       6.899   4.872  14.097  0.00  0.00    +0.000 A 
ATOM     17  F   UNL     1       7.845   5.034  13.178  0.00  0.00    +0.000 F 
BRANCH  11  20
ATOM     18  C   UNL     1       6.682   1.681  10.872  0.00  0.00    +0.000 C 
ATOM     19  N   UNL     1       6.756   2.413  12.136  0.00  0.00    +0.000 N 
ATOM     20  C   UNL     1       5.737   3.321  12.511  0.00  0.00    +0.000 C 
ATOM     21  O   UNL     1       4.757   3.529  11.797  0.00  0.00    +0.000 OA
ATOM     22  H   UNL     1       7.571   2.245  12.725  0.00  0.00    +0.000 HD
ENDBRANCH  11  20
ENDBRANCH   1  13
BRANCH   8  23
ATOM     23  C   UNL     1       2.652   7.302  20.338  0.00  0.00    +0.000 C 
BRANCH  23  24
ATOM     24  C   UNL     1       1.572   8.329  20.140  0.00  0.00    +0.000 A 
ATOM     25  C   UNL     1       0.864   8.796  21.210  0.00  0.00    +0.000 A 
ATOM     26  C   UNL     1       0.158   9.970  21.086  0.00  0.00    +0.000 A 
ATOM     27  C   UNL     1      -0.408  10.294  19.904  0.00  0.00    +0.000 A 
ATOM     28  N   UNL     1      -1.408  11.143  19.963  0.00  0.00    +0.000 NA
ATOM     29  C   UNL     1      -1.897  11.352  18.765  0.00  0.00    +0.000 A 
ATOM     30  C   UNL     1      -2.389  11.570  17.642  0.00  0.00    +0.000 A 
ATOM     31  C   UNL     1      -0.899  10.367  17.696  0.00  0.00    +0.000 A 
ATOM     32  C   UNL     1       0.048   9.732  18.762  0.00  0.00    +0.000 A 
ATOM     33  C   UNL     1       1.201   8.823  18.897  0.00  0.00    +0.000 A 
ENDBRANCH  23  24
ENDBRANCH   8  23
TORSDOF 4
ENDMDL
