MODEL 1
REMARK VINA RESULT:      -8.4      0.000      0.000
REMARK  Name = 
REMARK  4 active torsions:
REMARK  status: ('A' for Active; 'I' for Inactive)
REMARK    1  A    between atoms: C_1  and  C_2
REMARK    2  A    between atoms: N_4  and  C_5
REMARK    3  A    between atoms: C_13  and  C_14
REMARK    4  A    between atoms: C_14  and  N_15
REMARK                            x       y       z     vdW  Elec       q    Type
REMARK                         _______ _______ _______ _____ _____    ______ ____
ROOT
ATOM      1  C   UNL     1       1.496   2.820  21.352  0.00  0.00    +0.000 C 
ATOM      2  C   UNL     1       2.150   3.940  20.632  0.00  0.00    +0.000 A 
ATOM      3  N   UNL     1       1.536   5.126  20.503  0.00  0.00    +0.000 NA
ATOM      4  N   UNL     1       2.399   5.906  19.778  0.00  0.00    +0.000 N 
ATOM      5  C   UNL     1       3.549   5.197  19.450  0.00  0.00    +0.000 A 
ATOM      6  N   UNL     1       4.618   5.633  18.729  0.00  0.00    +0.000 NA
ATOM      7  C   UNL     1       5.571   4.761  18.613  0.00  0.00    +0.000 A 
ATOM      8  N   UNL     1       5.545   3.496  19.183  0.00  0.00    +0.000 N 
ATOM      9  C   UNL     1       4.464   2.992  19.874  0.00  0.00    +0.000 A 
ATOM     10  O   UNL     1       4.422   1.843  20.297  0.00  0.00    +0.000 OA
ATOM     11  C   UNL     1       3.408   3.951  20.018  0.00  0.00    +0.000 A 
ATOM     12  H   UNL     1       6.295   2.851  18.972  0.00  0.00    +0.000 HD
ENDROOT
BRANCH   4  13
ATOM     13  C   UNL     1       2.064   7.264  19.477  0.00  0.00    +0.000 A 
ATOM     14  C   UNL     1       2.290   7.753  18.180  0.00  0.00    +0.000 A 
ATOM     15  C   UNL     1       1.929   9.064  17.849  0.00  0.00    +0.000 A 
ATOM     16  C   UNL     1       1.354   9.896  18.805  0.00  0.00    +0.000 A 
ATOM     17  C   UNL     1       1.143   9.426  20.098  0.00  0.00    +0.000 A 
ATOM     18  C   UNL     1       1.495   8.115  20.433  0.00  0.00    +0.000 A 
ENDBRANCH   4  13
BRANCH   7  19
ATOM     19  C   UNL     1       6.819   5.065  17.794  0.00  0.00    +0.000 C 
BRANCH  19  20
ATOM     20  N   UNL     1       6.458   5.021  16.374  0.00  0.00    +0.000 NA
ATOM     21  C   UNL     1       7.640   4.968  15.480  0.00  0.00    +0.000 C 
ATOM     22  C   UNL     1       7.161   5.104  14.025  0.00  0.00    +0.000 C 
ATOM     23  O   UNL     1       6.238   4.059  13.678  0.00  0.00    +0.000 OA
ATOM     24  C   UNL     1       5.128   4.031  14.588  0.00  0.00    +0.000 C 
ATOM     25  C   UNL     1       5.605   3.865  16.039  0.00  0.00    +0.000 C 
ENDBRANCH  19  20
ENDBRANCH   7  19
TORSDOF 3
ENDMDL
MODEL 2
REMARK VINA RESULT:      -8.1      3.492      6.955
REMARK  Name = 
REMARK  4 active torsions:
REMARK  status: ('A' for Active; 'I' for Inactive)
REMARK    1  A    between atoms: C_1  and  C_2
REMARK    2  A    between atoms: N_4  and  C_5
REMARK    3  A    between atoms: C_13  and  C_14
REMARK    4  A    between atoms: C_14  and  N_15
REMARK                            x       y       z     vdW  Elec       q    Type
REMARK                         _______ _______ _______ _____ _____    ______ ____
ROOT
ATOM      1  C   UNL     1       8.080   7.510  17.809  0.00  0.00    +0.000 C 
ATOM      2  C   UNL     1       7.352   6.398  17.153  0.00  0.00    +0.000 A 
ATOM      3  N   UNL     1       7.435   6.210  15.827  0.00  0.00    +0.000 NA
ATOM      4  N   UNL     1       6.637   5.128  15.561  0.00  0.00    +0.000 N 
ATOM      5  C   UNL     1       6.052   4.647  16.728  0.00  0.00    +0.000 A 
ATOM      6  N   UNL     1       5.193   3.600  16.857  0.00  0.00    +0.000 NA
ATOM      7  C   UNL     1       4.836   3.353  18.081  0.00  0.00    +0.000 A 
ATOM      8  N   UNL     1       5.294   4.060  19.183  0.00  0.00    +0.000 N 
ATOM      9  C   UNL     1       6.120   5.160  19.097  0.00  0.00    +0.000 A 
ATOM     10  O   UNL     1       6.446   5.826  20.072  0.00  0.00    +0.000 OA
ATOM     11  C   UNL     1       6.529   5.436  17.750  0.00  0.00    +0.000 A 
ATOM     12  H   UNL     1       4.900   3.853  20.091  0.00  0.00    +0.000 HD
ENDROOT
BRANCH   4  13
ATOM     13  C   UNL     1       6.515   4.632  14.225  0.00  0.00    +0.000 A 
ATOM     14  C   UNL     1       7.527   4.917  13.294  0.00  0.00    +0.000 A 
ATOM     15  C   UNL     1       7.452   4.405  11.994  0.00  0.00    +0.000 A 
ATOM     16  C   UNL     1       6.369   3.619  11.611  0.00  0.00    +0.000 A 
ATOM     17  C   UNL     1       5.353   3.347  12.521  0.00  0.00    +0.000 A 
ATOM     18  C   UNL     1       5.425   3.849  13.823  0.00  0.00    +0.000 A 
ENDBRANCH   4  13
BRANCH   7  19
ATOM     19  C   UNL     1       3.839   2.248  18.401  0.00  0.00    +0.000 C 
BRANCH  19  20
ATOM     20  N   UNL     1       2.885   2.762  19.388  0.00  0.00    +0.000 NA
ATOM     21  C   UNL     1       1.488   2.356  19.107  0.00  0.00    +0.000 C 
ATOM     22  C   UNL     1       0.557   3.087  20.089  0.00  0.00    +0.000 C 
ATOM     23  O   UNL     1       0.889   2.780  21.452  0.00  0.00    +0.000 OA
ATOM     24  C   UNL     1       2.266   3.078  21.725  0.00  0.00    +0.000 C 
ATOM     25  C   UNL     1       3.198   2.324  20.762  0.00  0.00    +0.000 C 
ENDBRANCH  19  20
ENDBRANCH   7  19
TORSDOF 3
ENDMDL
MODEL 3
REMARK VINA RESULT:      -8.1      0.308      1.011
REMARK  Name = 
REMARK  4 active torsions:
REMARK  status: ('A' for Active; 'I' for Inactive)
REMARK    1  A    between atoms: C_1  and  C_2
REMARK    2  A    between atoms: N_4  and  C_5
REMARK    3  A    between atoms: C_13  and  C_14
REMARK    4  A    between atoms: C_14  and  N_15
REMARK                            x       y       z     vdW  Elec       q    Type
REMARK                         _______ _______ _______ _____ _____    ______ ____
ROOT
ATOM      1  C   UNL     1       1.449   2.743  21.315  0.00  0.00    +0.000 C 
ATOM      2  C   UNL     1       2.112   3.888  20.644  0.00  0.00    +0.000 A 
ATOM      3  N   UNL     1       1.488   5.069  20.523  0.00  0.00    +0.000 NA
ATOM      4  N   UNL     1       2.364   5.877  19.846  0.00  0.00    +0.000 N 
ATOM      5  C   UNL     1       3.533   5.189  19.540  0.00  0.00    +0.000 A 
ATOM      6  N   UNL     1       4.619   5.656  18.865  0.00  0.00    +0.000 NA
ATOM      7  C   UNL     1       5.587   4.798  18.759  0.00  0.00    +0.000 A 
ATOM      8  N   UNL     1       5.558   3.520  19.298  0.00  0.00    +0.000 N 
ATOM      9  C   UNL     1       4.462   2.986  19.941  0.00  0.00    +0.000 A 
ATOM     10  O   UNL     1       4.421   1.827  20.334  0.00  0.00    +0.000 OA
ATOM     11  C   UNL     1       3.389   3.929  20.072  0.00  0.00    +0.000 A 
ATOM     12  H   UNL     1       6.323   2.890  19.097  0.00  0.00    +0.000 HD
ENDROOT
BRANCH   4  13
ATOM     13  C   UNL     1       2.021   7.238  19.566  0.00  0.00    +0.000 A 
ATOM     14  C   UNL     1       2.221   7.741  18.270  0.00  0.00    +0.000 A 
ATOM     15  C   UNL     1       1.852   9.055  17.961  0.00  0.00    +0.000 A 
ATOM     16  C   UNL     1       1.296   9.876  18.938  0.00  0.00    +0.000 A 
ATOM     17  C   UNL     1       1.112   9.392  20.229  0.00  0.00    +0.000 A 
ATOM     18  C   UNL     1       1.472   8.078  20.543  0.00  0.00    +0.000 A 
ENDBRANCH   4  13
BRANCH   7  19
ATOM     19  C   UNL     1       6.857   5.137  17.990  0.00  0.00    +0.000 C 
BRANCH  19  20
ATOM     20  N   UNL     1       6.729   4.599  16.632  0.00  0.00    +0.000 NA
ATOM     21  C   UNL     1       5.344   4.184  16.304  0.00  0.00    +0.000 C 
ATOM     22  C   UNL     1       5.355   3.477  14.938  0.00  0.00    +0.000 C 
ATOM     23  O   UNL     1       5.864   4.338  13.907  0.00  0.00    +0.000 OA
ATOM     24  C   UNL     1       7.169   4.829  14.246  0.00  0.00    +0.000 C 
ATOM     25  C   UNL     1       7.153   5.561  15.597  0.00  0.00    +0.000 C 
ENDBRANCH  19  20
ENDBRANCH   7  19
TORSDOF 3
ENDMDL
MODEL 4
REMARK VINA RESULT:      -7.9      0.328      1.417
REMARK  Name = 
REMARK  4 active torsions:
REMARK  status: ('A' for Active; 'I' for Inactive)
REMARK    1  A    between atoms: C_1  and  C_2
REMARK    2  A    between atoms: N_4  and  C_5
REMARK    3  A    between atoms: C_13  and  C_14
REMARK    4  A    between atoms: C_14  and  N_15
REMARK                            x       y       z     vdW  Elec       q    Type
REMARK                         _______ _______ _______ _____ _____    ______ ____
ROOT
ATOM      1  C   UNL     1       1.798   2.835  21.478  0.00  0.00    +0.000 C 
ATOM      2  C   UNL     1       2.361   3.970  20.707  0.00  0.00    +0.000 A 
ATOM      3  N   UNL     1       1.688   5.124  20.594  0.00  0.00    +0.000 NA
ATOM      4  N   UNL     1       2.475   5.931  19.813  0.00  0.00    +0.000 N 
ATOM      5  C   UNL     1       3.639   5.268  19.436  0.00  0.00    +0.000 A 
ATOM      6  N   UNL     1       4.647   5.740  18.653  0.00  0.00    +0.000 NA
ATOM      7  C   UNL     1       5.632   4.910  18.500  0.00  0.00    +0.000 A 
ATOM      8  N   UNL     1       5.694   3.656  19.089  0.00  0.00    +0.000 N 
ATOM      9  C   UNL     1       4.675   3.115  19.844  0.00  0.00    +0.000 A 
ATOM     10  O   UNL     1       4.708   1.973  20.285  0.00  0.00    +0.000 OA
ATOM     11  C   UNL     1       3.584   4.028  20.028  0.00  0.00    +0.000 A 
ATOM     12  H   UNL     1       6.461   3.042  18.849  0.00  0.00    +0.000 HD
ENDROOT
BRANCH   4  13
ATOM     13  C   UNL     1       2.063   7.267  19.509  0.00  0.00    +0.000 A 
ATOM     14  C   UNL     1       1.470   8.045  20.516  0.00  0.00    +0.000 A 
ATOM     15  C   UNL     1       1.100   9.370  20.256  0.00  0.00    +0.000 A 
ATOM     16  C   UNL     1       1.305   9.920  18.994  0.00  0.00    +0.000 A 
ATOM     17  C   UNL     1       1.874   9.150  17.985  0.00  0.00    +0.000 A 
ATOM     18  C   UNL     1       2.253   7.829  18.241  0.00  0.00    +0.000 A 
ENDBRANCH   4  13
BRANCH   7  19
ATOM     19  C   UNL     1       6.820   5.256  17.612  0.00  0.00    +0.000 C 
BRANCH  19  20
ATOM     20  N   UNL     1       6.625   4.611  16.310  0.00  0.00    +0.000 NA
ATOM     21  C   UNL     1       5.197   4.485  15.937  0.00  0.00    +0.000 C 
ATOM     22  C   UNL     1       5.097   3.644  14.654  0.00  0.00    +0.000 C 
ATOM     23  O   UNL     1       5.831   4.245  13.575  0.00  0.00    +0.000 OA
ATOM     24  C   UNL     1       7.201   4.464  13.946  0.00  0.00    +0.000 C 
ATOM     25  C   UNL     1       7.301   5.329  15.212  0.00  0.00    +0.000 C 
ENDBRANCH  19  20
ENDBRANCH   7  19
TORSDOF 3
ENDMDL
MODEL 5
REMARK VINA RESULT:      -7.8      3.196      6.815
REMARK  Name = 
REMARK  4 active torsions:
REMARK  status: ('A' for Active; 'I' for Inactive)
REMARK    1  A    between atoms: C_1  and  C_2
REMARK    2  A    between atoms: N_4  and  C_5
REMARK    3  A    between atoms: C_13  and  C_14
REMARK    4  A    between atoms: C_14  and  N_15
REMARK                            x       y       z     vdW  Elec       q    Type
REMARK                         _______ _______ _______ _____ _____    ______ ____
ROOT
ATOM      1  C   UNL     1       7.928   7.290  17.966  0.00  0.00    +0.000 C 
ATOM      2  C   UNL     1       7.239   6.209  17.220  0.00  0.00    +0.000 A 
ATOM      3  N   UNL     1       7.382   6.091  15.892  0.00  0.00    +0.000 NA
ATOM      4  N   UNL     1       6.606   5.019  15.534  0.00  0.00    +0.000 N 
ATOM      5  C   UNL     1       5.974   4.475  16.648  0.00  0.00    +0.000 A 
ATOM      6  N   UNL     1       5.119   3.417  16.683  0.00  0.00    +0.000 NA
ATOM      7  C   UNL     1       4.711   3.104  17.875  0.00  0.00    +0.000 A 
ATOM      8  N   UNL     1       5.114   3.755  19.032  0.00  0.00    +0.000 N 
ATOM      9  C   UNL     1       5.934   4.863  19.040  0.00  0.00    +0.000 A 
ATOM     10  O   UNL     1       6.210   5.479  20.063  0.00  0.00    +0.000 OA
ATOM     11  C   UNL     1       6.399   5.212  17.729  0.00  0.00    +0.000 A 
ATOM     12  H   UNL     1       4.682   3.498  19.910  0.00  0.00    +0.000 HD
ENDROOT
BRANCH   4  13
ATOM     13  C   UNL     1       6.547   4.593  14.170  0.00  0.00    +0.000 A 
ATOM     14  C   UNL     1       7.532   5.037  13.272  0.00  0.00    +0.000 A 
ATOM     15  C   UNL     1       7.521   4.597  11.943  0.00  0.00    +0.000 A 
ATOM     16  C   UNL     1       6.530   3.728  11.499  0.00  0.00    +0.000 A 
ATOM     17  C   UNL     1       5.540   3.298  12.377  0.00  0.00    +0.000 A 
ATOM     18  C   UNL     1       5.548   3.727  13.707  0.00  0.00    +0.000 A 
ENDBRANCH   4  13
BRANCH   7  19
ATOM     19  C   UNL     1       3.710   1.978  18.092  0.00  0.00    +0.000 C 
BRANCH  19  20
ATOM     20  N   UNL     1       2.749   2.408  19.113  0.00  0.00    +0.000 NA
ATOM     21  C   UNL     1       3.353   2.527  20.461  0.00  0.00    +0.000 C 
ATOM     22  C   UNL     1       2.234   2.807  21.477  0.00  0.00    +0.000 C 
ATOM     23  O   UNL     1       1.521   4.011  21.153  0.00  0.00    +0.000 OA
ATOM     24  C   UNL     1       1.004   3.958  19.815  0.00  0.00    +0.000 C 
ATOM     25  C   UNL     1       2.127   3.708  18.796  0.00  0.00    +0.000 C 
ENDBRANCH  19  20
ENDBRANCH   7  19
TORSDOF 3
ENDMDL
MODEL 6
REMARK VINA RESULT:      -7.7      1.759      2.342
REMARK  Name = 
REMARK  4 active torsions:
REMARK  status: ('A' for Active; 'I' for Inactive)
REMARK    1  A    between atoms: C_1  and  C_2
REMARK    2  A    between atoms: N_4  and  C_5
REMARK    3  A    between atoms: C_13  and  C_14
REMARK    4  A    between atoms: C_14  and  N_15
REMARK                            x       y       z     vdW  Elec       q    Type
REMARK                         _______ _______ _______ _____ _____    ______ ____
ROOT
ATOM      1  C   UNL     1       1.785   2.905  21.766  0.00  0.00    +0.000 C 
ATOM      2  C   UNL     1       2.290   3.945  20.837  0.00  0.00    +0.000 A 
ATOM      3  N   UNL     1       1.701   5.149  20.768  0.00  0.00    +0.000 NA
ATOM      4  N   UNL     1       2.398   5.841  19.811  0.00  0.00    +0.000 N 
ATOM      5  C   UNL     1       3.419   5.059  19.281  0.00  0.00    +0.000 A 
ATOM      6  N   UNL     1       4.305   5.399  18.307  0.00  0.00    +0.000 NA
ATOM      7  C   UNL     1       5.178   4.477  18.038  0.00  0.00    +0.000 A 
ATOM      8  N   UNL     1       5.244   3.253  18.688  0.00  0.00    +0.000 N 
ATOM      9  C   UNL     1       4.336   2.845  19.642  0.00  0.00    +0.000 A 
ATOM     10  O   UNL     1       4.357   1.727  20.144  0.00  0.00    +0.000 OA
ATOM     11  C   UNL     1       3.373   3.859  19.953  0.00  0.00    +0.000 A 
ATOM     12  H   UNL     1       5.905   2.562  18.359  0.00  0.00    +0.000 HD
ENDROOT
BRANCH   4  13
ATOM     13  C   UNL     1       2.045   7.192  19.498  0.00  0.00    +0.000 A 
ATOM     14  C   UNL     1       2.244   7.665  18.191  0.00  0.00    +0.000 A 
ATOM     15  C   UNL     1       1.865   8.968  17.849  0.00  0.00    +0.000 A 
ATOM     16  C   UNL     1       1.300   9.808  18.805  0.00  0.00    +0.000 A 
ATOM     17  C   UNL     1       1.117   9.354  20.107  0.00  0.00    +0.000 A 
ATOM     18  C   UNL     1       1.487   8.051  20.453  0.00  0.00    +0.000 A 
ENDBRANCH   4  13
BRANCH   7  19
ATOM     19  C   UNL     1       6.212   4.671  16.937  0.00  0.00    +0.000 C 
BRANCH  19  20
ATOM     20  N   UNL     1       7.150   5.713  17.366  0.00  0.00    +0.000 NA
ATOM     21  C   UNL     1       6.697   7.079  17.011  0.00  0.00    +0.000 C 
ATOM     22  C   UNL     1       7.824   8.071  17.343  0.00  0.00    +0.000 C 
ATOM     23  O   UNL     1       8.174   8.020  18.735  0.00  0.00    +0.000 OA
ATOM     24  C   UNL     1       8.528   6.685  19.126  0.00  0.00    +0.000 C 
ATOM     25  C   UNL     1       7.390   5.698  18.822  0.00  0.00    +0.000 C 
ENDBRANCH  19  20
ENDBRANCH   7  19
TORSDOF 3
ENDMDL
MODEL 7
REMARK VINA RESULT:      -7.6      3.169      6.840
REMARK  Name = 
REMARK  4 active torsions:
REMARK  status: ('A' for Active; 'I' for Inactive)
REMARK    1  A    between atoms: C_1  and  C_2
REMARK    2  A    between atoms: N_4  and  C_5
REMARK    3  A    between atoms: C_13  and  C_14
REMARK    4  A    between atoms: C_14  and  N_15
REMARK                            x       y       z     vdW  Elec       q    Type
REMARK                         _______ _______ _______ _____ _____    ______ ____
ROOT
ATOM      1  C   UNL     1       7.837   7.274  17.681  0.00  0.00    +0.000 C 
ATOM      2  C   UNL     1       7.126   6.148  17.030  0.00  0.00    +0.000 A 
ATOM      3  N   UNL     1       7.188   5.972  15.702  0.00  0.00    +0.000 NA
ATOM      4  N   UNL     1       6.413   4.871  15.443  0.00  0.00    +0.000 N 
ATOM      5  C   UNL     1       5.863   4.367  16.617  0.00  0.00    +0.000 A 
ATOM      6  N   UNL     1       5.034   3.297  16.754  0.00  0.00    +0.000 NA
ATOM      7  C   UNL     1       4.708   3.033  17.982  0.00  0.00    +0.000 A 
ATOM      8  N   UNL     1       5.168   3.743  19.081  0.00  0.00    +0.000 N 
ATOM      9  C   UNL     1       5.964   4.865  18.987  0.00  0.00    +0.000 A 
ATOM     10  O   UNL     1       6.290   5.532  19.962  0.00  0.00    +0.000 OA
ATOM     11  C   UNL     1       6.339   5.161  17.636  0.00  0.00    +0.000 A 
ATOM     12  H   UNL     1       4.797   3.520  19.995  0.00  0.00    +0.000 HD
ENDROOT
BRANCH   4  13
ATOM     13  C   UNL     1       6.278   4.382  14.105  0.00  0.00    +0.000 A 
ATOM     14  C   UNL     1       5.049   3.841  13.695  0.00  0.00    +0.000 A 
ATOM     15  C   UNL     1       4.879   3.397  12.379  0.00  0.00    +0.000 A 
ATOM     16  C   UNL     1       5.930   3.478  11.470  0.00  0.00    +0.000 A 
ATOM     17  C   UNL     1       7.158   3.996  11.872  0.00  0.00    +0.000 A 
ATOM     18  C   UNL     1       7.331   4.447  13.184  0.00  0.00    +0.000 A 
ENDBRANCH   4  13
BRANCH   7  19
ATOM     19  C   UNL     1       3.745   1.900  18.312  0.00  0.00    +0.000 C 
BRANCH  19  20
ATOM     20  N   UNL     1       2.734   2.412  19.243  0.00  0.00    +0.000 NA
ATOM     21  C   UNL     1       3.240   2.540  20.630  0.00  0.00    +0.000 C 
ATOM     22  C   UNL     1       2.064   2.911  21.549  0.00  0.00    +0.000 C 
ATOM     23  O   UNL     1       1.447   4.142  21.139  0.00  0.00    +0.000 OA
ATOM     24  C   UNL     1       1.032   4.075  19.766  0.00  0.00    +0.000 C 
ATOM     25  C   UNL     1       2.213   3.734  18.845  0.00  0.00    +0.000 C 
ENDBRANCH  19  20
ENDBRANCH   7  19
TORSDOF 3
ENDMDL
MODEL 8
REMARK VINA RESULT:      -7.6      2.656      5.963
REMARK  Name = 
REMARK  4 active torsions:
REMARK  status: ('A' for Active; 'I' for Inactive)
REMARK    1  A    between atoms: C_1  and  C_2
REMARK    2  A    between atoms: N_4  and  C_5
REMARK    3  A    between atoms: C_13  and  C_14
REMARK    4  A    between atoms: C_14  and  N_15
REMARK                            x       y       z     vdW  Elec       q    Type
REMARK                         _______ _______ _______ _____ _____    ______ ____
ROOT
ATOM      1  C   UNL     1       3.164   1.519  18.426  0.00  0.00    +0.000 C 
ATOM      2  C   UNL     1       3.499   2.941  18.683  0.00  0.00    +0.000 A 
ATOM      3  N   UNL     1       4.671   3.454  18.280  0.00  0.00    +0.000 NA
ATOM      4  N   UNL     1       4.658   4.762  18.692  0.00  0.00    +0.000 N 
ATOM      5  C   UNL     1       3.474   5.057  19.359  0.00  0.00    +0.000 A 
ATOM      6  N   UNL     1       3.109   6.241  19.920  0.00  0.00    +0.000 NA
ATOM      7  C   UNL     1       1.922   6.237  20.445  0.00  0.00    +0.000 A 
ATOM      8  N   UNL     1       1.067   5.145  20.429  0.00  0.00    +0.000 N 
ATOM      9  C   UNL     1       1.413   3.911  19.921  0.00  0.00    +0.000 A 
ATOM     10  O   UNL     1       0.679   2.933  19.993  0.00  0.00    +0.000 OA
ATOM     11  C   UNL     1       2.719   3.907  19.330  0.00  0.00    +0.000 A 
ATOM     12  H   UNL     1       0.193   5.204  20.934  0.00  0.00    +0.000 HD
ENDROOT
BRANCH   4  13
ATOM     13  C   UNL     1       5.763   5.622  18.399  0.00  0.00    +0.000 A 
ATOM     14  C   UNL     1       5.646   6.554  17.355  0.00  0.00    +0.000 A 
ATOM     15  C   UNL     1       6.696   7.437  17.079  0.00  0.00    +0.000 A 
ATOM     16  C   UNL     1       7.868   7.390  17.829  0.00  0.00    +0.000 A 
ATOM     17  C   UNL     1       7.999   6.459  18.853  0.00  0.00    +0.000 A 
ATOM     18  C   UNL     1       6.951   5.578  19.139  0.00  0.00    +0.000 A 
ENDBRANCH   4  13
BRANCH   7  19
ATOM     19  C   UNL     1       1.375   7.465  21.161  0.00  0.00    +0.000 C 
BRANCH  19  20
ATOM     20  N   UNL     1       0.820   8.375  20.154  0.00  0.00    +0.000 NA
ATOM     21  C   UNL     1       0.283   9.626  20.740  0.00  0.00    +0.000 C 
ATOM     22  C   UNL     1      -0.427  10.421  19.633  0.00  0.00    +0.000 C 
ATOM     23  O   UNL     1       0.469  10.733  18.555  0.00  0.00    +0.000 OA
ATOM     24  C   UNL     1       1.075   9.542  18.030  0.00  0.00    +0.000 C 
ATOM     25  C   UNL     1       1.811   8.763  19.131  0.00  0.00    +0.000 C 
ENDBRANCH  19  20
ENDBRANCH   7  19
TORSDOF 3
ENDMDL
MODEL 9
REMARK VINA RESULT:      -7.5      2.597      5.750
REMARK  Name = 
REMARK  4 active torsions:
REMARK  status: ('A' for Active; 'I' for Inactive)
REMARK    1  A    between atoms: C_1  and  C_2
REMARK    2  A    between atoms: N_4  and  C_5
REMARK    3  A    between atoms: C_13  and  C_14
REMARK    4  A    between atoms: C_14  and  N_15
REMARK                            x       y       z     vdW  Elec       q    Type
REMARK                         _______ _______ _______ _____ _____    ______ ____
ROOT
ATOM      1  C   UNL     1       3.268   1.443  18.568  0.00  0.00    +0.000 C 
ATOM      2  C   UNL     1       3.573   2.879  18.781  0.00  0.00    +0.000 A 
ATOM      3  N   UNL     1       4.745   3.398  18.388  0.00  0.00    +0.000 NA
ATOM      4  N   UNL     1       4.700   4.719  18.752  0.00  0.00    +0.000 N 
ATOM      5  C   UNL     1       3.495   5.016  19.380  0.00  0.00    +0.000 A 
ATOM      6  N   UNL     1       3.096   6.214  19.889  0.00  0.00    +0.000 NA
ATOM      7  C   UNL     1       1.897   6.207  20.386  0.00  0.00    +0.000 A 
ATOM      8  N   UNL     1       1.062   5.100  20.389  0.00  0.00    +0.000 N 
ATOM      9  C   UNL     1       1.441   3.855  19.935  0.00  0.00    +0.000 A 
ATOM     10  O   UNL     1       0.722   2.867  20.024  0.00  0.00    +0.000 OA
ATOM     11  C   UNL     1       2.761   3.853  19.374  0.00  0.00    +0.000 A 
ATOM     12  H   UNL     1       0.175   5.161  20.871  0.00  0.00    +0.000 HD
ENDROOT
BRANCH   4  13
ATOM     13  C   UNL     1       5.797   5.588  18.454  0.00  0.00    +0.000 A 
ATOM     14  C   UNL     1       5.672   6.512  17.404  0.00  0.00    +0.000 A 
ATOM     15  C   UNL     1       6.714   7.403  17.123  0.00  0.00    +0.000 A 
ATOM     16  C   UNL     1       7.885   7.373  17.874  0.00  0.00    +0.000 A 
ATOM     17  C   UNL     1       8.024   6.448  18.905  0.00  0.00    +0.000 A 
ATOM     18  C   UNL     1       6.985   5.560  19.195  0.00  0.00    +0.000 A 
ENDBRANCH   4  13
BRANCH   7  19
ATOM     19  C   UNL     1       1.312   7.449  21.044  0.00  0.00    +0.000 C 
BRANCH  19  20
ATOM     20  N   UNL     1       1.572   8.598  20.170  0.00  0.00    +0.000 NA
ATOM     21  C   UNL     1       1.519   8.251  18.730  0.00  0.00    +0.000 C 
ATOM     22  C   UNL     1       1.977   9.472  17.915  0.00  0.00    +0.000 C 
ATOM     23  O   UNL     1       1.146  10.615  18.172  0.00  0.00    +0.000 OA
ATOM     24  C   UNL     1       1.107  10.915  19.576  0.00  0.00    +0.000 C 
ATOM     25  C   UNL     1       0.621   9.705  20.388  0.00  0.00    +0.000 C 
ENDBRANCH  19  20
ENDBRANCH   7  19
TORSDOF 3
ENDMDL
