MODEL 1
REMARK VINA RESULT:      -6.8      0.000      0.000
REMARK  Name = 
REMARK  3 active torsions:
REMARK  status: ('A' for Active; 'I' for Inactive)
REMARK    1  A    between atoms: O_1  and  C_2
REMARK    2  A    between atoms: C_6  and  C_7
REMARK    3  A    between atoms: C_7  and  N_8
REMARK                            x       y       z     vdW  Elec       q    Type
REMARK                         _______ _______ _______ _____ _____    ______ ____
ROOT
ATOM      1  C   UNL     1       7.449   5.787  19.436  0.00  0.00    +0.000 A 
ATOM      2  C   UNL     1       8.049   6.715  18.591  0.00  0.00    +0.000 A 
ATOM      3  C   UNL     1       7.356   7.161  17.466  0.00  0.00    +0.000 A 
ATOM      4  C   UNL     1       6.075   6.676  17.194  0.00  0.00    +0.000 A 
ATOM      5  C   UNL     1       5.470   5.740  18.044  0.00  0.00    +0.000 A 
ATOM      6  C   UNL     1       6.174   5.300  19.175  0.00  0.00    +0.000 A 
ENDROOT
BRANCH   1   7
ATOM      7  O   UNL     1       8.095   5.327  20.546  0.00  0.00    +0.000 OA
ATOM      8  H   UNL     1       7.992   5.978  21.258  0.00  0.00    +0.000 HD
ENDBRANCH   1   7
BRANCH   5   9
ATOM      9  C   UNL     1       4.067   5.248  17.772  0.00  0.00    +0.000 C 
BRANCH   9  10
ATOM     10  N   UNL     1       3.412   4.592  18.926  0.00  0.00    +0.000 NA
ATOM     11  C   UNL     1       2.470   5.519  19.579  0.00  0.00    +0.000 C 
ATOM     12  C   UNL     1       1.628   4.851  20.669  0.00  0.00    +0.000 C 
ATOM     13  C   UNL     1       0.896   3.634  20.125  0.00  0.00    +0.000 C 
ATOM     14  C   UNL     1       1.907   2.671  19.524  0.00  0.00    +0.000 C 
ATOM     15  C   UNL     1       2.749   3.363  18.452  0.00  0.00    +0.000 C 
ENDBRANCH   9  10
ENDBRANCH   5   9
TORSDOF 3
ENDMDL
MODEL 2
REMARK VINA RESULT:      -6.5      1.728      1.985
REMARK  Name = 
REMARK  3 active torsions:
REMARK  status: ('A' for Active; 'I' for Inactive)
REMARK    1  A    between atoms: O_1  and  C_2
REMARK    2  A    between atoms: C_6  and  C_7
REMARK    3  A    between atoms: C_7  and  N_8
REMARK                            x       y       z     vdW  Elec       q    Type
REMARK                         _______ _______ _______ _____ _____    ______ ____
ROOT
ATOM      1  C   UNL     1       7.212   4.519  16.998  0.00  0.00    +0.000 A 
ATOM      2  C   UNL     1       7.267   4.647  15.615  0.00  0.00    +0.000 A 
ATOM      3  C   UNL     1       6.159   5.149  14.932  0.00  0.00    +0.000 A 
ATOM      4  C   UNL     1       5.009   5.515  15.635  0.00  0.00    +0.000 A 
ATOM      5  C   UNL     1       4.952   5.385  17.029  0.00  0.00    +0.000 A 
ATOM      6  C   UNL     1       6.073   4.882  17.707  0.00  0.00    +0.000 A 
ENDROOT
BRANCH   1   7
ATOM      7  O   UNL     1       8.276   4.033  17.702  0.00  0.00    +0.000 OA
ATOM      8  H   UNL     1       8.337   4.513  18.542  0.00  0.00    +0.000 HD
ENDBRANCH   1   7
BRANCH   5   9
ATOM      9  C   UNL     1       3.723   5.821  17.792  0.00  0.00    +0.000 C 
BRANCH   9  10
ATOM     10  N   UNL     1       3.179   4.799  18.715  0.00  0.00    +0.000 NA
ATOM     11  C   UNL     1       2.781   5.416  19.992  0.00  0.00    +0.000 C 
ATOM     12  C   UNL     1       2.047   4.449  20.924  0.00  0.00    +0.000 C 
ATOM     13  C   UNL     1       0.846   3.827  20.229  0.00  0.00    +0.000 C 
ATOM     14  C   UNL     1       1.307   3.139  18.955  0.00  0.00    +0.000 C 
ATOM     15  C   UNL     1       2.053   4.118  18.047  0.00  0.00    +0.000 C 
ENDBRANCH   9  10
ENDBRANCH   5   9
TORSDOF 3
ENDMDL
MODEL 3
REMARK VINA RESULT:      -6.5      1.360      1.384
REMARK  Name = 
REMARK  3 active torsions:
REMARK  status: ('A' for Active; 'I' for Inactive)
REMARK    1  A    between atoms: O_1  and  C_2
REMARK    2  A    between atoms: C_6  and  C_7
REMARK    3  A    between atoms: C_7  and  N_8
REMARK                            x       y       z     vdW  Elec       q    Type
REMARK                         _______ _______ _______ _____ _____    ______ ____
ROOT
ATOM      1  C   UNL     1       7.239   4.930  17.559  0.00  0.00    +0.000 A 
ATOM      2  C   UNL     1       7.479   6.296  17.459  0.00  0.00    +0.000 A 
ATOM      3  C   UNL     1       6.402   7.169  17.307  0.00  0.00    +0.000 A 
ATOM      4  C   UNL     1       5.098   6.671  17.254  0.00  0.00    +0.000 A 
ATOM      5  C   UNL     1       4.855   5.294  17.354  0.00  0.00    +0.000 A 
ATOM      6  C   UNL     1       5.946   4.425  17.510  0.00  0.00    +0.000 A 
ENDROOT
BRANCH   1   7
ATOM      7  O   UNL     1       8.267   4.045  17.708  0.00  0.00    +0.000 OA
ATOM      8  H   UNL     1       8.055   3.444  18.440  0.00  0.00    +0.000 HD
ENDBRANCH   1   7
BRANCH   5   9
ATOM      9  C   UNL     1       3.442   4.760  17.340  0.00  0.00    +0.000 C 
BRANCH   9  10
ATOM     10  N   UNL     1       3.049   4.030  18.567  0.00  0.00    +0.000 NA
ATOM     11  C   UNL     1       2.901   4.964  19.698  0.00  0.00    +0.000 C 
ATOM     12  C   UNL     1       2.325   4.303  20.952  0.00  0.00    +0.000 C 
ATOM     13  C   UNL     1       1.004   3.613  20.648  0.00  0.00    +0.000 C 
ATOM     14  C   UNL     1       1.213   2.608  19.527  0.00  0.00    +0.000 C 
ATOM     15  C   UNL     1       1.806   3.286  18.291  0.00  0.00    +0.000 C 
ENDBRANCH   9  10
ENDBRANCH   5   9
TORSDOF 3
ENDMDL
MODEL 4
REMARK VINA RESULT:      -6.4      1.609      2.236
REMARK  Name = 
REMARK  3 active torsions:
REMARK  status: ('A' for Active; 'I' for Inactive)
REMARK    1  A    between atoms: O_1  and  C_2
REMARK    2  A    between atoms: C_6  and  C_7
REMARK    3  A    between atoms: C_7  and  N_8
REMARK                            x       y       z     vdW  Elec       q    Type
REMARK                         _______ _______ _______ _____ _____    ______ ____
ROOT
ATOM      1  C   UNL     1       7.230   4.546  17.298  0.00  0.00    +0.000 A 
ATOM      2  C   UNL     1       6.942   4.833  15.968  0.00  0.00    +0.000 A 
ATOM      3  C   UNL     1       5.701   5.378  15.641  0.00  0.00    +0.000 A 
ATOM      4  C   UNL     1       4.759   5.628  16.643  0.00  0.00    +0.000 A 
ATOM      5  C   UNL     1       5.048   5.337  17.983  0.00  0.00    +0.000 A 
ATOM      6  C   UNL     1       6.301   4.792  18.302  0.00  0.00    +0.000 A 
ENDROOT
BRANCH   1   7
ATOM      7  O   UNL     1       8.434   4.012  17.657  0.00  0.00    +0.000 OA
ATOM      8  H   UNL     1       8.638   4.289  18.564  0.00  0.00    +0.000 HD
ENDBRANCH   1   7
BRANCH   5   9
ATOM      9  C   UNL     1       4.045   5.647  19.070  0.00  0.00    +0.000 C 
BRANCH   9  10
ATOM     10  N   UNL     1       2.890   4.723  19.122  0.00  0.00    +0.000 NA
ATOM     11  C   UNL     1       3.349   3.332  19.284  0.00  0.00    +0.000 C 
ATOM     12  C   UNL     1       2.204   2.345  19.523  0.00  0.00    +0.000 C 
ATOM     13  C   UNL     1       1.353   2.773  20.709  0.00  0.00    +0.000 C 
ATOM     14  C   UNL     1       0.840   4.184  20.471  0.00  0.00    +0.000 C 
ATOM     15  C   UNL     1       1.998   5.149  20.217  0.00  0.00    +0.000 C 
ENDBRANCH   9  10
ENDBRANCH   5   9
TORSDOF 3
ENDMDL
MODEL 5
REMARK VINA RESULT:      -6.3      1.988      2.368
REMARK  Name = 
REMARK  3 active torsions:
REMARK  status: ('A' for Active; 'I' for Inactive)
REMARK    1  A    between atoms: O_1  and  C_2
REMARK    2  A    between atoms: C_6  and  C_7
REMARK    3  A    between atoms: C_7  and  N_8
REMARK                            x       y       z     vdW  Elec       q    Type
REMARK                         _______ _______ _______ _____ _____    ______ ____
ROOT
ATOM      1  C   UNL     1       6.950   5.262  16.370  0.00  0.00    +0.000 A 
ATOM      2  C   UNL     1       7.483   6.000  17.421  0.00  0.00    +0.000 A 
ATOM      3  C   UNL     1       6.876   5.939  18.675  0.00  0.00    +0.000 A 
ATOM      4  C   UNL     1       5.743   5.145  18.867  0.00  0.00    +0.000 A 
ATOM      5  C   UNL     1       5.204   4.402  17.808  0.00  0.00    +0.000 A 
ATOM      6  C   UNL     1       5.824   4.468  16.551  0.00  0.00    +0.000 A 
ENDROOT
BRANCH   1   7
ATOM      7  O   UNL     1       7.516   5.296  15.129  0.00  0.00    +0.000 OA
ATOM      8  H   UNL     1       8.055   6.099  15.055  0.00  0.00    +0.000 HD
ENDBRANCH   1   7
BRANCH   5   9
ATOM      9  C   UNL     1       4.004   3.510  18.027  0.00  0.00    +0.000 C 
BRANCH   9  10
ATOM     10  N   UNL     1       3.275   3.761  19.292  0.00  0.00    +0.000 NA
ATOM     11  C   UNL     1       1.842   3.979  19.026  0.00  0.00    +0.000 C 
ATOM     12  C   UNL     1       1.001   4.068  20.302  0.00  0.00    +0.000 C 
ATOM     13  C   UNL     1       1.207   2.842  21.178  0.00  0.00    +0.000 C 
ATOM     14  C   UNL     1       2.687   2.692  21.488  0.00  0.00    +0.000 C 
ATOM     15  C   UNL     1       3.509   2.624  20.201  0.00  0.00    +0.000 C 
ENDBRANCH   9  10
ENDBRANCH   5   9
TORSDOF 3
ENDMDL
MODEL 6
REMARK VINA RESULT:      -6.3      1.799      2.575
REMARK  Name = 
REMARK  3 active torsions:
REMARK  status: ('A' for Active; 'I' for Inactive)
REMARK    1  A    between atoms: O_1  and  C_2
REMARK    2  A    between atoms: C_6  and  C_7
REMARK    3  A    between atoms: C_7  and  N_8
REMARK                            x       y       z     vdW  Elec       q    Type
REMARK                         _______ _______ _______ _____ _____    ______ ____
ROOT
ATOM      1  C   UNL     1       5.976   6.403  16.707  0.00  0.00    +0.000 A 
ATOM      2  C   UNL     1       7.167   6.876  17.246  0.00  0.00    +0.000 A 
ATOM      3  C   UNL     1       7.607   6.379  18.472  0.00  0.00    +0.000 A 
ATOM      4  C   UNL     1       6.853   5.418  19.150  0.00  0.00    +0.000 A 
ATOM      5  C   UNL     1       5.651   4.941  18.609  0.00  0.00    +0.000 A 
ATOM      6  C   UNL     1       5.219   5.445  17.372  0.00  0.00    +0.000 A 
ENDROOT
BRANCH   1   7
ATOM      7  O   UNL     1       5.513   6.864  15.509  0.00  0.00    +0.000 OA
ATOM      8  H   UNL     1       4.870   6.229  15.159  0.00  0.00    +0.000 HD
ENDBRANCH   1   7
BRANCH   5   9
ATOM      9  C   UNL     1       4.859   3.870  19.322  0.00  0.00    +0.000 C 
BRANCH   9  10
ATOM     10  N   UNL     1       3.393   3.963  19.133  0.00  0.00    +0.000 NA
ATOM     11  C   UNL     1       2.846   2.667  18.694  0.00  0.00    +0.000 C 
ATOM     12  C   UNL     1       1.316   2.644  18.651  0.00  0.00    +0.000 C 
ATOM     13  C   UNL     1       0.727   3.051  19.993  0.00  0.00    +0.000 C 
ATOM     14  C   UNL     1       1.259   4.422  20.377  0.00  0.00    +0.000 C 
ATOM     15  C   UNL     1       2.787   4.428  20.395  0.00  0.00    +0.000 C 
ENDBRANCH   9  10
ENDBRANCH   5   9
TORSDOF 3
ENDMDL
MODEL 7
REMARK VINA RESULT:      -6.2      1.873      2.325
REMARK  Name = 
REMARK  3 active torsions:
REMARK  status: ('A' for Active; 'I' for Inactive)
REMARK    1  A    between atoms: O_1  and  C_2
REMARK    2  A    between atoms: C_6  and  C_7
REMARK    3  A    between atoms: C_7  and  N_8
REMARK                            x       y       z     vdW  Elec       q    Type
REMARK                         _______ _______ _______ _____ _____    ______ ____
ROOT
ATOM      1  C   UNL     1       6.594   6.314  16.705  0.00  0.00    +0.000 A 
ATOM      2  C   UNL     1       6.928   5.235  15.893  0.00  0.00    +0.000 A 
ATOM      3  C   UNL     1       6.014   4.195  15.729  0.00  0.00    +0.000 A 
ATOM      4  C   UNL     1       4.777   4.241  16.378  0.00  0.00    +0.000 A 
ATOM      5  C   UNL     1       4.440   5.326  17.197  0.00  0.00    +0.000 A 
ATOM      6  C   UNL     1       5.366   6.369  17.353  0.00  0.00    +0.000 A 
ENDROOT
BRANCH   1   7
ATOM      7  O   UNL     1       7.462   7.350  16.890  0.00  0.00    +0.000 OA
ATOM      8  H   UNL     1       7.519   7.858  16.066  0.00  0.00    +0.000 HD
ENDBRANCH   1   7
BRANCH   5   9
ATOM      9  C   UNL     1       3.085   5.395  17.864  0.00  0.00    +0.000 C 
BRANCH   9  10
ATOM     10  N   UNL     1       2.763   4.229  18.719  0.00  0.00    +0.000 NA
ATOM     11  C   UNL     1       2.940   4.569  20.142  0.00  0.00    +0.000 C 
ATOM     12  C   UNL     1       2.454   3.467  21.087  0.00  0.00    +0.000 C 
ATOM     13  C   UNL     1       1.007   3.099  20.798  0.00  0.00    +0.000 C 
ATOM     14  C   UNL     1       0.879   2.687  19.340  0.00  0.00    +0.000 C 
ATOM     15  C   UNL     1       1.387   3.793  18.415  0.00  0.00    +0.000 C 
ENDBRANCH   9  10
ENDBRANCH   5   9
TORSDOF 3
ENDMDL
MODEL 8
REMARK VINA RESULT:      -6.2      2.746      5.893
REMARK  Name = 
REMARK  3 active torsions:
REMARK  status: ('A' for Active; 'I' for Inactive)
REMARK    1  A    between atoms: O_1  and  C_2
REMARK    2  A    between atoms: C_6  and  C_7
REMARK    3  A    between atoms: C_7  and  N_8
REMARK                            x       y       z     vdW  Elec       q    Type
REMARK                         _______ _______ _______ _____ _____    ______ ____
ROOT
ATOM      1  C   UNL     1       0.999   3.091  19.055  0.00  0.00    +0.000 A 
ATOM      2  C   UNL     1       1.018   3.300  20.429  0.00  0.00    +0.000 A 
ATOM      3  C   UNL     1       1.825   4.309  20.955  0.00  0.00    +0.000 A 
ATOM      4  C   UNL     1       2.606   5.096  20.105  0.00  0.00    +0.000 A 
ATOM      5  C   UNL     1       2.589   4.885  18.720  0.00  0.00    +0.000 A 
ATOM      6  C   UNL     1       1.771   3.869  18.201  0.00  0.00    +0.000 A 
ENDROOT
BRANCH   1   7
ATOM      7  O   UNL     1       0.222   2.114  18.503  0.00  0.00    +0.000 OA
ATOM      8  H   UNL     1      -0.324   1.721  19.201  0.00  0.00    +0.000 HD
ENDBRANCH   1   7
BRANCH   5   9
ATOM      9  C   UNL     1       3.402   5.764  17.798  0.00  0.00    +0.000 C 
BRANCH   9  10
ATOM     10  N   UNL     1       4.757   5.249  17.495  0.00  0.00    +0.000 NA
ATOM     11  C   UNL     1       4.724   4.376  16.308  0.00  0.00    +0.000 C 
ATOM     12  C   UNL     1       6.117   3.952  15.835  0.00  0.00    +0.000 C 
ATOM     13  C   UNL     1       7.001   5.165  15.587  0.00  0.00    +0.000 C 
ATOM     14  C   UNL     1       7.067   6.002  16.854  0.00  0.00    +0.000 C 
ATOM     15  C   UNL     1       5.665   6.398  17.319  0.00  0.00    +0.000 C 
ENDBRANCH   9  10
ENDBRANCH   5   9
TORSDOF 3
ENDMDL
MODEL 9
REMARK VINA RESULT:      -6.2      2.122      5.587
REMARK  Name = 
REMARK  3 active torsions:
REMARK  status: ('A' for Active; 'I' for Inactive)
REMARK    1  A    between atoms: O_1  and  C_2
REMARK    2  A    between atoms: C_6  and  C_7
REMARK    3  A    between atoms: C_7  and  N_8
REMARK                            x       y       z     vdW  Elec       q    Type
REMARK                         _______ _______ _______ _____ _____    ______ ____
ROOT
ATOM      1  C   UNL     1       2.347   2.947  20.772  0.00  0.00    +0.000 A 
ATOM      2  C   UNL     1       1.074   2.780  20.238  0.00  0.00    +0.000 A 
ATOM      3  C   UNL     1       0.884   2.928  18.865  0.00  0.00    +0.000 A 
ATOM      4  C   UNL     1       1.966   3.243  18.038  0.00  0.00    +0.000 A 
ATOM      5  C   UNL     1       3.249   3.412  18.574  0.00  0.00    +0.000 A 
ATOM      6  C   UNL     1       3.430   3.258  19.958  0.00  0.00    +0.000 A 
ENDROOT
BRANCH   1   7
ATOM      7  O   UNL     1       2.572   2.810  22.111  0.00  0.00    +0.000 OA
ATOM      8  H   UNL     1       1.995   3.426  22.587  0.00  0.00    +0.000 HD
ENDBRANCH   1   7
BRANCH   5   9
ATOM      9  C   UNL     1       4.425   3.710  17.674  0.00  0.00    +0.000 C 
BRANCH   9  10
ATOM     10  N   UNL     1       5.178   4.934  18.032  0.00  0.00    +0.000 NA
ATOM     11  C   UNL     1       6.585   4.609  18.322  0.00  0.00    +0.000 C 
ATOM     12  C   UNL     1       7.459   5.848  18.526  0.00  0.00    +0.000 C 
ATOM     13  C   UNL     1       7.359   6.788  17.335  0.00  0.00    +0.000 C 
ATOM     14  C   UNL     1       5.902   7.158  17.112  0.00  0.00    +0.000 C 
ATOM     15  C   UNL     1       5.044   5.905  16.930  0.00  0.00    +0.000 C 
ENDBRANCH   9  10
ENDBRANCH   5   9
TORSDOF 3
ENDMDL
