MODEL 1
REMARK VINA RESULT:      -9.1      0.000      0.000
REMARK  Name = 
REMARK  7 active torsions:
REMARK  status: ('A' for Active; 'I' for Inactive)
REMARK    1  A    between atoms: C_2  and  C_3
REMARK    2  A    between atoms: C_3  and  S_4
REMARK    3  A    between atoms: S_4  and  C_5
REMARK    4  A    between atoms: N_7  and  C_8
REMARK    5  A    between atoms: C_8  and  C_9
REMARK    6  A    between atoms: N_22  and  C_23
REMARK    7  A    between atoms: C_23  and  C_24
REMARK                            x       y       z     vdW  Elec       q    Type
REMARK                         _______ _______ _______ _____ _____    ______ ____
ROOT
ATOM      1  C   UNL     1       2.196   6.474  19.670  0.00  0.00    +0.000 A 
ATOM      2  C   UNL     1       3.098   6.734  18.667  0.00  0.00    +0.000 A 
ATOM      3  N   UNL     1       3.409   5.544  18.058  0.00  0.00    +0.000 N 
ATOM      4  C   UNL     1       2.673   4.518  18.623  0.00  0.00    +0.000 A 
ATOM      5  C   UNL     1       2.654   3.139  18.351  0.00  0.00    +0.000 A 
ATOM      6  C   UNL     1       1.806   2.323  19.101  0.00  0.00    +0.000 A 
ATOM      7  C   UNL     1       1.014   2.858  20.110  0.00  0.00    +0.000 A 
ATOM      8  C   UNL     1       1.053   4.228  20.393  0.00  0.00    +0.000 A 
ATOM      9  C   UNL     1       1.885   5.085  19.637  0.00  0.00    +0.000 A 
ENDROOT
BRANCH   1  10
ATOM     10  S   UNL     1       1.723   7.658  20.861  0.00  0.00    +0.000 S 
BRANCH  10  11
ATOM     11  C   UNL     1       1.437   9.171  19.892  0.00  0.00    +0.000 C 
BRANCH  11  13
ATOM     12  O   UNL     1      -0.672   9.372  21.064  0.00  0.00    +0.000 OA
ATOM     13  C   UNL     1       0.003   9.689  20.085  0.00  0.00    +0.000 C 
ATOM     14  N   UNL     1      -0.429  10.581  19.134  0.00  0.00    +0.000 N 
ATOM     15  H   UNL     1       0.196  10.781  18.361  0.00  0.00    +0.000 HD
BRANCH  14  16
ATOM     16  C   UNL     1      -1.717  11.230  19.144  0.00  0.00    +0.000 C 
BRANCH  16  17
ATOM     17  C   UNL     1      -2.405  10.985  17.825  0.00  0.00    +0.000 A 
ATOM     18  C   UNL     1      -3.639  11.591  17.532  0.00  0.00    +0.000 A 
ATOM     19  C   UNL     1      -4.321  11.267  16.357  0.00  0.00    +0.000 A 
ATOM     20  C   UNL     1      -3.772  10.341  15.478  0.00  0.00    +0.000 A 
ATOM     21  F   UNL     1      -4.442  10.010  14.366  0.00  0.00    +0.000 F 
ATOM     22  C   UNL     1      -2.546   9.743  15.741  0.00  0.00    +0.000 A 
ATOM     23  C   UNL     1      -1.863  10.063  16.915  0.00  0.00    +0.000 A 
ENDBRANCH  16  17
ENDBRANCH  14  16
ENDBRANCH  11  13
ENDBRANCH  10  11
ENDBRANCH   1  10
BRANCH   3  24
ATOM     24  C   UNL     1       4.447   5.395  17.039  0.00  0.00    +0.000 C 
BRANCH  24  25
ATOM     25  C   UNL     1       5.787   5.835  17.569  0.00  0.00    +0.000 A 
ATOM     26  C   UNL     1       6.410   5.129  18.611  0.00  0.00    +0.000 A 
ATOM     27  C   UNL     1       7.587   5.610  19.191  0.00  0.00    +0.000 A 
ATOM     28  C   UNL     1       8.155   6.797  18.733  0.00  0.00    +0.000 A 
ATOM     29  C   UNL     1       7.562   7.474  17.675  0.00  0.00    +0.000 A 
ATOM     30  F   UNL     1       8.109   8.613  17.228  0.00  0.00    +0.000 F 
ATOM     31  C   UNL     1       6.397   7.001  17.085  0.00  0.00    +0.000 A 
ENDBRANCH  24  25
ENDBRANCH   3  24
TORSDOF 7
ENDMDL
MODEL 2
REMARK VINA RESULT:      -8.8      3.862      8.523
REMARK  Name = 
REMARK  7 active torsions:
REMARK  status: ('A' for Active; 'I' for Inactive)
REMARK    1  A    between atoms: C_2  and  C_3
REMARK    2  A    between atoms: C_3  and  S_4
REMARK    3  A    between atoms: S_4  and  C_5
REMARK    4  A    between atoms: N_7  and  C_8
REMARK    5  A    between atoms: C_8  and  C_9
REMARK    6  A    between atoms: N_22  and  C_23
REMARK    7  A    between atoms: C_23  and  C_24
REMARK                            x       y       z     vdW  Elec       q    Type
REMARK                         _______ _______ _______ _____ _____    ______ ____
ROOT
ATOM      1  C   UNL     1       4.913   4.640  18.680  0.00  0.00    +0.000 A 
ATOM      2  C   UNL     1       4.517   5.659  19.513  0.00  0.00    +0.000 A 
ATOM      3  N   UNL     1       3.194   5.465  19.822  0.00  0.00    +0.000 N 
ATOM      4  C   UNL     1       2.740   4.294  19.239  0.00  0.00    +0.000 A 
ATOM      5  C   UNL     1       1.473   3.688  19.255  0.00  0.00    +0.000 A 
ATOM      6  C   UNL     1       1.296   2.494  18.554  0.00  0.00    +0.000 A 
ATOM      7  C   UNL     1       2.344   1.928  17.839  0.00  0.00    +0.000 A 
ATOM      8  C   UNL     1       3.598   2.547  17.806  0.00  0.00    +0.000 A 
ATOM      9  C   UNL     1       3.817   3.746  18.523  0.00  0.00    +0.000 A 
ENDROOT
BRANCH   1  10
ATOM     10  S   UNL     1       6.443   4.630  17.843  0.00  0.00    +0.000 S 
BRANCH  10  11
ATOM     11  C   UNL     1       7.391   5.967  18.636  0.00  0.00    +0.000 C 
BRANCH  11  13
ATOM     12  O   UNL     1       6.700   7.327  16.755  0.00  0.00    +0.000 OA
ATOM     13  C   UNL     1       7.400   7.232  17.763  0.00  0.00    +0.000 C 
ATOM     14  N   UNL     1       8.181   8.260  18.233  0.00  0.00    +0.000 N 
ATOM     15  H   UNL     1       8.725   8.088  19.071  0.00  0.00    +0.000 HD
BRANCH  14  16
ATOM     16  C   UNL     1       8.300   9.552  17.604  0.00  0.00    +0.000 C 
BRANCH  16  17
ATOM     17  C   UNL     1       9.181  10.436  18.452  0.00  0.00    +0.000 A 
ATOM     18  C   UNL     1       9.135  10.366  19.855  0.00  0.00    +0.000 A 
ATOM     19  C   UNL     1       9.870  11.266  20.628  0.00  0.00    +0.000 A 
ATOM     20  C   UNL     1      10.647  12.234  20.002  0.00  0.00    +0.000 A 
ATOM     21  F   UNL     1      11.327  13.117  20.747  0.00  0.00    +0.000 F 
ATOM     22  C   UNL     1      10.718  12.310  18.617  0.00  0.00    +0.000 A 
ATOM     23  C   UNL     1       9.984  11.412  17.841  0.00  0.00    +0.000 A 
ENDBRANCH  16  17
ENDBRANCH  14  16
ENDBRANCH  11  13
ENDBRANCH  10  11
ENDBRANCH   1  10
BRANCH   3  24
ATOM     24  C   UNL     1       2.380   6.423  20.567  0.00  0.00    +0.000 C 
BRANCH  24  25
ATOM     25  C   UNL     1       1.993   7.591  19.698  0.00  0.00    +0.000 A 
ATOM     26  C   UNL     1       2.395   7.645  18.355  0.00  0.00    +0.000 A 
ATOM     27  C   UNL     1       2.150   8.786  17.585  0.00  0.00    +0.000 A 
ATOM     28  C   UNL     1       1.497   9.880  18.148  0.00  0.00    +0.000 A 
ATOM     29  C   UNL     1       1.062   9.811  19.465  0.00  0.00    +0.000 A 
ATOM     30  F   UNL     1       0.428  10.859  20.009  0.00  0.00    +0.000 F 
ATOM     31  C   UNL     1       1.293   8.680  20.238  0.00  0.00    +0.000 A 
ENDBRANCH  24  25
ENDBRANCH   3  24
TORSDOF 7
ENDMDL
MODEL 3
REMARK VINA RESULT:      -8.5      1.940      2.343
REMARK  Name = 
REMARK  7 active torsions:
REMARK  status: ('A' for Active; 'I' for Inactive)
REMARK    1  A    between atoms: C_2  and  C_3
REMARK    2  A    between atoms: C_3  and  S_4
REMARK    3  A    between atoms: S_4  and  C_5
REMARK    4  A    between atoms: N_7  and  C_8
REMARK    5  A    between atoms: C_8  and  C_9
REMARK    6  A    between atoms: N_22  and  C_23
REMARK    7  A    between atoms: C_23  and  C_24
REMARK                            x       y       z     vdW  Elec       q    Type
REMARK                         _______ _______ _______ _____ _____    ______ ____
ROOT
ATOM      1  C   UNL     1       2.728   6.335  19.010  0.00  0.00    +0.000 A 
ATOM      2  C   UNL     1       3.994   6.128  18.518  0.00  0.00    +0.000 A 
ATOM      3  N   UNL     1       4.382   4.858  18.867  0.00  0.00    +0.000 N 
ATOM      4  C   UNL     1       3.354   4.218  19.536  0.00  0.00    +0.000 A 
ATOM      5  C   UNL     1       3.279   2.930  20.095  0.00  0.00    +0.000 A 
ATOM      6  C   UNL     1       2.099   2.549  20.735  0.00  0.00    +0.000 A 
ATOM      7  C   UNL     1       1.029   3.430  20.836  0.00  0.00    +0.000 A 
ATOM      8  C   UNL     1       1.116   4.719  20.298  0.00  0.00    +0.000 A 
ATOM      9  C   UNL     1       2.289   5.129  19.625  0.00  0.00    +0.000 A 
ENDROOT
BRANCH   1  10
ATOM     10  S   UNL     1       1.950   7.896  19.017  0.00  0.00    +0.000 S 
BRANCH  10  11
ATOM     11  C   UNL     1       1.576   8.197  20.772  0.00  0.00    +0.000 C 
BRANCH  11  13
ATOM     12  O   UNL     1       1.059  10.292  21.872  0.00  0.00    +0.000 OA
ATOM     13  C   UNL     1       0.802   9.513  20.955  0.00  0.00    +0.000 C 
ATOM     14  N   UNL     1      -0.129   9.782  19.981  0.00  0.00    +0.000 N 
ATOM     15  H   UNL     1      -0.274   9.079  19.265  0.00  0.00    +0.000 HD
BRANCH  14  16
ATOM     16  C   UNL     1      -0.933  10.978  19.924  0.00  0.00    +0.000 C 
BRANCH  16  17
ATOM     17  C   UNL     1      -1.794  10.938  18.687  0.00  0.00    +0.000 A 
ATOM     18  C   UNL     1      -2.991  11.672  18.618  0.00  0.00    +0.000 A 
ATOM     19  C   UNL     1      -3.835  11.537  17.515  0.00  0.00    +0.000 A 
ATOM     20  C   UNL     1      -3.487  10.672  16.484  0.00  0.00    +0.000 A 
ATOM     21  F   UNL     1      -4.314  10.521  15.441  0.00  0.00    +0.000 F 
ATOM     22  C   UNL     1      -2.301   9.948  16.527  0.00  0.00    +0.000 A 
ATOM     23  C   UNL     1      -1.455  10.080  17.629  0.00  0.00    +0.000 A 
ENDBRANCH  16  17
ENDBRANCH  14  16
ENDBRANCH  11  13
ENDBRANCH  10  11
ENDBRANCH   1  10
BRANCH   3  24
ATOM     24  C   UNL     1       5.726   4.325  18.647  0.00  0.00    +0.000 C 
BRANCH  24  25
ATOM     25  C   UNL     1       6.103   4.402  17.191  0.00  0.00    +0.000 A 
ATOM     26  C   UNL     1       7.350   4.917  16.803  0.00  0.00    +0.000 A 
ATOM     27  C   UNL     1       7.650   5.110  15.452  0.00  0.00    +0.000 A 
ATOM     28  C   UNL     1       6.710   4.787  14.476  0.00  0.00    +0.000 A 
ATOM     29  C   UNL     1       5.492   4.239  14.857  0.00  0.00    +0.000 A 
ATOM     30  F   UNL     1       4.587   3.922  13.920  0.00  0.00    +0.000 F 
ATOM     31  C   UNL     1       5.186   4.035  16.196  0.00  0.00    +0.000 A 
ENDBRANCH  24  25
ENDBRANCH   3  24
TORSDOF 7
ENDMDL
MODEL 4
REMARK VINA RESULT:      -8.4      2.912      3.472
REMARK  Name = 
REMARK  7 active torsions:
REMARK  status: ('A' for Active; 'I' for Inactive)
REMARK    1  A    between atoms: C_2  and  C_3
REMARK    2  A    between atoms: C_3  and  S_4
REMARK    3  A    between atoms: S_4  and  C_5
REMARK    4  A    between atoms: N_7  and  C_8
REMARK    5  A    between atoms: C_8  and  C_9
REMARK    6  A    between atoms: N_22  and  C_23
REMARK    7  A    between atoms: C_23  and  C_24
REMARK                            x       y       z     vdW  Elec       q    Type
REMARK                         _______ _______ _______ _____ _____    ______ ____
ROOT
ATOM      1  C   UNL     1       2.053   6.375  19.754  0.00  0.00    +0.000 A 
ATOM      2  C   UNL     1       2.976   6.715  18.796  0.00  0.00    +0.000 A 
ATOM      3  N   UNL     1       3.329   5.572  18.122  0.00  0.00    +0.000 N 
ATOM      4  C   UNL     1       2.599   4.498  18.601  0.00  0.00    +0.000 A 
ATOM      5  C   UNL     1       2.616   3.139  18.243  0.00  0.00    +0.000 A 
ATOM      6  C   UNL     1       1.766   2.261  18.917  0.00  0.00    +0.000 A 
ATOM      7  C   UNL     1       0.935   2.717  19.934  0.00  0.00    +0.000 A 
ATOM      8  C   UNL     1       0.938   4.067  20.303  0.00  0.00    +0.000 A 
ATOM      9  C   UNL     1       1.772   4.985  19.626  0.00  0.00    +0.000 A 
ENDROOT
BRANCH   1  10
ATOM     10  S   UNL     1       1.524   7.472  21.003  0.00  0.00    +0.000 S 
BRANCH  10  11
ATOM     11  C   UNL     1       1.102   8.997  20.103  0.00  0.00    +0.000 C 
BRANCH  11  13
ATOM     12  O   UNL     1       1.205  10.087  22.263  0.00  0.00    +0.000 OA
ATOM     13  C   UNL     1       0.913  10.176  21.071  0.00  0.00    +0.000 C 
ATOM     14  N   UNL     1       0.474  11.342  20.491  0.00  0.00    +0.000 N 
ATOM     15  H   UNL     1       0.256  11.320  19.502  0.00  0.00    +0.000 HD
BRANCH  14  16
ATOM     16  C   UNL     1       0.275  12.584  21.198  0.00  0.00    +0.000 C 
BRANCH  16  17
ATOM     17  C   UNL     1      -1.165  12.680  21.635  0.00  0.00    +0.000 A 
ATOM     18  C   UNL     1      -1.533  12.413  22.965  0.00  0.00    +0.000 A 
ATOM     19  C   UNL     1      -2.881  12.394  23.330  0.00  0.00    +0.000 A 
ATOM     20  C   UNL     1      -3.857  12.641  22.371  0.00  0.00    +0.000 A 
ATOM     21  F   UNL     1      -5.149  12.592  22.718  0.00  0.00    +0.000 F 
ATOM     22  C   UNL     1      -3.512  12.922  21.055  0.00  0.00    +0.000 A 
ATOM     23  C   UNL     1      -2.166  12.940  20.686  0.00  0.00    +0.000 A 
ENDBRANCH  16  17
ENDBRANCH  14  16
ENDBRANCH  11  13
ENDBRANCH  10  11
ENDBRANCH   1  10
BRANCH   3  24
ATOM     24  C   UNL     1       4.398   5.507  17.127  0.00  0.00    +0.000 C 
BRANCH  24  25
ATOM     25  C   UNL     1       5.679   6.081  17.675  0.00  0.00    +0.000 A 
ATOM     26  C   UNL     1       6.270   7.205  17.076  0.00  0.00    +0.000 A 
ATOM     27  C   UNL     1       7.522   7.659  17.500  0.00  0.00    +0.000 A 
ATOM     28  C   UNL     1       8.193   6.997  18.526  0.00  0.00    +0.000 A 
ATOM     29  C   UNL     1       7.590   5.910  19.145  0.00  0.00    +0.000 A 
ATOM     30  F   UNL     1       8.230   5.275  20.137  0.00  0.00    +0.000 F 
ATOM     31  C   UNL     1       6.343   5.455  18.739  0.00  0.00    +0.000 A 
ENDBRANCH  24  25
ENDBRANCH   3  24
TORSDOF 7
ENDMDL
MODEL 5
REMARK VINA RESULT:      -8.4      3.899      8.508
REMARK  Name = 
REMARK  7 active torsions:
REMARK  status: ('A' for Active; 'I' for Inactive)
REMARK    1  A    between atoms: C_2  and  C_3
REMARK    2  A    between atoms: C_3  and  S_4
REMARK    3  A    between atoms: S_4  and  C_5
REMARK    4  A    between atoms: N_7  and  C_8
REMARK    5  A    between atoms: C_8  and  C_9
REMARK    6  A    between atoms: N_22  and  C_23
REMARK    7  A    between atoms: C_23  and  C_24
REMARK                            x       y       z     vdW  Elec       q    Type
REMARK                         _______ _______ _______ _____ _____    ______ ____
ROOT
ATOM      1  C   UNL     1       4.732   4.615  18.683  0.00  0.00    +0.000 A 
ATOM      2  C   UNL     1       4.350   5.537  19.627  0.00  0.00    +0.000 A 
ATOM      3  N   UNL     1       3.060   5.253  20.000  0.00  0.00    +0.000 N 
ATOM      4  C   UNL     1       2.618   4.117  19.343  0.00  0.00    +0.000 A 
ATOM      5  C   UNL     1       1.381   3.452  19.384  0.00  0.00    +0.000 A 
ATOM      6  C   UNL     1       1.209   2.317  18.591  0.00  0.00    +0.000 A 
ATOM      7  C   UNL     1       2.230   1.866  17.763  0.00  0.00    +0.000 A 
ATOM      8  C   UNL     1       3.452   2.546  17.708  0.00  0.00    +0.000 A 
ATOM      9  C   UNL     1       3.667   3.686  18.515  0.00  0.00    +0.000 A 
ENDROOT
BRANCH   1  10
ATOM     10  S   UNL     1       6.202   4.752  17.754  0.00  0.00    +0.000 S 
BRANCH  10  11
ATOM     11  C   UNL     1       7.161   6.029  18.626  0.00  0.00    +0.000 C 
BRANCH  11  13
ATOM     12  O   UNL     1       7.710   6.916  16.441  0.00  0.00    +0.000 OA
ATOM     13  C   UNL     1       7.648   7.116  17.653  0.00  0.00    +0.000 C 
ATOM     14  N   UNL     1       7.927   8.331  18.229  0.00  0.00    +0.000 N 
ATOM     15  H   UNL     1       7.849   8.401  19.237  0.00  0.00    +0.000 HD
BRANCH  14  16
ATOM     16  C   UNL     1       8.349   9.504  17.503  0.00  0.00    +0.000 C 
BRANCH  16  17
ATOM     17  C   UNL     1       9.204  10.362  18.402  0.00  0.00    +0.000 A 
ATOM     18  C   UNL     1       9.055  10.314  19.799  0.00  0.00    +0.000 A 
ATOM     19  C   UNL     1       9.771  11.194  20.613  0.00  0.00    +0.000 A 
ATOM     20  C   UNL     1      10.632  12.119  20.034  0.00  0.00    +0.000 A 
ATOM     21  F   UNL     1      11.294  12.982  20.815  0.00  0.00    +0.000 F 
ATOM     22  C   UNL     1      10.804  12.172  18.656  0.00  0.00    +0.000 A 
ATOM     23  C   UNL     1      10.089  11.295  17.839  0.00  0.00    +0.000 A 
ENDBRANCH  16  17
ENDBRANCH  14  16
ENDBRANCH  11  13
ENDBRANCH  10  11
ENDBRANCH   1  10
BRANCH   3  24
ATOM     24  C   UNL     1       2.258   6.102  20.879  0.00  0.00    +0.000 C 
BRANCH  24  25
ATOM     25  C   UNL     1       1.946   7.419  20.216  0.00  0.00    +0.000 A 
ATOM     26  C   UNL     1       1.217   8.406  20.898  0.00  0.00    +0.000 A 
ATOM     27  C   UNL     1       0.814   9.572  20.242  0.00  0.00    +0.000 A 
ATOM     28  C   UNL     1       1.139   9.765  18.901  0.00  0.00    +0.000 A 
ATOM     29  C   UNL     1       1.895   8.808  18.237  0.00  0.00    +0.000 A 
ATOM     30  F   UNL     1       2.215   8.993  16.949  0.00  0.00    +0.000 F 
ATOM     31  C   UNL     1       2.308   7.649  18.881  0.00  0.00    +0.000 A 
ENDBRANCH  24  25
ENDBRANCH   3  24
TORSDOF 7
ENDMDL
MODEL 6
REMARK VINA RESULT:      -8.3      3.811      6.148
REMARK  Name = 
REMARK  7 active torsions:
REMARK  status: ('A' for Active; 'I' for Inactive)
REMARK    1  A    between atoms: C_2  and  C_3
REMARK    2  A    between atoms: C_3  and  S_4
REMARK    3  A    between atoms: S_4  and  C_5
REMARK    4  A    between atoms: N_7  and  C_8
REMARK    5  A    between atoms: C_8  and  C_9
REMARK    6  A    between atoms: N_22  and  C_23
REMARK    7  A    between atoms: C_23  and  C_24
REMARK                            x       y       z     vdW  Elec       q    Type
REMARK                         _______ _______ _______ _____ _____    ______ ____
ROOT
ATOM      1  C   UNL     1       5.172   3.719  18.332  0.00  0.00    +0.000 A 
ATOM      2  C   UNL     1       4.677   3.820  17.055  0.00  0.00    +0.000 A 
ATOM      3  N   UNL     1       5.290   4.886  16.446  0.00  0.00    +0.000 N 
ATOM      4  C   UNL     1       6.222   5.447  17.301  0.00  0.00    +0.000 A 
ATOM      5  C   UNL     1       7.077   6.550  17.138  0.00  0.00    +0.000 A 
ATOM      6  C   UNL     1       7.918   6.904  18.194  0.00  0.00    +0.000 A 
ATOM      7  C   UNL     1       7.895   6.194  19.389  0.00  0.00    +0.000 A 
ATOM      8  C   UNL     1       7.025   5.112  19.556  0.00  0.00    +0.000 A 
ATOM      9  C   UNL     1       6.176   4.714  18.498  0.00  0.00    +0.000 A 
ENDROOT
BRANCH   1  10
ATOM     10  S   UNL     1       4.489   2.662  19.541  0.00  0.00    +0.000 S 
BRANCH  10  11
ATOM     11  C   UNL     1       2.746   2.489  19.044  0.00  0.00    +0.000 C 
BRANCH  11  13
ATOM     12  O   UNL     1       0.658   3.511  19.721  0.00  0.00    +0.000 OA
ATOM     13  C   UNL     1       1.883   3.604  19.655  0.00  0.00    +0.000 C 
ATOM     14  N   UNL     1       2.585   4.660  20.185  0.00  0.00    +0.000 N 
ATOM     15  H   UNL     1       3.593   4.651  20.082  0.00  0.00    +0.000 HD
BRANCH  14  16
ATOM     16  C   UNL     1       1.985   5.791  20.851  0.00  0.00    +0.000 C 
BRANCH  16  17
ATOM     17  C   UNL     1       1.949   6.962  19.902  0.00  0.00    +0.000 A 
ATOM     18  C   UNL     1       2.620   6.911  18.668  0.00  0.00    +0.000 A 
ATOM     19  C   UNL     1       2.674   8.041  17.850  0.00  0.00    +0.000 A 
ATOM     20  C   UNL     1       2.060   9.218  18.263  0.00  0.00    +0.000 A 
ATOM     21  F   UNL     1       2.139  10.310  17.490  0.00  0.00    +0.000 F 
ATOM     22  C   UNL     1       1.378   9.284  19.472  0.00  0.00    +0.000 A 
ATOM     23  C   UNL     1       1.324   8.157  20.292  0.00  0.00    +0.000 A 
ENDBRANCH  16  17
ENDBRANCH  14  16
ENDBRANCH  11  13
ENDBRANCH  10  11
ENDBRANCH   1  10
BRANCH   3  24
ATOM     24  C   UNL     1       4.917   5.399  15.128  0.00  0.00    +0.000 C 
BRANCH  24  25
ATOM     25  C   UNL     1       5.696   4.706  14.041  0.00  0.00    +0.000 A 
ATOM     26  C   UNL     1       7.003   5.111  13.730  0.00  0.00    +0.000 A 
ATOM     27  C   UNL     1       7.678   4.559  12.638  0.00  0.00    +0.000 A 
ATOM     28  C   UNL     1       7.054   3.594  11.849  0.00  0.00    +0.000 A 
ATOM     29  C   UNL     1       5.777   3.163  12.180  0.00  0.00    +0.000 A 
ATOM     30  F   UNL     1       5.176   2.231  11.427  0.00  0.00    +0.000 F 
ATOM     31  C   UNL     1       5.100   3.699  13.269  0.00  0.00    +0.000 A 
ENDBRANCH  24  25
ENDBRANCH   3  24
TORSDOF 7
ENDMDL
MODEL 7
REMARK VINA RESULT:      -8.3      2.042      2.364
REMARK  Name = 
REMARK  7 active torsions:
REMARK  status: ('A' for Active; 'I' for Inactive)
REMARK    1  A    between atoms: C_2  and  C_3
REMARK    2  A    between atoms: C_3  and  S_4
REMARK    3  A    between atoms: S_4  and  C_5
REMARK    4  A    between atoms: N_7  and  C_8
REMARK    5  A    between atoms: C_8  and  C_9
REMARK    6  A    between atoms: N_22  and  C_23
REMARK    7  A    between atoms: C_23  and  C_24
REMARK                            x       y       z     vdW  Elec       q    Type
REMARK                         _______ _______ _______ _____ _____    ______ ____
ROOT
ATOM      1  C   UNL     1       2.392   5.894  18.897  0.00  0.00    +0.000 A 
ATOM      2  C   UNL     1       2.952   5.507  17.704  0.00  0.00    +0.000 A 
ATOM      3  N   UNL     1       3.054   4.138  17.708  0.00  0.00    +0.000 N 
ATOM      4  C   UNL     1       2.513   3.627  18.875  0.00  0.00    +0.000 A 
ATOM      5  C   UNL     1       2.400   2.305  19.337  0.00  0.00    +0.000 A 
ATOM      6  C   UNL     1       1.811   2.082  20.582  0.00  0.00    +0.000 A 
ATOM      7  C   UNL     1       1.365   3.146  21.358  0.00  0.00    +0.000 A 
ATOM      8  C   UNL     1       1.501   4.462  20.904  0.00  0.00    +0.000 A 
ATOM      9  C   UNL     1       2.073   4.721  19.638  0.00  0.00    +0.000 A 
ENDROOT
BRANCH   1  10
ATOM     10  S   UNL     1       2.312   7.556  19.420  0.00  0.00    +0.000 S 
BRANCH  10  11
ATOM     11  C   UNL     1       2.108   8.497  17.876  0.00  0.00    +0.000 C 
BRANCH  11  13
ATOM     12  O   UNL     1       2.310  10.910  17.834  0.00  0.00    +0.000 OA
ATOM     13  C   UNL     1       1.638   9.933  18.161  0.00  0.00    +0.000 C 
ATOM     14  N   UNL     1       0.391  10.036  18.729  0.00  0.00    +0.000 N 
ATOM     15  H   UNL     1      -0.088   9.175  18.966  0.00  0.00    +0.000 HD
BRANCH  14  16
ATOM     16  C   UNL     1      -0.268  11.281  19.037  0.00  0.00    +0.000 C 
BRANCH  16  17
ATOM     17  C   UNL     1      -1.709  11.200  18.598  0.00  0.00    +0.000 A 
ATOM     18  C   UNL     1      -2.678  12.058  19.147  0.00  0.00    +0.000 A 
ATOM     19  C   UNL     1      -4.026  11.897  18.818  0.00  0.00    +0.000 A 
ATOM     20  C   UNL     1      -4.404  10.884  17.944  0.00  0.00    +0.000 A 
ATOM     21  F   UNL     1      -5.700  10.713  17.655  0.00  0.00    +0.000 F 
ATOM     22  C   UNL     1      -3.459  10.036  17.379  0.00  0.00    +0.000 A 
ATOM     23  C   UNL     1      -2.111  10.193  17.707  0.00  0.00    +0.000 A 
ENDBRANCH  16  17
ENDBRANCH  14  16
ENDBRANCH  11  13
ENDBRANCH  10  11
ENDBRANCH   1  10
BRANCH   3  24
ATOM     24  C   UNL     1       3.735   3.366  16.669  0.00  0.00    +0.000 C 
BRANCH  24  25
ATOM     25  C   UNL     1       5.118   3.907  16.418  0.00  0.00    +0.000 A 
ATOM     26  C   UNL     1       5.987   4.170  17.488  0.00  0.00    +0.000 A 
ATOM     27  C   UNL     1       7.219   4.792  17.267  0.00  0.00    +0.000 A 
ATOM     28  C   UNL     1       7.595   5.154  15.976  0.00  0.00    +0.000 A 
ATOM     29  C   UNL     1       6.754   4.858  14.911  0.00  0.00    +0.000 A 
ATOM     30  F   UNL     1       7.115   5.199  13.667  0.00  0.00    +0.000 F 
ATOM     31  C   UNL     1       5.531   4.232  15.118  0.00  0.00    +0.000 A 
ENDBRANCH  24  25
ENDBRANCH   3  24
TORSDOF 7
ENDMDL
MODEL 8
REMARK VINA RESULT:      -8.3      1.366      1.628
REMARK  Name = 
REMARK  7 active torsions:
REMARK  status: ('A' for Active; 'I' for Inactive)
REMARK    1  A    between atoms: C_2  and  C_3
REMARK    2  A    between atoms: C_3  and  S_4
REMARK    3  A    between atoms: S_4  and  C_5
REMARK    4  A    between atoms: N_7  and  C_8
REMARK    5  A    between atoms: C_8  and  C_9
REMARK    6  A    between atoms: N_22  and  C_23
REMARK    7  A    between atoms: C_23  and  C_24
REMARK                            x       y       z     vdW  Elec       q    Type
REMARK                         _______ _______ _______ _____ _____    ______ ____
ROOT
ATOM      1  C   UNL     1       2.162   6.848  19.322  0.00  0.00    +0.000 A 
ATOM      2  C   UNL     1       3.043   6.942  18.272  0.00  0.00    +0.000 A 
ATOM      3  N   UNL     1       3.532   5.685  18.015  0.00  0.00    +0.000 N 
ATOM      4  C   UNL     1       2.931   4.764  18.856  0.00  0.00    +0.000 A 
ATOM      5  C   UNL     1       3.111   3.376  18.980  0.00  0.00    +0.000 A 
ATOM      6  C   UNL     1       2.367   2.691  19.942  0.00  0.00    +0.000 A 
ATOM      7  C   UNL     1       1.483   3.370  20.773  0.00  0.00    +0.000 A 
ATOM      8  C   UNL     1       1.325   4.755  20.661  0.00  0.00    +0.000 A 
ATOM      9  C   UNL     1       2.048   5.475  19.683  0.00  0.00    +0.000 A 
ENDROOT
BRANCH   1  10
ATOM     10  S   UNL     1       1.501   8.238  20.142  0.00  0.00    +0.000 S 
BRANCH  10  11
ATOM     11  C   UNL     1       1.354   9.496  18.834  0.00  0.00    +0.000 C 
BRANCH  11  13
ATOM     12  O   UNL     1       1.467  11.764  19.675  0.00  0.00    +0.000 OA
ATOM     13  C   UNL     1       0.758  10.801  19.386  0.00  0.00    +0.000 C 
ATOM     14  N   UNL     1      -0.614  10.832  19.455  0.00  0.00    +0.000 N 
ATOM     15  H   UNL     1      -1.115   9.989  19.198  0.00  0.00    +0.000 HD
BRANCH  14  16
ATOM     16  C   UNL     1      -1.387  11.968  19.893  0.00  0.00    +0.000 C 
BRANCH  16  17
ATOM     17  C   UNL     1      -2.733  11.942  19.214  0.00  0.00    +0.000 A 
ATOM     18  C   UNL     1      -3.864  12.503  19.834  0.00  0.00    +0.000 A 
ATOM     19  C   UNL     1      -5.124  12.373  19.248  0.00  0.00    +0.000 A 
ATOM     20  C   UNL     1      -5.255  11.684  18.047  0.00  0.00    +0.000 A 
ATOM     21  F   UNL     1      -6.470  11.534  17.503  0.00  0.00    +0.000 F 
ATOM     22  C   UNL     1      -4.148  11.136  17.411  0.00  0.00    +0.000 A 
ATOM     23  C   UNL     1      -2.887  11.264  17.995  0.00  0.00    +0.000 A 
ENDBRANCH  16  17
ENDBRANCH  14  16
ENDBRANCH  11  13
ENDBRANCH  10  11
ENDBRANCH   1  10
BRANCH   3  24
ATOM     24  C   UNL     1       4.605   5.405  17.063  0.00  0.00    +0.000 C 
BRANCH  24  25
ATOM     25  C   UNL     1       5.933   5.880  17.594  0.00  0.00    +0.000 A 
ATOM     26  C   UNL     1       6.572   5.191  18.637  0.00  0.00    +0.000 A 
ATOM     27  C   UNL     1       7.735   5.703  19.218  0.00  0.00    +0.000 A 
ATOM     28  C   UNL     1       8.273   6.904  18.760  0.00  0.00    +0.000 A 
ATOM     29  C   UNL     1       7.664   7.564  17.701  0.00  0.00    +0.000 A 
ATOM     30  F   UNL     1       8.182   8.717  17.254  0.00  0.00    +0.000 F 
ATOM     31  C   UNL     1       6.512   7.061  17.110  0.00  0.00    +0.000 A 
ENDBRANCH  24  25
ENDBRANCH   3  24
TORSDOF 7
ENDMDL
MODEL 9
REMARK VINA RESULT:      -8.2      2.654      3.394
REMARK  Name = 
REMARK  7 active torsions:
REMARK  status: ('A' for Active; 'I' for Inactive)
REMARK    1  A    between atoms: C_2  and  C_3
REMARK    2  A    between atoms: C_3  and  S_4
REMARK    3  A    between atoms: S_4  and  C_5
REMARK    4  A    between atoms: N_7  and  C_8
REMARK    5  A    between atoms: C_8  and  C_9
REMARK    6  A    between atoms: N_22  and  C_23
REMARK    7  A    between atoms: C_23  and  C_24
REMARK                            x       y       z     vdW  Elec       q    Type
REMARK                         _______ _______ _______ _____ _____    ______ ____
ROOT
ATOM      1  C   UNL     1       2.109   7.078  19.297  0.00  0.00    +0.000 A 
ATOM      2  C   UNL     1       2.961   7.125  18.220  0.00  0.00    +0.000 A 
ATOM      3  N   UNL     1       3.491   5.871  18.044  0.00  0.00    +0.000 N 
ATOM      4  C   UNL     1       2.947   4.995  18.966  0.00  0.00    +0.000 A 
ATOM      5  C   UNL     1       3.183   3.627  19.188  0.00  0.00    +0.000 A 
ATOM      6  C   UNL     1       2.489   2.990  20.217  0.00  0.00    +0.000 A 
ATOM      7  C   UNL     1       1.600   3.696  21.019  0.00  0.00    +0.000 A 
ATOM      8  C   UNL     1       1.385   5.062  20.809  0.00  0.00    +0.000 A 
ATOM      9  C   UNL     1       2.056   5.733  19.762  0.00  0.00    +0.000 A 
ENDROOT
BRANCH   1  10
ATOM     10  S   UNL     1       1.414   8.500  20.028  0.00  0.00    +0.000 S 
BRANCH  10  11
ATOM     11  C   UNL     1       1.464   9.749  18.704  0.00  0.00    +0.000 C 
BRANCH  11  13
ATOM     12  O   UNL     1      -0.723   9.882  17.673  0.00  0.00    +0.000 OA
ATOM     13  C   UNL     1       0.075  10.367  18.474  0.00  0.00    +0.000 C 
ATOM     14  N   UNL     1      -0.227  11.439  19.278  0.00  0.00    +0.000 N 
ATOM     15  H   UNL     1       0.495  11.770  19.907  0.00  0.00    +0.000 HD
BRANCH  14  16
ATOM     16  C   UNL     1      -1.487  12.140  19.269  0.00  0.00    +0.000 C 
BRANCH  16  17
ATOM     17  C   UNL     1      -2.075  12.120  20.658  0.00  0.00    +0.000 A 
ATOM     18  C   UNL     1      -3.337  12.683  20.914  0.00  0.00    +0.000 A 
ATOM     19  C   UNL     1      -3.820  12.761  22.222  0.00  0.00    +0.000 A 
ATOM     20  C   UNL     1      -3.045  12.278  23.270  0.00  0.00    +0.000 A 
ATOM     21  F   UNL     1      -3.497  12.382  24.527  0.00  0.00    +0.000 F 
ATOM     22  C   UNL     1      -1.801  11.704  23.036  0.00  0.00    +0.000 A 
ATOM     23  C   UNL     1      -1.315  11.627  21.731  0.00  0.00    +0.000 A 
ENDBRANCH  16  17
ENDBRANCH  14  16
ENDBRANCH  11  13
ENDBRANCH  10  11
ENDBRANCH   1  10
BRANCH   3  24
ATOM     24  C   UNL     1       4.552   5.560  17.087  0.00  0.00    +0.000 C 
BRANCH  24  25
ATOM     25  C   UNL     1       5.896   5.994  17.614  0.00  0.00    +0.000 A 
ATOM     26  C   UNL     1       6.508   5.296  18.667  0.00  0.00    +0.000 A 
ATOM     27  C   UNL     1       7.689   5.773  19.243  0.00  0.00    +0.000 A 
ATOM     28  C   UNL     1       8.270   6.948  18.771  0.00  0.00    +0.000 A 
ATOM     29  C   UNL     1       7.687   7.616  17.702  0.00  0.00    +0.000 A 
ATOM     30  F   UNL     1       8.246   8.743  17.241  0.00  0.00    +0.000 F 
ATOM     31  C   UNL     1       6.518   7.147  17.116  0.00  0.00    +0.000 A 
ENDBRANCH  24  25
ENDBRANCH   3  24
TORSDOF 7
ENDMDL
