MODEL 1
REMARK VINA RESULT:      -7.0      0.000      0.000
REMARK  Name = 
REMARK  2 active torsions:
REMARK  status: ('A' for Active; 'I' for Inactive)
REMARK    1  A    between atoms: C_2  and  C_3
REMARK    2  A    between atoms: C_4  and  C_5
REMARK                            x       y       z     vdW  Elec       q    Type
REMARK                         _______ _______ _______ _____ _____    ______ ____
ROOT
ATOM      1  O   UNL     1       2.693   1.969  17.433  0.00  0.00    +0.000 OA
ATOM      2  C   UNL     1       3.050   3.132  17.633  0.00  0.00    +0.000 C 
ATOM      3  N   UNL     1       2.684   3.857  18.778  0.00  0.00    +0.000 N 
ATOM      4  C   UNL     1       2.043   3.038  19.807  0.00  0.00    +0.000 C 
ATOM      5  C   UNL     1       1.765   3.689  21.158  0.00  0.00    +0.000 C 
ATOM      6  C   UNL     1       1.725   5.173  21.127  0.00  0.00    +0.000 C 
ATOM      7  C   UNL     1       2.070   5.884  20.050  0.00  0.00    +0.000 C 
ATOM      8 CL   UNL     1       2.029   7.611  20.117  0.00  0.00    +0.000 Cl
ATOM      9  C   UNL     1       2.537   5.250  18.777  0.00  0.00    +0.000 C 
ATOM     10  O   UNL     1       2.804   5.973  17.820  0.00  0.00    +0.000 OA
ENDROOT
BRANCH   2  11
ATOM     11  C   UNL     1       3.896   3.824  16.632  0.00  0.00    +0.000 C 
ATOM     12  C   UNL     1       5.221   3.614  16.575  0.00  0.00    +0.000 C 
BRANCH  12  13
ATOM     13  C   UNL     1       6.079   4.206  15.601  0.00  0.00    +0.000 A 
ATOM     14  C   UNL     1       6.130   3.979  14.200  0.00  0.00    +0.000 A 
ATOM     15  C   UNL     1       7.131   4.787  13.715  0.00  0.00    +0.000 A 
ATOM     16  O   UNL     1       7.707   5.487  14.726  0.00  0.00    +0.000 OA
ATOM     17  C   UNL     1       7.067   5.126  15.870  0.00  0.00    +0.000 A 
ENDBRANCH  12  13
ENDBRANCH   2  11
TORSDOF 2
ENDMDL
MODEL 2
REMARK VINA RESULT:      -6.8      2.039      2.773
REMARK  Name = 
REMARK  2 active torsions:
REMARK  status: ('A' for Active; 'I' for Inactive)
REMARK    1  A    between atoms: C_2  and  C_3
REMARK    2  A    between atoms: C_4  and  C_5
REMARK                            x       y       z     vdW  Elec       q    Type
REMARK                         _______ _______ _______ _____ _____    ______ ____
ROOT
ATOM      1  O   UNL     1       5.599   6.046  18.156  0.00  0.00    +0.000 OA
ATOM      2  C   UNL     1       4.707   5.349  17.667  0.00  0.00    +0.000 C 
ATOM      3  N   UNL     1       3.535   5.010  18.361  0.00  0.00    +0.000 N 
ATOM      4  C   UNL     1       3.368   5.743  19.616  0.00  0.00    +0.000 C 
ATOM      5  C   UNL     1       2.046   5.580  20.360  0.00  0.00    +0.000 C 
ATOM      6  C   UNL     1       1.288   4.355  20.001  0.00  0.00    +0.000 C 
ATOM      7  C   UNL     1       1.643   3.552  18.994  0.00  0.00    +0.000 C 
ATOM      8 CL   UNL     1       0.678   2.166  18.624  0.00  0.00    +0.000 Cl
ATOM      9  C   UNL     1       2.836   3.819  18.129  0.00  0.00    +0.000 C 
ATOM     10  O   UNL     1       3.115   3.014  17.243  0.00  0.00    +0.000 OA
ENDROOT
BRANCH   2  11
ATOM     11  C   UNL     1       4.856   4.825  16.289  0.00  0.00    +0.000 C 
ATOM     12  C   UNL     1       5.962   5.067  15.567  0.00  0.00    +0.000 C 
BRANCH  12  13
ATOM     13  C   UNL     1       6.189   4.545  14.259  0.00  0.00    +0.000 A 
ATOM     14  C   UNL     1       5.414   3.608  13.525  0.00  0.00    +0.000 A 
ATOM     15  C   UNL     1       6.059   3.432  12.324  0.00  0.00    +0.000 A 
ATOM     16  O   UNL     1       7.186   4.189  12.274  0.00  0.00    +0.000 OA
ATOM     17  C   UNL     1       7.262   4.859  13.455  0.00  0.00    +0.000 A 
ENDBRANCH  12  13
ENDBRANCH   2  11
TORSDOF 2
ENDMDL
MODEL 3
REMARK VINA RESULT:      -6.7      2.197      2.761
REMARK  Name = 
REMARK  2 active torsions:
REMARK  status: ('A' for Active; 'I' for Inactive)
REMARK    1  A    between atoms: C_2  and  C_3
REMARK    2  A    between atoms: C_4  and  C_5
REMARK                            x       y       z     vdW  Elec       q    Type
REMARK                         _______ _______ _______ _____ _____    ______ ____
ROOT
ATOM      1  O   UNL     1       2.781   6.747  18.370  0.00  0.00    +0.000 OA
ATOM      2  C   UNL     1       3.434   5.701  18.393  0.00  0.00    +0.000 C 
ATOM      3  N   UNL     1       3.105   4.612  19.216  0.00  0.00    +0.000 N 
ATOM      4  C   UNL     1       1.799   4.743  19.862  0.00  0.00    +0.000 C 
ATOM      5  C   UNL     1       1.269   3.540  20.635  0.00  0.00    +0.000 C 
ATOM      6  C   UNL     1       2.313   2.570  21.051  0.00  0.00    +0.000 C 
ATOM      7  C   UNL     1       3.581   2.651  20.641  0.00  0.00    +0.000 C 
ATOM      8 CL   UNL     1       4.722   1.454  21.147  0.00  0.00    +0.000 Cl
ATOM      9  C   UNL     1       4.065   3.724  19.716  0.00  0.00    +0.000 C 
ATOM     10  O   UNL     1       5.256   3.748  19.411  0.00  0.00    +0.000 OA
ENDROOT
BRANCH   2  11
ATOM     11  C   UNL     1       4.632   5.564  17.530  0.00  0.00    +0.000 C 
ATOM     12  C   UNL     1       4.540   5.072  16.284  0.00  0.00    +0.000 C 
BRANCH  12  13
ATOM     13  C   UNL     1       5.645   4.967  15.387  0.00  0.00    +0.000 A 
ATOM     14  C   UNL     1       5.727   4.272  14.151  0.00  0.00    +0.000 A 
ATOM     15  C   UNL     1       7.003   4.475  13.680  0.00  0.00    +0.000 A 
ATOM     16  O   UNL     1       7.714   5.238  14.549  0.00  0.00    +0.000 OA
ATOM     17  C   UNL     1       6.885   5.530  15.587  0.00  0.00    +0.000 A 
ENDBRANCH  12  13
ENDBRANCH   2  11
TORSDOF 2
ENDMDL
MODEL 4
REMARK VINA RESULT:      -6.4      2.096      2.790
REMARK  Name = 
REMARK  2 active torsions:
REMARK  status: ('A' for Active; 'I' for Inactive)
REMARK    1  A    between atoms: C_2  and  C_3
REMARK    2  A    between atoms: C_4  and  C_5
REMARK                            x       y       z     vdW  Elec       q    Type
REMARK                         _______ _______ _______ _____ _____    ______ ____
ROOT
ATOM      1  O   UNL     1       5.804   5.486  18.961  0.00  0.00    +0.000 OA
ATOM      2  C   UNL     1       4.942   4.868  18.332  0.00  0.00    +0.000 C 
ATOM      3  N   UNL     1       3.647   4.646  18.825  0.00  0.00    +0.000 N 
ATOM      4  C   UNL     1       3.346   5.407  20.038  0.00  0.00    +0.000 C 
ATOM      5  C   UNL     1       1.913   5.375  20.556  0.00  0.00    +0.000 C 
ATOM      6  C   UNL     1       1.113   4.220  20.075  0.00  0.00    +0.000 C 
ATOM      7  C   UNL     1       1.551   3.376  19.138  0.00  0.00    +0.000 C 
ATOM      8 CL   UNL     1       0.535   2.080  18.612  0.00  0.00    +0.000 Cl
ATOM      9  C   UNL     1       2.888   3.522  18.479  0.00  0.00    +0.000 C 
ATOM     10  O   UNL     1       3.231   2.683  17.649  0.00  0.00    +0.000 OA
ENDROOT
BRANCH   2  11
ATOM     11  C   UNL     1       5.265   4.315  16.995  0.00  0.00    +0.000 C 
ATOM     12  C   UNL     1       5.603   5.115  15.972  0.00  0.00    +0.000 C 
BRANCH  12  13
ATOM     13  C   UNL     1       5.978   4.641  14.680  0.00  0.00    +0.000 A 
ATOM     14  C   UNL     1       7.176   4.875  13.956  0.00  0.00    +0.000 A 
ATOM     15  C   UNL     1       7.044   4.204  12.763  0.00  0.00    +0.000 A 
ATOM     16  O   UNL     1       5.838   3.582  12.701  0.00  0.00    +0.000 OA
ATOM     17  C   UNL     1       5.192   3.855  13.866  0.00  0.00    +0.000 A 
ENDBRANCH  12  13
ENDBRANCH   2  11
TORSDOF 2
ENDMDL
MODEL 5
REMARK VINA RESULT:      -6.4      2.066      2.616
REMARK  Name = 
REMARK  2 active torsions:
REMARK  status: ('A' for Active; 'I' for Inactive)
REMARK    1  A    between atoms: C_2  and  C_3
REMARK    2  A    between atoms: C_4  and  C_5
REMARK                            x       y       z     vdW  Elec       q    Type
REMARK                         _______ _______ _______ _____ _____    ______ ____
ROOT
ATOM      1  O   UNL     1       3.071   4.358  19.823  0.00  0.00    +0.000 OA
ATOM      2  C   UNL     1       3.360   5.432  19.291  0.00  0.00    +0.000 C 
ATOM      3  N   UNL     1       2.679   6.629  19.565  0.00  0.00    +0.000 N 
ATOM      4  C   UNL     1       1.758   6.529  20.698  0.00  0.00    +0.000 C 
ATOM      5  C   UNL     1       1.100   7.814  21.189  0.00  0.00    +0.000 C 
ATOM      6  C   UNL     1       1.080   8.913  20.191  0.00  0.00    +0.000 C 
ATOM      7  C   UNL     1       1.731   8.845  19.026  0.00  0.00    +0.000 C 
ATOM      8 CL   UNL     1       1.682  10.190  17.940  0.00  0.00    +0.000 Cl
ATOM      9  C   UNL     1       2.547   7.657  18.624  0.00  0.00    +0.000 C 
ATOM     10  O   UNL     1       3.088   7.658  17.520  0.00  0.00    +0.000 OA
ENDROOT
BRANCH   2  11
ATOM     11  C   UNL     1       4.468   5.490  18.308  0.00  0.00    +0.000 C 
ATOM     12  C   UNL     1       4.586   4.572  17.336  0.00  0.00    +0.000 C 
BRANCH  12  13
ATOM     13  C   UNL     1       5.596   4.604  16.329  0.00  0.00    +0.000 A 
ATOM     14  C   UNL     1       5.457   4.468  14.922  0.00  0.00    +0.000 A 
ATOM     15  C   UNL     1       6.724   4.566  14.398  0.00  0.00    +0.000 A 
ATOM     16  O   UNL     1       7.635   4.741  15.391  0.00  0.00    +0.000 OA
ATOM     17  C   UNL     1       6.944   4.759  16.562  0.00  0.00    +0.000 A 
ENDBRANCH  12  13
ENDBRANCH   2  11
TORSDOF 2
ENDMDL
MODEL 6
REMARK VINA RESULT:      -6.4      2.829      6.151
REMARK  Name = 
REMARK  2 active torsions:
REMARK  status: ('A' for Active; 'I' for Inactive)
REMARK    1  A    between atoms: C_2  and  C_3
REMARK    2  A    between atoms: C_4  and  C_5
REMARK                            x       y       z     vdW  Elec       q    Type
REMARK                         _______ _______ _______ _____ _____    ______ ____
ROOT
ATOM      1  O   UNL     1       2.394   4.031  17.137  0.00  0.00    +0.000 OA
ATOM      2  C   UNL     1       3.161   4.781  17.745  0.00  0.00    +0.000 C 
ATOM      3  N   UNL     1       4.546   4.807  17.516  0.00  0.00    +0.000 N 
ATOM      4  C   UNL     1       4.958   4.037  16.342  0.00  0.00    +0.000 C 
ATOM      5  C   UNL     1       6.414   4.142  15.903  0.00  0.00    +0.000 C 
ATOM      6  C   UNL     1       7.342   4.607  16.964  0.00  0.00    +0.000 C 
ATOM      7  C   UNL     1       6.921   5.058  18.148  0.00  0.00    +0.000 C 
ATOM      8 CL   UNL     1       8.073   5.615  19.311  0.00  0.00    +0.000 Cl
ATOM      9  C   UNL     1       5.471   5.144  18.512  0.00  0.00    +0.000 C 
ATOM     10  O   UNL     1       5.166   5.539  19.635  0.00  0.00    +0.000 OA
ENDROOT
BRANCH   2  11
ATOM     11  C   UNL     1       2.625   5.702  18.775  0.00  0.00    +0.000 C 
ATOM     12  C   UNL     1       2.415   7.001  18.508  0.00  0.00    +0.000 C 
BRANCH  12  13
ATOM     13  C   UNL     1       1.851   7.924  19.438  0.00  0.00    +0.000 A 
ATOM     14  C   UNL     1       1.588   7.747  20.822  0.00  0.00    +0.000 A 
ATOM     15  C   UNL     1       1.037   8.927  21.264  0.00  0.00    +0.000 A 
ATOM     16  O   UNL     1       0.933   9.814  20.240  0.00  0.00    +0.000 OA
ATOM     17  C   UNL     1       1.424   9.197  19.132  0.00  0.00    +0.000 A 
ENDBRANCH  12  13
ENDBRANCH   2  11
TORSDOF 2
ENDMDL
MODEL 7
REMARK VINA RESULT:      -6.3      3.789      7.361
REMARK  Name = 
REMARK  2 active torsions:
REMARK  status: ('A' for Active; 'I' for Inactive)
REMARK    1  A    between atoms: C_2  and  C_3
REMARK    2  A    between atoms: C_4  and  C_5
REMARK                            x       y       z     vdW  Elec       q    Type
REMARK                         _______ _______ _______ _____ _____    ______ ____
ROOT
ATOM      1  O   UNL     1       2.381   7.922  18.006  0.00  0.00    +0.000 OA
ATOM      2  C   UNL     1       2.410   7.291  19.065  0.00  0.00    +0.000 C 
ATOM      3  N   UNL     1       2.990   6.018  19.180  0.00  0.00    +0.000 N 
ATOM      4  C   UNL     1       3.752   5.615  17.997  0.00  0.00    +0.000 C 
ATOM      5  C   UNL     1       4.566   4.329  18.085  0.00  0.00    +0.000 C 
ATOM      6  C   UNL     1       4.125   3.396  19.151  0.00  0.00    +0.000 C 
ATOM      7  C   UNL     1       3.208   3.722  20.065  0.00  0.00    +0.000 C 
ATOM      8 CL   UNL     1       2.782   2.583  21.294  0.00  0.00    +0.000 Cl
ATOM      9  C   UNL     1       2.546   5.064  20.103  0.00  0.00    +0.000 C 
ATOM     10  O   UNL     1       1.686   5.275  20.957  0.00  0.00    +0.000 OA
ENDROOT
BRANCH   2  11
ATOM     11  C   UNL     1       1.805   7.875  20.285  0.00  0.00    +0.000 C 
ATOM     12  C   UNL     1       1.133   9.037  20.243  0.00  0.00    +0.000 C 
BRANCH  12  13
ATOM     13  C   UNL     1       0.482   9.621  21.370  0.00  0.00    +0.000 A 
ATOM     14  C   UNL     1      -0.542  10.604  21.398  0.00  0.00    +0.000 A 
ATOM     15  C   UNL     1      -0.821  10.833  22.725  0.00  0.00    +0.000 A 
ATOM     16  O   UNL     1      -0.028  10.063  23.515  0.00  0.00    +0.000 OA
ATOM     17  C   UNL     1       0.765   9.333  22.686  0.00  0.00    +0.000 A 
ENDBRANCH  12  13
ENDBRANCH   2  11
TORSDOF 2
ENDMDL
MODEL 8
REMARK VINA RESULT:      -6.3      4.003      5.663
REMARK  Name = 
REMARK  2 active torsions:
REMARK  status: ('A' for Active; 'I' for Inactive)
REMARK    1  A    between atoms: C_2  and  C_3
REMARK    2  A    between atoms: C_4  and  C_5
REMARK                            x       y       z     vdW  Elec       q    Type
REMARK                         _______ _______ _______ _____ _____    ______ ____
ROOT
ATOM      1  O   UNL     1       2.111   9.647  17.416  0.00  0.00    +0.000 OA
ATOM      2  C   UNL     1       1.740   9.059  18.435  0.00  0.00    +0.000 C 
ATOM      3  N   UNL     1       0.863   9.630  19.371  0.00  0.00    +0.000 N 
ATOM      4  C   UNL     1       0.256  10.880  18.914  0.00  0.00    +0.000 C 
ATOM      5  C   UNL     1      -0.842  11.490  19.778  0.00  0.00    +0.000 C 
ATOM      6  C   UNL     1      -0.836  11.032  21.190  0.00  0.00    +0.000 C 
ATOM      7  C   UNL     1      -0.050  10.045  21.628  0.00  0.00    +0.000 C 
ATOM      8 CL   UNL     1      -0.138   9.552  23.283  0.00  0.00    +0.000 Cl
ATOM      9  C   UNL     1       0.893   9.304  20.732  0.00  0.00    +0.000 C 
ATOM     10  O   UNL     1       1.607   8.430  21.220  0.00  0.00    +0.000 OA
ENDROOT
BRANCH   2  11
ATOM     11  C   UNL     1       2.234   7.689  18.713  0.00  0.00    +0.000 C 
ATOM     12  C   UNL     1       3.177   7.119  17.947  0.00  0.00    +0.000 C 
BRANCH  12  13
ATOM     13  C   UNL     1       3.732   5.829  18.196  0.00  0.00    +0.000 A 
ATOM     14  C   UNL     1       3.991   4.776  17.278  0.00  0.00    +0.000 A 
ATOM     15  C   UNL     1       4.521   3.744  18.015  0.00  0.00    +0.000 A 
ATOM     16  O   UNL     1       4.596   4.087  19.327  0.00  0.00    +0.000 OA
ATOM     17  C   UNL     1       4.110   5.353  19.432  0.00  0.00    +0.000 A 
ENDBRANCH  12  13
ENDBRANCH   2  11
TORSDOF 2
ENDMDL
MODEL 9
REMARK VINA RESULT:      -6.2      1.489      1.803
REMARK  Name = 
REMARK  2 active torsions:
REMARK  status: ('A' for Active; 'I' for Inactive)
REMARK    1  A    between atoms: C_2  and  C_3
REMARK    2  A    between atoms: C_4  and  C_5
REMARK                            x       y       z     vdW  Elec       q    Type
REMARK                         _______ _______ _______ _____ _____    ______ ____
ROOT
ATOM      1  O   UNL     1       3.545   3.370  18.893  0.00  0.00    +0.000 OA
ATOM      2  C   UNL     1       3.826   4.522  18.554  0.00  0.00    +0.000 C 
ATOM      3  N   UNL     1       3.154   5.650  19.049  0.00  0.00    +0.000 N 
ATOM      4  C   UNL     1       2.257   5.351  20.166  0.00  0.00    +0.000 C 
ATOM      5  C   UNL     1       1.614   6.528  20.891  0.00  0.00    +0.000 C 
ATOM      6  C   UNL     1       1.576   7.786  20.104  0.00  0.00    +0.000 C 
ATOM      7  C   UNL     1       2.201   7.926  18.933  0.00  0.00    +0.000 C 
ATOM      8 CL   UNL     1       2.133   9.442  18.103  0.00  0.00    +0.000 Cl
ATOM      9  C   UNL     1       3.005   6.828  18.308  0.00  0.00    +0.000 C 
ATOM     10  O   UNL     1       3.523   7.026  17.211  0.00  0.00    +0.000 OA
ENDROOT
BRANCH   2  11
ATOM     11  C   UNL     1       4.912   4.754  17.573  0.00  0.00    +0.000 C 
ATOM     12  C   UNL     1       4.859   4.232  16.337  0.00  0.00    +0.000 C 
BRANCH  12  13
ATOM     13  C   UNL     1       5.844   4.465  15.331  0.00  0.00    +0.000 A 
ATOM     14  C   UNL     1       5.858   4.032  13.979  0.00  0.00    +0.000 A 
ATOM     15  C   UNL     1       7.025   4.511  13.433  0.00  0.00    +0.000 A 
ATOM     16  O   UNL     1       7.736   5.200  14.363  0.00  0.00    +0.000 OA
ATOM     17  C   UNL     1       7.016   5.164  15.516  0.00  0.00    +0.000 A 
ENDBRANCH  12  13
ENDBRANCH   2  11
TORSDOF 2
ENDMDL
