MODEL 1
REMARK VINA RESULT:      -9.0      0.000      0.000
REMARK  Name = 
REMARK  0 active torsions:
REMARK  status: ('A' for Active; 'I' for Inactive)
REMARK                            x       y       z     vdW  Elec       q    Type
REMARK                         _______ _______ _______ _____ _____    ______ ____
ROOT
ATOM      1  C   UNL     1      -1.687  14.461  22.854  0.00  0.00    +0.000 A 
ATOM      2  C   UNL     1      -2.709  13.611  22.441  0.00  0.00    +0.000 A 
ATOM      3  C   UNL     1      -2.397  12.173  22.117  0.00  0.00    +0.000 A 
ATOM      4  C   UNL     1      -1.037  11.548  22.062  0.00  0.00    +0.000 A 
ATOM      5  C   UNL     1      -0.331  12.754  21.837  0.00  0.00    +0.000 A 
ATOM      6  C   UNL     1      -0.417  13.938  22.681  0.00  0.00    +0.000 A 
ATOM      7  C   UNL     1      -0.455  13.075  20.467  0.00  0.00    +0.000 A 
ATOM      8  C   UNL     1      -1.050  12.115  19.562  0.00  0.00    +0.000 A 
ATOM      9  C   UNL     1      -1.150  10.706  19.871  0.00  0.00    +0.000 A 
ATOM     10  N   UNL     1      -0.729  10.317  21.117  0.00  0.00    +0.000 N 
ATOM     11  C   UNL     1       0.068   8.639  21.528  0.00  0.00    +0.000 C 
ATOM     12  C   UNL     1       0.741   6.905  20.900  0.00  0.00    +0.000 C 
ATOM     13  C   UNL     1       1.916   5.383  21.198  0.00  0.00    +0.000 C 
ATOM     14  C   UNL     1       2.760   3.781  20.671  0.00  0.00    +0.000 C 
ATOM     15  C   UNL     1       3.941   3.232  19.595  0.00  0.00    +0.000 C 
ATOM     16  N   UNL     1       3.820   3.967  18.310  0.00  0.00    +0.000 N 
ATOM     17  C   UNL     1       2.537   4.307  18.034  0.00  0.00    +0.000 A 
ATOM     18  C   UNL     1       2.256   5.617  17.859  0.00  0.00    +0.000 A 
ATOM     19  C   UNL     1       3.335   6.416  17.566  0.00  0.00    +0.000 A 
ATOM     20  C   UNL     1       4.624   5.870  17.336  0.00  0.00    +0.000 A 
ATOM     21  C   UNL     1       5.653   6.695  16.758  0.00  0.00    +0.000 A 
ATOM     22  C   UNL     1       6.919   6.171  16.540  0.00  0.00    +0.000 A 
ATOM     23  C   UNL     1       7.168   4.857  16.929  0.00  0.00    +0.000 A 
ATOM     24  C   UNL     1       6.162   4.077  17.552  0.00  0.00    +0.000 A 
ATOM     25  C   UNL     1       4.871   4.601  17.754  0.00  0.00    +0.000 A 
ATOM     26  N   UNL     1       3.173   7.760  17.399  0.00  0.00    +0.000 N 
ATOM     27  C   UNL     1       2.533   8.439  18.468  0.00  0.00    +0.000 C 
ATOM     28  C   UNL     1       2.226   9.729  17.821  0.00  0.00    +0.000 C 
ATOM     29  C   UNL     1       1.866  10.656  18.901  0.00  0.00    +0.000 C 
ATOM     30  C   UNL     1       1.737  11.990  18.236  0.00  0.00    +0.000 C 
ATOM     31  C   UNL     1       1.889  13.041  19.296  0.00  0.00    +0.000 C 
ATOM     32  C   UNL     1       0.974  14.204  18.920  0.00  0.00    +0.000 C 
ATOM     33  N   UNL     1      -0.046  14.356  19.953  0.00  0.00    +0.000 N 
ATOM     34  H   UNL     1       2.799   7.936  16.469  0.00  0.00    +0.000 HD
ATOM     35  H   UNL     1       0.318  14.998  20.660  0.00  0.00    +0.000 HD
ENDROOT
TORSDOF 0
ENDMDL
MODEL 2
REMARK VINA RESULT:      -7.3      1.017      1.209
REMARK  Name = 
REMARK  0 active torsions:
REMARK  status: ('A' for Active; 'I' for Inactive)
REMARK                            x       y       z     vdW  Elec       q    Type
REMARK                         _______ _______ _______ _____ _____    ______ ____
ROOT
ATOM      1  C   UNL     1      -1.050  16.022  22.576  0.00  0.00    +0.000 A 
ATOM      2  C   UNL     1      -2.162  15.287  22.175  0.00  0.00    +0.000 A 
ATOM      3  C   UNL     1      -2.024  13.810  21.914  0.00  0.00    +0.000 A 
ATOM      4  C   UNL     1      -0.750  13.022  21.912  0.00  0.00    +0.000 A 
ATOM      5  C   UNL     1       0.102  14.122  21.656  0.00  0.00    +0.000 A 
ATOM      6  C   UNL     1       0.148  15.341  22.452  0.00  0.00    +0.000 A 
ATOM      7  C   UNL     1       0.041  14.399  20.272  0.00  0.00    +0.000 A 
ATOM      8  C   UNL     1      -0.653  13.483  19.393  0.00  0.00    +0.000 A 
ATOM      9  C   UNL     1      -0.931  12.110  19.754  0.00  0.00    +0.000 A 
ATOM     10  N   UNL     1      -0.581  11.724  21.023  0.00  0.00    +0.000 N 
ATOM     11  C   UNL     1      -0.004   9.980  21.516  0.00  0.00    +0.000 C 
ATOM     12  C   UNL     1       0.462   8.152  20.971  0.00  0.00    +0.000 C 
ATOM     13  C   UNL     1       1.435   6.512  21.352  0.00  0.00    +0.000 C 
ATOM     14  C   UNL     1       2.085   4.798  20.906  0.00  0.00    +0.000 C 
ATOM     15  C   UNL     1       3.206   4.065  19.877  0.00  0.00    +0.000 C 
ATOM     16  N   UNL     1       3.198   4.756  18.563  0.00  0.00    +0.000 N 
ATOM     17  C   UNL     1       1.971   5.238  18.246  0.00  0.00    +0.000 A 
ATOM     18  C   UNL     1       1.856   6.564  18.015  0.00  0.00    +0.000 A 
ATOM     19  C   UNL     1       3.031   7.213  17.714  0.00  0.00    +0.000 A 
ATOM     20  C   UNL     1       4.246   6.504  17.533  0.00  0.00    +0.000 A 
ATOM     21  C   UNL     1       5.378   7.173  16.945  0.00  0.00    +0.000 A 
ATOM     22  C   UNL     1       6.573   6.490  16.775  0.00  0.00    +0.000 A 
ATOM     23  C   UNL     1       6.652   5.172  17.220  0.00  0.00    +0.000 A 
ATOM     24  C   UNL     1       5.548   4.547  17.851  0.00  0.00    +0.000 A 
ATOM     25  C   UNL     1       4.327   5.233  18.005  0.00  0.00    +0.000 A 
ATOM     26  N   UNL     1       3.038   8.558  17.491  0.00  0.00    +0.000 N 
ATOM     27  C   UNL     1       2.468   9.354  18.519  0.00  0.00    +0.000 C 
ATOM     28  C   UNL     1       2.333  10.644  17.817  0.00  0.00    +0.000 C 
ATOM     29  C   UNL     1       2.072  11.652  18.851  0.00  0.00    +0.000 C 
ATOM     30  C   UNL     1       2.119  12.963  18.133  0.00  0.00    +0.000 C 
ATOM     31  C   UNL     1       2.382  14.030  19.153  0.00  0.00    +0.000 C 
ATOM     32  C   UNL     1       1.623  15.280  18.713  0.00  0.00    +0.000 C 
ATOM     33  N   UNL     1       0.612  15.598  19.717  0.00  0.00    +0.000 N 
ATOM     34  H   UNL     1       2.704   8.740  16.547  0.00  0.00    +0.000 HD
ATOM     35  H   UNL     1       1.041  16.220  20.407  0.00  0.00    +0.000 HD
ENDROOT
TORSDOF 0
ENDMDL
MODEL 3
REMARK VINA RESULT:      -7.1      8.241     12.206
REMARK  Name = 
REMARK  0 active torsions:
REMARK  status: ('A' for Active; 'I' for Inactive)
REMARK                            x       y       z     vdW  Elec       q    Type
REMARK                         _______ _______ _______ _____ _____    ______ ____
ROOT
ATOM      1  C   UNL     1      10.649  11.534  17.499  0.00  0.00    +0.000 A 
ATOM      2  C   UNL     1      11.638  11.720  18.460  0.00  0.00    +0.000 A 
ATOM      3  C   UNL     1      11.250  11.882  19.906  0.00  0.00    +0.000 A 
ATOM      4  C   UNL     1       9.858  11.997  20.447  0.00  0.00    +0.000 A 
ATOM      5  C   UNL     1       9.271  12.453  19.243  0.00  0.00    +0.000 A 
ATOM      6  C   UNL     1       9.366  11.769  17.961  0.00  0.00    +0.000 A 
ATOM      7  C   UNL     1       9.550  13.833  19.125  0.00  0.00    +0.000 A 
ATOM      8  C   UNL     1      10.155  14.534  20.236  0.00  0.00    +0.000 A 
ATOM      9  C   UNL     1      10.117  14.033  21.592  0.00  0.00    +0.000 A 
ATOM     10  N   UNL     1       9.549  12.798  21.777  0.00  0.00    +0.000 N 
ATOM     11  C   UNL     1       8.592  12.254  23.327  0.00  0.00    +0.000 C 
ATOM     12  C   UNL     1       7.852  12.715  25.087  0.00  0.00    +0.000 C 
ATOM     13  C   UNL     1       6.541  12.344  26.476  0.00  0.00    +0.000 C 
ATOM     14  C   UNL     1       5.632  12.740  28.080  0.00  0.00    +0.000 C 
ATOM     15  C   UNL     1       4.522  13.853  28.699  0.00  0.00    +0.000 C 
ATOM     16  N   UNL     1       4.821  15.204  28.160  0.00  0.00    +0.000 N 
ATOM     17  C   UNL     1       6.147  15.386  27.943  0.00  0.00    +0.000 A 
ATOM     18  C   UNL     1       6.543  15.702  26.690  0.00  0.00    +0.000 A 
ATOM     19  C   UNL     1       5.561  16.210  25.873  0.00  0.00    +0.000 A 
ATOM     20  C   UNL     1       4.262  16.500  26.365  0.00  0.00    +0.000 A 
ATOM     21  C   UNL     1       3.359  17.289  25.566  0.00  0.00    +0.000 A 
ATOM     22  C   UNL     1       2.084  17.568  26.035  0.00  0.00    +0.000 A 
ATOM     23  C   UNL     1       1.699  17.037  27.264  0.00  0.00    +0.000 A 
ATOM     24  C   UNL     1       2.579  16.213  28.011  0.00  0.00    +0.000 A 
ATOM     25  C   UNL     1       3.881  15.947  27.545  0.00  0.00    +0.000 A 
ATOM     26  N   UNL     1       5.840  16.536  24.579  0.00  0.00    +0.000 N 
ATOM     27  C   UNL     1       6.425  15.504  23.798  0.00  0.00    +0.000 C 
ATOM     28  C   UNL     1       6.889  16.280  22.633  0.00  0.00    +0.000 C 
ATOM     29  C   UNL     1       7.213  15.302  21.589  0.00  0.00    +0.000 C 
ATOM     30  C   UNL     1       7.507  16.119  20.372  0.00  0.00    +0.000 C 
ATOM     31  C   UNL     1       7.334  15.230  19.176  0.00  0.00    +0.000 C 
ATOM     32  C   UNL     1       8.367  15.658  18.135  0.00  0.00    +0.000 C 
ATOM     33  N   UNL     1       9.292  14.553  17.905  0.00  0.00    +0.000 N 
ATOM     34  H   UNL     1       6.314  17.436  24.558  0.00  0.00    +0.000 HD
ATOM     35  H   UNL     1       8.912  13.979  17.149  0.00  0.00    +0.000 HD
ENDROOT
TORSDOF 0
ENDMDL
MODEL 4
REMARK VINA RESULT:      -6.9      6.469      9.285
REMARK  Name = 
REMARK  0 active torsions:
REMARK  status: ('A' for Active; 'I' for Inactive)
REMARK                            x       y       z     vdW  Elec       q    Type
REMARK                         _______ _______ _______ _____ _____    ______ ____
ROOT
ATOM      1  C   UNL     1      -7.284  12.378  23.809  0.00  0.00    +0.000 A 
ATOM      2  C   UNL     1      -7.521  12.543  22.448  0.00  0.00    +0.000 A 
ATOM      3  C   UNL     1      -6.359  12.716  21.505  0.00  0.00    +0.000 A 
ATOM      4  C   UNL     1      -4.918  12.865  21.887  0.00  0.00    +0.000 A 
ATOM      5  C   UNL     1      -5.162  13.331  23.201  0.00  0.00    +0.000 A 
ATOM      6  C   UNL     1      -5.980  12.643  24.189  0.00  0.00    +0.000 A 
ATOM      7  C   UNL     1      -5.484  14.704  23.115  0.00  0.00    +0.000 A 
ATOM      8  C   UNL     1      -5.331  15.394  21.853  0.00  0.00    +0.000 A 
ATOM      9  C   UNL     1      -4.492  14.896  20.785  0.00  0.00    +0.000 A 
ATOM     10  N   UNL     1      -3.901  13.674  20.985  0.00  0.00    +0.000 N 
ATOM     11  C   UNL     1      -2.203  13.155  20.302  0.00  0.00    +0.000 C 
ATOM     12  C   UNL     1      -0.577  13.635  19.311  0.00  0.00    +0.000 C 
ATOM     13  C   UNL     1       1.307  13.297  18.965  0.00  0.00    +0.000 C 
ATOM     14  C   UNL     1       2.978  13.717  18.199  0.00  0.00    +0.000 C 
ATOM     15  C   UNL     1       4.219  14.856  18.339  0.00  0.00    +0.000 C 
ATOM     16  N   UNL     1       3.633  16.198  18.583  0.00  0.00    +0.000 N 
ATOM     17  C   UNL     1       2.430  16.349  17.975  0.00  0.00    +0.000 A 
ATOM     18  C   UNL     1       1.366  16.654  18.751  0.00  0.00    +0.000 A 
ATOM     19  C   UNL     1       1.669  17.183  19.983  0.00  0.00    +0.000 A 
ATOM     20  C   UNL     1       3.002  17.504  20.347  0.00  0.00    +0.000 A 
ATOM     21  C   UNL     1       3.245  18.311  21.515  0.00  0.00    +0.000 A 
ATOM     22  C   UNL     1       4.546  18.620  21.883  0.00  0.00    +0.000 A 
ATOM     23  C   UNL     1       5.591  18.100  21.123  0.00  0.00    +0.000 A 
ATOM     24  C   UNL     1       5.337  17.258  20.012  0.00  0.00    +0.000 A 
ATOM     25  C   UNL     1       4.016  16.961  19.624  0.00  0.00    +0.000 A 
ATOM     26  N   UNL     1       0.675  17.501  20.860  0.00  0.00    +0.000 N 
ATOM     27  C   UNL     1      -0.238  16.455  21.159  0.00  0.00    +0.000 C 
ATOM     28  C   UNL     1      -1.315  17.217  21.818  0.00  0.00    +0.000 C 
ATOM     29  C   UNL     1      -2.173  16.230  22.483  0.00  0.00    +0.000 C 
ATOM     30  C   UNL     1      -3.143  17.038  23.283  0.00  0.00    +0.000 C 
ATOM     31  C   UNL     1      -3.690  16.152  24.362  0.00  0.00    +0.000 C 
ATOM     32  C   UNL     1      -5.146  16.554  24.590  0.00  0.00    +0.000 C 
ATOM     33  N   UNL     1      -6.007  15.427  24.244  0.00  0.00    +0.000 N 
ATOM     34  H   UNL     1       0.262  18.390  20.587  0.00  0.00    +0.000 HD
ATOM     35  H   UNL     1      -6.134  14.861  25.086  0.00  0.00    +0.000 HD
ENDROOT
TORSDOF 0
ENDMDL
MODEL 5
REMARK VINA RESULT:      -6.4      6.388     11.044
REMARK  Name = 
REMARK  0 active torsions:
REMARK  status: ('A' for Active; 'I' for Inactive)
REMARK                            x       y       z     vdW  Elec       q    Type
REMARK                         _______ _______ _______ _____ _____    ______ ____
ROOT
ATOM      1  C   UNL     1      12.333  16.856  20.774  0.00  0.00    +0.000 A 
ATOM      2  C   UNL     1      11.885  18.062  20.243  0.00  0.00    +0.000 A 
ATOM      3  C   UNL     1      10.416  18.394  20.283  0.00  0.00    +0.000 A 
ATOM      4  C   UNL     1       9.311  17.487  20.731  0.00  0.00    +0.000 A 
ATOM      5  C   UNL     1      10.013  16.279  20.508  0.00  0.00    +0.000 A 
ATOM      6  C   UNL     1      11.320  15.961  21.068  0.00  0.00    +0.000 A 
ATOM      7  C   UNL     1       9.950  15.995  19.126  0.00  0.00    +0.000 A 
ATOM      8  C   UNL     1       9.095  16.792  18.274  0.00  0.00    +0.000 A 
ATOM      9  C   UNL     1       7.997  17.582  18.785  0.00  0.00    +0.000 A 
ATOM     10  N   UNL     1       7.846  17.616  20.148  0.00  0.00    +0.000 N 
ATOM     11  C   UNL     1       6.184  17.767  21.062  0.00  0.00    +0.000 C 
ATOM     12  C   UNL     1       4.225  17.866  20.971  0.00  0.00    +0.000 C 
ATOM     13  C   UNL     1       2.515  17.595  21.858  0.00  0.00    +0.000 C 
ATOM     14  C   UNL     1       0.632  17.503  21.888  0.00  0.00    +0.000 C 
ATOM     15  C   UNL     1      -0.628  16.536  21.310  0.00  0.00    +0.000 C 
ATOM     16  N   UNL     1      -0.307  16.074  19.936  0.00  0.00    +0.000 N 
ATOM     17  C   UNL     1       0.424  16.985  19.248  0.00  0.00    +0.000 A 
ATOM     18  C   UNL     1       1.627  16.597  18.770  0.00  0.00    +0.000 A 
ATOM     19  C   UNL     1       1.806  15.239  18.662  0.00  0.00    +0.000 A 
ATOM     20  C   UNL     1       0.748  14.327  18.912  0.00  0.00    +0.000 A 
ATOM     21  C   UNL     1       0.889  12.949  18.516  0.00  0.00    +0.000 A 
ATOM     22  C   UNL     1      -0.137  12.050  18.766  0.00  0.00    +0.000 A 
ATOM     23  C   UNL     1      -1.269  12.506  19.437  0.00  0.00    +0.000 A 
ATOM     24  C   UNL     1      -1.367  13.851  19.873  0.00  0.00    +0.000 A 
ATOM     25  C   UNL     1      -0.335  14.770  19.601  0.00  0.00    +0.000 A 
ATOM     26  N   UNL     1       2.993  14.733  18.219  0.00  0.00    +0.000 N 
ATOM     27  C   UNL     1       4.147  15.169  18.922  0.00  0.00    +0.000 C 
ATOM     28  C   UNL     1       5.207  14.728  17.997  0.00  0.00    +0.000 C 
ATOM     29  C   UNL     1       6.467  14.807  18.745  0.00  0.00    +0.000 C 
ATOM     30  C   UNL     1       7.490  14.189  17.846  0.00  0.00    +0.000 C 
ATOM     31  C   UNL     1       8.646  13.762  18.701  0.00  0.00    +0.000 C 
ATOM     32  C   UNL     1       9.918  13.957  17.878  0.00  0.00    +0.000 C 
ATOM     33  N   UNL     1      10.754  14.960  18.531  0.00  0.00    +0.000 N 
ATOM     34  H   UNL     1       3.030  14.811  17.206  0.00  0.00    +0.000 HD
ATOM     35  H   UNL     1      11.370  14.474  19.188  0.00  0.00    +0.000 HD
ENDROOT
TORSDOF 0
ENDMDL
MODEL 6
REMARK VINA RESULT:      -6.4      6.029      9.647
REMARK  Name = 
REMARK  0 active torsions:
REMARK  status: ('A' for Active; 'I' for Inactive)
REMARK                            x       y       z     vdW  Elec       q    Type
REMARK                         _______ _______ _______ _____ _____    ______ ____
ROOT
ATOM      1  C   UNL     1       5.112  15.650  22.166  0.00  0.00    +0.000 A 
ATOM      2  C   UNL     1       4.410  16.852  22.134  0.00  0.00    +0.000 A 
ATOM      3  C   UNL     1       2.923  16.853  22.370  0.00  0.00    +0.000 A 
ATOM      4  C   UNL     1       2.044  15.648  22.518  0.00  0.00    +0.000 A 
ATOM      5  C   UNL     1       2.904  14.756  21.834  0.00  0.00    +0.000 A 
ATOM      6  C   UNL     1       4.302  14.527  22.169  0.00  0.00    +0.000 A 
ATOM      7  C   UNL     1       2.721  14.962  20.449  0.00  0.00    +0.000 A 
ATOM      8  C   UNL     1       1.650  15.820  19.992  0.00  0.00    +0.000 A 
ATOM      9  C   UNL     1       0.507  16.151  20.814  0.00  0.00    +0.000 A 
ATOM     10  N   UNL     1       0.518  15.680  22.102  0.00  0.00    +0.000 N 
ATOM     11  C   UNL     1      -1.023  15.175  23.096  0.00  0.00    +0.000 C 
ATOM     12  C   UNL     1      -2.968  14.911  23.153  0.00  0.00    +0.000 C 
ATOM     13  C   UNL     1      -4.490  14.019  23.972  0.00  0.00    +0.000 C 
ATOM     14  C   UNL     1      -6.315  13.553  24.069  0.00  0.00    +0.000 C 
ATOM     15  C   UNL     1      -7.459  12.618  23.248  0.00  0.00    +0.000 C 
ATOM     16  N   UNL     1      -7.235  12.734  21.785  0.00  0.00    +0.000 N 
ATOM     17  C   UNL     1      -6.753  13.952  21.436  0.00  0.00    +0.000 A 
ATOM     18  C   UNL     1      -5.569  13.998  20.786  0.00  0.00    +0.000 A 
ATOM     19  C   UNL     1      -5.183  12.825  20.183  0.00  0.00    +0.000 A 
ATOM     20  C   UNL     1      -6.039  11.694  20.142  0.00  0.00    +0.000 A 
ATOM     21  C   UNL     1      -5.722  10.595  19.265  0.00  0.00    +0.000 A 
ATOM     22  C   UNL     1      -6.548   9.481  19.228  0.00  0.00    +0.000 A 
ATOM     23  C   UNL     1      -7.651   9.444  20.078  0.00  0.00    +0.000 A 
ATOM     24  C   UNL     1      -7.915  10.508  20.977  0.00  0.00    +0.000 A 
ATOM     25  C   UNL     1      -7.089  11.648  21.002  0.00  0.00    +0.000 A 
ATOM     26  N   UNL     1      -3.992  12.747  19.523  0.00  0.00    +0.000 N 
ATOM     27  C   UNL     1      -2.849  13.131  20.273  0.00  0.00    +0.000 C 
ATOM     28  C   UNL     1      -1.850  13.256  19.195  0.00  0.00    +0.000 C 
ATOM     29  C   UNL     1      -0.539  13.318  19.852  0.00  0.00    +0.000 C 
ATOM     30  C   UNL     1       0.455  13.264  18.736  0.00  0.00    +0.000 C 
ATOM     31  C   UNL     1       1.760  12.804  19.313  0.00  0.00    +0.000 C 
ATOM     32  C   UNL     1       2.874  13.518  18.550  0.00  0.00    +0.000 C 
ATOM     33  N   UNL     1       3.607  14.376  19.476  0.00  0.00    +0.000 N 
ATOM     34  H   UNL     1      -4.091  13.178  18.607  0.00  0.00    +0.000 HD
ATOM     35  H   UNL     1       4.369  13.825  19.878  0.00  0.00    +0.000 HD
ENDROOT
TORSDOF 0
ENDMDL
MODEL 7
REMARK VINA RESULT:      -6.2      1.224      9.707
REMARK  Name = 
REMARK  0 active torsions:
REMARK  status: ('A' for Active; 'I' for Inactive)
REMARK                            x       y       z     vdW  Elec       q    Type
REMARK                         _______ _______ _______ _____ _____    ______ ____
ROOT
ATOM      1  C   UNL     1       5.951   4.006  17.946  0.00  0.00    +0.000 A 
ATOM      2  C   UNL     1       5.277   4.306  16.766  0.00  0.00    +0.000 A 
ATOM      3  C   UNL     1       4.623   5.654  16.603  0.00  0.00    +0.000 A 
ATOM      4  C   UNL     1       4.496   6.714  17.654  0.00  0.00    +0.000 A 
ATOM      5  C   UNL     1       4.624   5.840  18.760  0.00  0.00    +0.000 A 
ATOM      6  C   UNL     1       5.731   4.916  18.965  0.00  0.00    +0.000 A 
ATOM      7  C   UNL     1       3.373   5.216  18.960  0.00  0.00    +0.000 A 
ATOM      8  C   UNL     1       2.222   5.670  18.210  0.00  0.00    +0.000 A 
ATOM      9  C   UNL     1       2.161   6.972  17.582  0.00  0.00    +0.000 A 
ATOM     10  N   UNL     1       3.294   7.743  17.652  0.00  0.00    +0.000 N 
ATOM     11  C   UNL     1       3.320   9.642  17.745  0.00  0.00    +0.000 C 
ATOM     12  C   UNL     1       2.320  11.329  17.860  0.00  0.00    +0.000 C 
ATOM     13  C   UNL     1       2.298  13.204  18.375  0.00  0.00    +0.000 C 
ATOM     14  C   UNL     1       1.440  14.856  18.678  0.00  0.00    +0.000 C 
ATOM     15  C   UNL     1       0.335  15.566  19.741  0.00  0.00    +0.000 C 
ATOM     16  N   UNL     1      -0.730  14.586  20.075  0.00  0.00    +0.000 N 
ATOM     17  C   UNL     1      -0.990  13.743  19.046  0.00  0.00    +0.000 A 
ATOM     18  C   UNL     1      -0.848  12.417  19.267  0.00  0.00    +0.000 A 
ATOM     19  C   UNL     1      -0.865  12.035  20.588  0.00  0.00    +0.000 A 
ATOM     20  C   UNL     1      -1.145  12.962  21.625  0.00  0.00    +0.000 A 
ATOM     21  C   UNL     1      -1.434  12.477  22.951  0.00  0.00    +0.000 A 
ATOM     22  C   UNL     1      -1.698  13.377  23.973  0.00  0.00    +0.000 A 
ATOM     23  C   UNL     1      -1.637  14.739  23.689  0.00  0.00    +0.000 A 
ATOM     24  C   UNL     1      -1.292  15.200  22.394  0.00  0.00    +0.000 A 
ATOM     25  C   UNL     1      -1.044  14.288  21.351  0.00  0.00    +0.000 A 
ATOM     26  N   UNL     1      -0.700  10.726  20.929  0.00  0.00    +0.000 N 
ATOM     27  C   UNL     1       0.464  10.098  20.413  0.00  0.00    +0.000 C 
ATOM     28  C   UNL     1       0.143   8.682  20.673  0.00  0.00    +0.000 C 
ATOM     29  C   UNL     1       1.396   7.937  20.502  0.00  0.00    +0.000 C 
ATOM     30  C   UNL     1       1.080   6.544  20.944  0.00  0.00    +0.000 C 
ATOM     31  C   UNL     1       2.376   5.874  21.293  0.00  0.00    +0.000 C 
ATOM     32  C   UNL     1       2.248   4.402  20.905  0.00  0.00    +0.000 C 
ATOM     33  N   UNL     1       3.222   4.102  19.860  0.00  0.00    +0.000 N 
ATOM     34  H   UNL     1      -1.578  10.231  20.782  0.00  0.00    +0.000 HD
ATOM     35  H   UNL     1       4.088   3.806  20.315  0.00  0.00    +0.000 HD
ENDROOT
TORSDOF 0
ENDMDL
MODEL 8
REMARK VINA RESULT:      -6.2      1.738      4.206
REMARK  Name = 
REMARK  0 active torsions:
REMARK  status: ('A' for Active; 'I' for Inactive)
REMARK                            x       y       z     vdW  Elec       q    Type
REMARK                         _______ _______ _______ _____ _____    ______ ____
ROOT
ATOM      1  C   UNL     1      -0.699  15.941  19.212  0.00  0.00    +0.000 A 
ATOM      2  C   UNL     1       0.672  16.039  19.434  0.00  0.00    +0.000 A 
ATOM      3  C   UNL     1       1.562  14.865  19.124  0.00  0.00    +0.000 A 
ATOM      4  C   UNL     1       1.118  13.497  18.704  0.00  0.00    +0.000 A 
ATOM      5  C   UNL     1      -0.184  13.591  19.251  0.00  0.00    +0.000 A 
ATOM      6  C   UNL     1      -1.135  14.653  18.953  0.00  0.00    +0.000 A 
ATOM      7  C   UNL     1      -0.084  13.348  20.639  0.00  0.00    +0.000 A 
ATOM      8  C   UNL     1       1.170  12.887  21.192  0.00  0.00    +0.000 A 
ATOM      9  C   UNL     1       2.201  12.267  20.389  0.00  0.00    +0.000 A 
ATOM     10  N   UNL     1       1.975  12.209  19.037  0.00  0.00    +0.000 N 
ATOM     11  C   UNL     1       2.583  10.823  17.885  0.00  0.00    +0.000 C 
ATOM     12  C   UNL     1       3.503   9.101  17.675  0.00  0.00    +0.000 C 
ATOM     13  C   UNL     1       3.767   7.486  16.623  0.00  0.00    +0.000 C 
ATOM     14  C   UNL     1       4.458   5.755  16.343  0.00  0.00    +0.000 C 
ATOM     15  C   UNL     1       4.264   4.175  16.909  0.00  0.00    +0.000 C 
ATOM     16  N   UNL     1       4.046   4.198  18.378  0.00  0.00    +0.000 N 
ATOM     17  C   UNL     1       4.705   5.221  18.976  0.00  0.00    +0.000 A 
ATOM     18  C   UNL     1       3.977   6.111  19.685  0.00  0.00    +0.000 A 
ATOM     19  C   UNL     1       2.733   5.675  20.075  0.00  0.00    +0.000 A 
ATOM     20  C   UNL     1       2.311   4.339  19.856  0.00  0.00    +0.000 A 
ATOM     21  C   UNL     1       1.133   3.847  20.523  0.00  0.00    +0.000 A 
ATOM     22  C   UNL     1       0.708   2.544  20.306  0.00  0.00    +0.000 A 
ATOM     23  C   UNL     1       1.422   1.756  19.406  0.00  0.00    +0.000 A 
ATOM     24  C   UNL     1       2.544   2.274  18.712  0.00  0.00    +0.000 A 
ATOM     25  C   UNL     1       2.989   3.589  18.948  0.00  0.00    +0.000 A 
ATOM     26  N   UNL     1       1.899   6.501  20.770  0.00  0.00    +0.000 N 
ATOM     27  C   UNL     1       1.641   7.761  20.169  0.00  0.00    +0.000 C 
ATOM     28  C   UNL     1       1.030   8.479  21.302  0.00  0.00    +0.000 C 
ATOM     29  C   UNL     1       0.403   9.681  20.739  0.00  0.00    +0.000 C 
ATOM     30  C   UNL     1      -0.355  10.290  21.876  0.00  0.00    +0.000 C 
ATOM     31  C   UNL     1      -1.409  11.183  21.292  0.00  0.00    +0.000 C 
ATOM     32  C   UNL     1      -1.573  12.373  22.234  0.00  0.00    +0.000 C 
ATOM     33  N   UNL     1      -1.190  13.592  21.528  0.00  0.00    +0.000 N 
ATOM     34  H   UNL     1       2.190   6.522  21.745  0.00  0.00    +0.000 HD
ATOM     35  H   UNL     1      -2.025  13.964  21.070  0.00  0.00    +0.000 HD
ENDROOT
TORSDOF 0
ENDMDL
MODEL 9
REMARK VINA RESULT:      -6.0      6.827      8.553
REMARK  Name = 
REMARK  0 active torsions:
REMARK  status: ('A' for Active; 'I' for Inactive)
REMARK                            x       y       z     vdW  Elec       q    Type
REMARK                         _______ _______ _______ _____ _____    ______ ____
ROOT
ATOM      1  C   UNL     1      -2.655  16.264  21.329  0.00  0.00    +0.000 A 
ATOM      2  C   UNL     1      -2.413  14.894  21.279  0.00  0.00    +0.000 A 
ATOM      3  C   UNL     1      -1.007  14.379  21.442  0.00  0.00    +0.000 A 
ATOM      4  C   UNL     1       0.239  15.206  21.529  0.00  0.00    +0.000 A 
ATOM      5  C   UNL     1      -0.293  16.343  20.876  0.00  0.00    +0.000 A 
ATOM      6  C   UNL     1      -1.509  17.039  21.277  0.00  0.00    +0.000 A 
ATOM      7  C   UNL     1      -0.265  16.091  19.486  0.00  0.00    +0.000 A 
ATOM      8  C   UNL     1       0.420  14.918  18.989  0.00  0.00    +0.000 A 
ATOM      9  C   UNL     1       1.420  14.210  19.758  0.00  0.00    +0.000 A 
ATOM     10  N   UNL     1       1.638  14.651  21.039  0.00  0.00    +0.000 N 
ATOM     11  C   UNL     1       3.307  14.590  21.949  0.00  0.00    +0.000 C 
ATOM     12  C   UNL     1       5.224  14.166  21.906  0.00  0.00    +0.000 C 
ATOM     13  C   UNL     1       7.000  14.475  22.636  0.00  0.00    +0.000 C 
ATOM     14  C   UNL     1       8.876  14.283  22.636  0.00  0.00    +0.000 C 
ATOM     15  C   UNL     1      10.228  14.768  21.747  0.00  0.00    +0.000 C 
ATOM     16  N   UNL     1       9.904  14.742  20.298  0.00  0.00    +0.000 N 
ATOM     17  C   UNL     1       9.014  13.767  19.991  0.00  0.00    +0.000 A 
ATOM     18  C   UNL     1       7.855  14.134  19.400  0.00  0.00    +0.000 A 
ATOM     19  C   UNL     1       7.867  15.371  18.800  0.00  0.00    +0.000 A 
ATOM     20  C   UNL     1       9.057  16.137  18.701  0.00  0.00    +0.000 A 
ATOM     21  C   UNL     1       9.094  17.281  17.826  0.00  0.00    +0.000 A 
ATOM     22  C   UNL     1      10.250  18.041  17.731  0.00  0.00    +0.000 A 
ATOM     23  C   UNL     1      11.340  17.692  18.525  0.00  0.00    +0.000 A 
ATOM     24  C   UNL     1      11.267  16.600  19.426  0.00  0.00    +0.000 A 
ATOM     25  C   UNL     1      10.101  15.815  19.507  0.00  0.00    +0.000 A 
ATOM     26  N   UNL     1       6.744  15.857  18.199  0.00  0.00    +0.000 N 
ATOM     27  C   UNL     1       5.578  15.888  19.010  0.00  0.00    +0.000 C 
ATOM     28  C   UNL     1       4.544  16.119  17.984  0.00  0.00    +0.000 C 
ATOM     29  C   UNL     1       3.328  16.511  18.706  0.00  0.00    +0.000 C 
ATOM     30  C   UNL     1       2.358  16.909  17.640  0.00  0.00    +0.000 C 
ATOM     31  C   UNL     1       1.322  17.789  18.274  0.00  0.00    +0.000 C 
ATOM     32  C   UNL     1      -0.007  17.506  17.577  0.00  0.00    +0.000 C 
ATOM     33  N   UNL     1      -0.943  16.950  18.551  0.00  0.00    +0.000 N 
ATOM     34  H   UNL     1       6.641  15.422  17.285  0.00  0.00    +0.000 HD
ATOM     35  H   UNL     1      -1.446  17.729  18.981  0.00  0.00    +0.000 HD
ENDROOT
TORSDOF 0
ENDMDL
