MODEL 1
REMARK VINA RESULT:      -6.8      0.000      0.000
REMARK  Name = 
REMARK  9 active torsions:
REMARK  status: ('A' for Active; 'I' for Inactive)
REMARK    1  A    between atoms: C_1  and  N_2
REMARK    2  A    between atoms: N_2  and  C_3
REMARK    3  A    between atoms: N_2  and  C_4
REMARK    4  A    between atoms: C_4  and  C_5
REMARK    5  A    between atoms: C_7  and  C_8
REMARK    6  A    between atoms: N_13  and  S_14
REMARK    7  A    between atoms: S_14  and  C_17
REMARK    8  A    between atoms: C_17  and  C_18
REMARK    9  A    between atoms: N_25  and  C_26
REMARK                            x       y       z     vdW  Elec       q    Type
REMARK                         _______ _______ _______ _____ _____    ______ ____
ROOT
ATOM      1  C   UNL     1       2.706   4.584  18.184  0.00  0.00    +0.000 C 
ATOM      2  C   UNL     1       1.502   3.691  18.553  0.00  0.00    +0.000 C 
ATOM      3  C   UNL     1       1.743   2.255  18.089  0.00  0.00    +0.000 C 
ATOM      4  C   UNL     1       3.039   1.734  18.703  0.00  0.00    +0.000 C 
ATOM      5  C   UNL     1       4.199   2.658  18.328  0.00  0.00    +0.000 C 
ATOM      6  N   UNL     1       3.944   4.038  18.800  0.00  0.00    +0.000 NA
ENDROOT
BRANCH   1   9
ATOM      7  C   UNL     1       1.971   7.761  19.873  0.00  0.00    +0.000 A 
ATOM      8  C   UNL     1       2.165   6.394  19.955  0.00  0.00    +0.000 A 
ATOM      9  C   UNL     1       2.411   5.992  18.650  0.00  0.00    +0.000 A 
ATOM     10  N   UNL     1       2.372   7.067  17.835  0.00  0.00    +0.000 NA
ATOM     11  N   UNL     1       2.113   8.129  18.585  0.00  0.00    +0.000 N 
ATOM     12  C   UNL     1       2.013   9.479  18.049  0.00  0.00    +0.000 C 
BRANCH   7  13
ATOM     13  C   UNL     1       1.673   8.696  21.025  0.00  0.00    +0.000 C 
BRANCH  13  15
ATOM     14  C   UNL     1      -0.544   8.588  22.057  0.00  0.00    +0.000 C 
ATOM     15  N   UNL     1       0.280   9.200  21.002  0.00  0.00    +0.000 NA
ATOM     16  C   UNL     1       0.268  10.662  21.176  0.00  0.00    +0.000 C 
ENDBRANCH  13  15
ENDBRANCH   7  13
ENDBRANCH   1   9
BRANCH   6  17
ATOM     17  S   UNL     1       5.373   5.060  18.436  0.00  0.00    +0.000 S 
ATOM     18  O   UNL     1       5.665   5.884  19.702  0.00  0.00    +0.000 OA
ATOM     19  O   UNL     1       6.579   4.106  18.410  0.00  0.00    +0.000 OA
BRANCH  17  20
ATOM     20  C   UNL     1       5.287   6.113  16.958  0.00  0.00    +0.000 C 
BRANCH  20  21
ATOM     21  C   UNL     1       5.729   5.382  15.719  0.00  0.00    +0.000 A 
ATOM     22  C   UNL     1       7.022   5.564  15.203  0.00  0.00    +0.000 A 
ATOM     23  C   UNL     1       7.424   4.879  14.052  0.00  0.00    +0.000 A 
ATOM     24  C   UNL     1       6.541   4.006  13.410  0.00  0.00    +0.000 A 
ATOM     25  C   UNL     1       5.258   3.812  13.921  0.00  0.00    +0.000 A 
ATOM     26  C   UNL     1       4.854   4.493  15.071  0.00  0.00    +0.000 A 
ENDBRANCH  20  21
ENDBRANCH  17  20
ENDBRANCH   6  17
TORSDOF 6
ENDMDL
MODEL 2
REMARK VINA RESULT:      -6.7      1.042      1.633
REMARK  Name = 
REMARK  9 active torsions:
REMARK  status: ('A' for Active; 'I' for Inactive)
REMARK    1  A    between atoms: C_1  and  N_2
REMARK    2  A    between atoms: N_2  and  C_3
REMARK    3  A    between atoms: N_2  and  C_4
REMARK    4  A    between atoms: C_4  and  C_5
REMARK    5  A    between atoms: C_7  and  C_8
REMARK    6  A    between atoms: N_13  and  S_14
REMARK    7  A    between atoms: S_14  and  C_17
REMARK    8  A    between atoms: C_17  and  C_18
REMARK    9  A    between atoms: N_25  and  C_26
REMARK                            x       y       z     vdW  Elec       q    Type
REMARK                         _______ _______ _______ _____ _____    ______ ____
ROOT
ATOM      1  C   UNL     1       2.732   4.657  18.129  0.00  0.00    +0.000 C 
ATOM      2  C   UNL     1       1.517   3.763  18.459  0.00  0.00    +0.000 C 
ATOM      3  C   UNL     1       1.759   2.336  17.969  0.00  0.00    +0.000 C 
ATOM      4  C   UNL     1       3.042   1.795  18.593  0.00  0.00    +0.000 C 
ATOM      5  C   UNL     1       4.212   2.721  18.257  0.00  0.00    +0.000 C 
ATOM      6  N   UNL     1       3.957   4.092  18.753  0.00  0.00    +0.000 NA
ENDROOT
BRANCH   1   9
ATOM      7  C   UNL     1       2.040   8.213  18.736  0.00  0.00    +0.000 A 
ATOM      8  C   UNL     1       2.337   7.200  17.842  0.00  0.00    +0.000 A 
ATOM      9  C   UNL     1       2.436   6.057  18.620  0.00  0.00    +0.000 A 
ATOM     10  N   UNL     1       2.203   6.373  19.911  0.00  0.00    +0.000 NA
ATOM     11  N   UNL     1       1.958   7.674  19.967  0.00  0.00    +0.000 N 
ATOM     12  C   UNL     1       1.644   8.375  21.205  0.00  0.00    +0.000 C 
BRANCH   7  13
ATOM     13  C   UNL     1       1.820   9.672  18.399  0.00  0.00    +0.000 C 
BRANCH  13  15
ATOM     14  C   UNL     1       0.542  11.608  19.179  0.00  0.00    +0.000 C 
ATOM     15  N   UNL     1       0.505  10.170  18.867  0.00  0.00    +0.000 NA
ATOM     16  C   UNL     1      -0.522   9.931  17.840  0.00  0.00    +0.000 C 
ENDBRANCH  13  15
ENDBRANCH   7  13
ENDBRANCH   1   9
BRANCH   6  17
ATOM     17  S   UNL     1       5.397   5.114  18.435  0.00  0.00    +0.000 S 
ATOM     18  O   UNL     1       5.649   5.937  19.711  0.00  0.00    +0.000 OA
ATOM     19  O   UNL     1       6.602   4.160  18.446  0.00  0.00    +0.000 OA
BRANCH  17  20
ATOM     20  C   UNL     1       5.357   6.168  16.957  0.00  0.00    +0.000 C 
BRANCH  20  21
ATOM     21  C   UNL     1       5.769   5.418  15.719  0.00  0.00    +0.000 A 
ATOM     22  C   UNL     1       7.066   5.551  15.198  0.00  0.00    +0.000 A 
ATOM     23  C   UNL     1       7.439   4.847  14.049  0.00  0.00    +0.000 A 
ATOM     24  C   UNL     1       6.523   4.006  13.412  0.00  0.00    +0.000 A 
ATOM     25  C   UNL     1       5.234   3.862  13.926  0.00  0.00    +0.000 A 
ATOM     26  C   UNL     1       4.860   4.560  15.076  0.00  0.00    +0.000 A 
ENDBRANCH  20  21
ENDBRANCH  17  20
ENDBRANCH   6  17
TORSDOF 6
ENDMDL
MODEL 3
REMARK VINA RESULT:      -6.6      2.885      4.874
REMARK  Name = 
REMARK  9 active torsions:
REMARK  status: ('A' for Active; 'I' for Inactive)
REMARK    1  A    between atoms: C_1  and  N_2
REMARK    2  A    between atoms: N_2  and  C_3
REMARK    3  A    between atoms: N_2  and  C_4
REMARK    4  A    between atoms: C_4  and  C_5
REMARK    5  A    between atoms: C_7  and  C_8
REMARK    6  A    between atoms: N_13  and  S_14
REMARK    7  A    between atoms: S_14  and  C_17
REMARK    8  A    between atoms: C_17  and  C_18
REMARK    9  A    between atoms: N_25  and  C_26
REMARK                            x       y       z     vdW  Elec       q    Type
REMARK                         _______ _______ _______ _____ _____    ______ ____
ROOT
ATOM      1  C   UNL     1       6.298   5.317  18.625  0.00  0.00    +0.000 C 
ATOM      2  C   UNL     1       7.189   5.763  19.804  0.00  0.00    +0.000 C 
ATOM      3  C   UNL     1       8.515   6.322  19.285  0.00  0.00    +0.000 C 
ATOM      4  C   UNL     1       8.238   7.472  18.321  0.00  0.00    +0.000 C 
ATOM      5  C   UNL     1       7.337   6.990  17.183  0.00  0.00    +0.000 C 
ATOM      6  N   UNL     1       6.058   6.465  17.713  0.00  0.00    +0.000 NA
ENDROOT
BRANCH   1   9
ATOM      7  C   UNL     1       3.400   3.423  19.853  0.00  0.00    +0.000 A 
ATOM      8  C   UNL     1       4.637   3.425  19.234  0.00  0.00    +0.000 A 
ATOM      9  C   UNL     1       5.010   4.761  19.191  0.00  0.00    +0.000 A 
ATOM     10  N   UNL     1       4.046   5.513  19.762  0.00  0.00    +0.000 NA
ATOM     11  N   UNL     1       3.084   4.695  20.163  0.00  0.00    +0.000 N 
ATOM     12  C   UNL     1       1.880   5.151  20.844  0.00  0.00    +0.000 C 
BRANCH   7  13
ATOM     13  C   UNL     1       2.550   2.208  20.155  0.00  0.00    +0.000 C 
BRANCH  13  15
ATOM     14  C   UNL     1       0.459   2.521  18.921  0.00  0.00    +0.000 C 
ATOM     15  N   UNL     1       1.731   1.785  18.995  0.00  0.00    +0.000 NA
ATOM     16  C   UNL     1       2.478   1.997  17.744  0.00  0.00    +0.000 C 
ENDBRANCH  13  15
ENDBRANCH   7  13
ENDBRANCH   1   9
BRANCH   6  17
ATOM     17  S   UNL     1       4.992   6.013  16.342  0.00  0.00    +0.000 S 
ATOM     18  O   UNL     1       3.551   6.336  16.774  0.00  0.00    +0.000 OA
ATOM     19  O   UNL     1       5.228   7.075  15.256  0.00  0.00    +0.000 OA
BRANCH  17  20
ATOM     20  C   UNL     1       5.134   4.320  15.702  0.00  0.00    +0.000 C 
BRANCH  20  21
ATOM     21  C   UNL     1       5.851   4.276  14.380  0.00  0.00    +0.000 A 
ATOM     22  C   UNL     1       7.069   4.951  14.202  0.00  0.00    +0.000 A 
ATOM     23  C   UNL     1       7.729   4.902  12.971  0.00  0.00    +0.000 A 
ATOM     24  C   UNL     1       7.181   4.177  11.909  0.00  0.00    +0.000 A 
ATOM     25  C   UNL     1       5.976   3.496  12.078  0.00  0.00    +0.000 A 
ATOM     26  C   UNL     1       5.316   3.541  13.308  0.00  0.00    +0.000 A 
ENDBRANCH  20  21
ENDBRANCH  17  20
ENDBRANCH   6  17
TORSDOF 6
ENDMDL
MODEL 4
REMARK VINA RESULT:      -6.3      2.086      6.735
REMARK  Name = 
REMARK  9 active torsions:
REMARK  status: ('A' for Active; 'I' for Inactive)
REMARK    1  A    between atoms: C_1  and  N_2
REMARK    2  A    between atoms: N_2  and  C_3
REMARK    3  A    between atoms: N_2  and  C_4
REMARK    4  A    between atoms: C_4  and  C_5
REMARK    5  A    between atoms: C_7  and  C_8
REMARK    6  A    between atoms: N_13  and  S_14
REMARK    7  A    between atoms: S_14  and  C_17
REMARK    8  A    between atoms: C_17  and  C_18
REMARK    9  A    between atoms: N_25  and  C_26
REMARK                            x       y       z     vdW  Elec       q    Type
REMARK                         _______ _______ _______ _____ _____    ______ ____
ROOT
ATOM      1  C   UNL     1       3.229   3.337  18.719  0.00  0.00    +0.000 C 
ATOM      2  C   UNL     1       2.752   2.045  18.022  0.00  0.00    +0.000 C 
ATOM      3  C   UNL     1       1.565   1.443  18.774  0.00  0.00    +0.000 C 
ATOM      4  C   UNL     1       0.447   2.477  18.869  0.00  0.00    +0.000 C 
ATOM      5  C   UNL     1       0.970   3.745  19.547  0.00  0.00    +0.000 C 
ATOM      6  N   UNL     1       2.110   4.312  18.792  0.00  0.00    +0.000 NA
ENDROOT
BRANCH   1   9
ATOM      7  C   UNL     1       5.689   4.788  16.409  0.00  0.00    +0.000 A 
ATOM      8  C   UNL     1       4.382   4.417  16.667  0.00  0.00    +0.000 A 
ATOM      9  C   UNL     1       4.410   3.882  17.946  0.00  0.00    +0.000 A 
ATOM     10  N   UNL     1       5.670   3.939  18.428  0.00  0.00    +0.000 NA
ATOM     11  N   UNL     1       6.430   4.493  17.495  0.00  0.00    +0.000 N 
ATOM     12  C   UNL     1       7.856   4.735  17.668  0.00  0.00    +0.000 C 
BRANCH   7  13
ATOM     13  C   UNL     1       6.206   5.435  15.143  0.00  0.00    +0.000 C 
BRANCH  13  15
ATOM     14  C   UNL     1       5.844   3.737  13.417  0.00  0.00    +0.000 C 
ATOM     15  N   UNL     1       6.840   4.459  14.225  0.00  0.00    +0.000 NA
ATOM     16  C   UNL     1       7.776   5.148  13.322  0.00  0.00    +0.000 C 
ENDBRANCH  13  15
ENDBRANCH   7  13
ENDBRANCH   1   9
BRANCH   6  17
ATOM     17  S   UNL     1       2.620   5.852  19.559  0.00  0.00    +0.000 S 
ATOM     18  O   UNL     1       1.657   6.105  20.732  0.00  0.00    +0.000 OA
ATOM     19  O   UNL     1       3.929   5.540  20.303  0.00  0.00    +0.000 OA
BRANCH  17  20
ATOM     20  C   UNL     1       2.762   7.309  18.484  0.00  0.00    +0.000 C 
BRANCH  20  21
ATOM     21  C   UNL     1       1.773   8.381  18.854  0.00  0.00    +0.000 A 
ATOM     22  C   UNL     1       1.532   8.700  20.199  0.00  0.00    +0.000 A 
ATOM     23  C   UNL     1       0.613   9.700  20.533  0.00  0.00    +0.000 A 
ATOM     24  C   UNL     1      -0.070  10.389  19.528  0.00  0.00    +0.000 A 
ATOM     25  C   UNL     1       0.169  10.085  18.188  0.00  0.00    +0.000 A 
ATOM     26  C   UNL     1       1.088   9.089  17.851  0.00  0.00    +0.000 A 
ENDBRANCH  20  21
ENDBRANCH  17  20
ENDBRANCH   6  17
TORSDOF 6
ENDMDL
MODEL 5
REMARK VINA RESULT:      -6.1      3.217      4.885
REMARK  Name = 
REMARK  9 active torsions:
REMARK  status: ('A' for Active; 'I' for Inactive)
REMARK    1  A    between atoms: C_1  and  N_2
REMARK    2  A    between atoms: N_2  and  C_3
REMARK    3  A    between atoms: N_2  and  C_4
REMARK    4  A    between atoms: C_4  and  C_5
REMARK    5  A    between atoms: C_7  and  C_8
REMARK    6  A    between atoms: N_13  and  S_14
REMARK    7  A    between atoms: S_14  and  C_17
REMARK    8  A    between atoms: C_17  and  C_18
REMARK    9  A    between atoms: N_25  and  C_26
REMARK                            x       y       z     vdW  Elec       q    Type
REMARK                         _______ _______ _______ _____ _____    ______ ____
ROOT
ATOM      1  C   UNL     1       6.563   5.500  18.445  0.00  0.00    +0.000 C 
ATOM      2  C   UNL     1       7.443   6.013  19.604  0.00  0.00    +0.000 C 
ATOM      3  C   UNL     1       8.617   6.827  19.060  0.00  0.00    +0.000 C 
ATOM      4  C   UNL     1       8.087   7.975  18.206  0.00  0.00    +0.000 C 
ATOM      5  C   UNL     1       7.205   7.423  17.085  0.00  0.00    +0.000 C 
ATOM      6  N   UNL     1       6.072   6.650  17.640  0.00  0.00    +0.000 NA
ENDROOT
BRANCH   1   9
ATOM      7  C   UNL     1       3.523   4.072  19.933  0.00  0.00    +0.000 A 
ATOM      8  C   UNL     1       4.230   5.189  19.526  0.00  0.00    +0.000 A 
ATOM      9  C   UNL     1       5.428   4.692  19.035  0.00  0.00    +0.000 A 
ATOM     10  N   UNL     1       5.431   3.346  19.138  0.00  0.00    +0.000 NA
ATOM     11  N   UNL     1       4.275   2.984  19.675  0.00  0.00    +0.000 N 
ATOM     12  C   UNL     1       3.911   1.595  19.923  0.00  0.00    +0.000 C 
BRANCH   7  13
ATOM     13  C   UNL     1       2.139   4.058  20.542  0.00  0.00    +0.000 C 
BRANCH  13  15
ATOM     14  C   UNL     1       1.535   4.197  18.174  0.00  0.00    +0.000 C 
ATOM     15  N   UNL     1       1.075   3.859  19.530  0.00  0.00    +0.000 NA
ATOM     16  C   UNL     1       0.619   2.459  19.544  0.00  0.00    +0.000 C 
ENDBRANCH  13  15
ENDBRANCH   7  13
ENDBRANCH   1   9
BRANCH   6  17
ATOM     17  S   UNL     1       5.007   6.114  16.298  0.00  0.00    +0.000 S 
ATOM     18  O   UNL     1       3.561   6.407  16.734  0.00  0.00    +0.000 OA
ATOM     19  O   UNL     1       5.199   7.143  15.172  0.00  0.00    +0.000 OA
BRANCH  17  20
ATOM     20  C   UNL     1       5.198   4.404  15.718  0.00  0.00    +0.000 C 
BRANCH  20  21
ATOM     21  C   UNL     1       5.927   4.332  14.404  0.00  0.00    +0.000 A 
ATOM     22  C   UNL     1       7.129   5.033  14.212  0.00  0.00    +0.000 A 
ATOM     23  C   UNL     1       7.801   4.958  12.989  0.00  0.00    +0.000 A 
ATOM     24  C   UNL     1       7.281   4.183  11.949  0.00  0.00    +0.000 A 
ATOM     25  C   UNL     1       6.092   3.476  12.132  0.00  0.00    +0.000 A 
ATOM     26  C   UNL     1       5.421   3.546  13.355  0.00  0.00    +0.000 A 
ENDBRANCH  20  21
ENDBRANCH  17  20
ENDBRANCH   6  17
TORSDOF 6
ENDMDL
MODEL 6
REMARK VINA RESULT:      -6.0      0.930      1.414
REMARK  Name = 
REMARK  9 active torsions:
REMARK  status: ('A' for Active; 'I' for Inactive)
REMARK    1  A    between atoms: C_1  and  N_2
REMARK    2  A    between atoms: N_2  and  C_3
REMARK    3  A    between atoms: N_2  and  C_4
REMARK    4  A    between atoms: C_4  and  C_5
REMARK    5  A    between atoms: C_7  and  C_8
REMARK    6  A    between atoms: N_13  and  S_14
REMARK    7  A    between atoms: S_14  and  C_17
REMARK    8  A    between atoms: C_17  and  C_18
REMARK    9  A    between atoms: N_25  and  C_26
REMARK                            x       y       z     vdW  Elec       q    Type
REMARK                         _______ _______ _______ _____ _____    ______ ____
ROOT
ATOM      1  C   UNL     1       2.488   4.683  18.113  0.00  0.00    +0.000 C 
ATOM      2  C   UNL     1       1.441   3.771  18.788  0.00  0.00    +0.000 C 
ATOM      3  C   UNL     1       1.616   2.326  18.322  0.00  0.00    +0.000 C 
ATOM      4  C   UNL     1       3.040   1.865  18.621  0.00  0.00    +0.000 C 
ATOM      5  C   UNL     1       4.041   2.807  17.950  0.00  0.00    +0.000 C 
ATOM      6  N   UNL     1       3.856   4.196  18.428  0.00  0.00    +0.000 NA
ENDROOT
BRANCH   1   9
ATOM      7  C   UNL     1       1.932   7.877  19.840  0.00  0.00    +0.000 A 
ATOM      8  C   UNL     1       2.077   6.503  19.909  0.00  0.00    +0.000 A 
ATOM      9  C   UNL     1       2.262   6.099  18.595  0.00  0.00    +0.000 A 
ATOM     10  N   UNL     1       2.235   7.179  17.786  0.00  0.00    +0.000 NA
ATOM     11  N   UNL     1       2.042   8.246  18.549  0.00  0.00    +0.000 N 
ATOM     12  C   UNL     1       1.973   9.602  18.022  0.00  0.00    +0.000 C 
BRANCH   7  13
ATOM     13  C   UNL     1       1.710   8.816  21.005  0.00  0.00    +0.000 C 
BRANCH  13  15
ATOM     14  C   UNL     1      -0.363   8.884  22.305  0.00  0.00    +0.000 C 
ATOM     15  N   UNL     1       0.317   9.317  21.074  0.00  0.00    +0.000 NA
ATOM     16  C   UNL     1       0.304  10.788  21.015  0.00  0.00    +0.000 C 
ENDBRANCH  13  15
ENDBRANCH   7  13
ENDBRANCH   1   9
BRANCH   6  17
ATOM     17  S   UNL     1       5.118   5.244  17.701  0.00  0.00    +0.000 S 
ATOM     18  O   UNL     1       4.428   6.077  16.606  0.00  0.00    +0.000 OA
ATOM     19  O   UNL     1       5.428   6.323  18.752  0.00  0.00    +0.000 OA
BRANCH  17  20
ATOM     20  C   UNL     1       6.616   4.430  17.076  0.00  0.00    +0.000 C 
BRANCH  20  21
ATOM     21  C   UNL     1       6.664   4.413  15.573  0.00  0.00    +0.000 A 
ATOM     22  C   UNL     1       5.796   3.591  14.838  0.00  0.00    +0.000 A 
ATOM     23  C   UNL     1       5.847   3.584  13.440  0.00  0.00    +0.000 A 
ATOM     24  C   UNL     1       6.761   4.398  12.766  0.00  0.00    +0.000 A 
ATOM     25  C   UNL     1       7.622   5.225  13.488  0.00  0.00    +0.000 A 
ATOM     26  C   UNL     1       7.571   5.237  14.883  0.00  0.00    +0.000 A 
ENDBRANCH  20  21
ENDBRANCH  17  20
ENDBRANCH   6  17
TORSDOF 6
ENDMDL
MODEL 7
REMARK VINA RESULT:      -6.0      2.761      4.795
REMARK  Name = 
REMARK  9 active torsions:
REMARK  status: ('A' for Active; 'I' for Inactive)
REMARK    1  A    between atoms: C_1  and  N_2
REMARK    2  A    between atoms: N_2  and  C_3
REMARK    3  A    between atoms: N_2  and  C_4
REMARK    4  A    between atoms: C_4  and  C_5
REMARK    5  A    between atoms: C_7  and  C_8
REMARK    6  A    between atoms: N_13  and  S_14
REMARK    7  A    between atoms: S_14  and  C_17
REMARK    8  A    between atoms: C_17  and  C_18
REMARK    9  A    between atoms: N_25  and  C_26
REMARK                            x       y       z     vdW  Elec       q    Type
REMARK                         _______ _______ _______ _____ _____    ______ ____
ROOT
ATOM      1  C   UNL     1       6.547   5.203  18.464  0.00  0.00    +0.000 C 
ATOM      2  C   UNL     1       7.395   5.737  19.638  0.00  0.00    +0.000 C 
ATOM      3  C   UNL     1       8.546   6.596  19.115  0.00  0.00    +0.000 C 
ATOM      4  C   UNL     1       7.987   7.731  18.262  0.00  0.00    +0.000 C 
ATOM      5  C   UNL     1       7.140   7.156  17.125  0.00  0.00    +0.000 C 
ATOM      6  N   UNL     1       6.027   6.340  17.661  0.00  0.00    +0.000 NA
ENDROOT
BRANCH   1   9
ATOM      7  C   UNL     1       3.661   3.645  20.117  0.00  0.00    +0.000 A 
ATOM      8  C   UNL     1       4.439   4.769  19.903  0.00  0.00    +0.000 A 
ATOM      9  C   UNL     1       5.435   4.351  19.033  0.00  0.00    +0.000 A 
ATOM     10  N   UNL     1       5.253   3.046  18.738  0.00  0.00    +0.000 NA
ATOM     11  N   UNL     1       4.177   2.634  19.392  0.00  0.00    +0.000 N 
ATOM     12  C   UNL     1       3.660   1.275  19.302  0.00  0.00    +0.000 C 
BRANCH   7  13
ATOM     13  C   UNL     1       2.429   3.559  20.991  0.00  0.00    +0.000 C 
BRANCH  13  15
ATOM     14  C   UNL     1       1.349   5.714  20.565  0.00  0.00    +0.000 C 
ATOM     15  N   UNL     1       1.262   4.255  20.399  0.00  0.00    +0.000 NA
ATOM     16  C   UNL     1       1.163   3.944  18.963  0.00  0.00    +0.000 C 
ENDBRANCH  13  15
ENDBRANCH   7  13
ENDBRANCH   1   9
BRANCH   6  17
ATOM     17  S   UNL     1       4.999   5.778  16.301  0.00  0.00    +0.000 S 
ATOM     18  O   UNL     1       3.539   5.886  16.773  0.00  0.00    +0.000 OA
ATOM     19  O   UNL     1       5.058   6.889  15.240  0.00  0.00    +0.000 OA
BRANCH  17  20
ATOM     20  C   UNL     1       5.359   4.137  15.611  0.00  0.00    +0.000 C 
BRANCH  20  21
ATOM     21  C   UNL     1       6.059   4.226  14.282  0.00  0.00    +0.000 A 
ATOM     22  C   UNL     1       5.570   3.529  13.166  0.00  0.00    +0.000 A 
ATOM     23  C   UNL     1       6.226   3.620  11.935  0.00  0.00    +0.000 A 
ATOM     24  C   UNL     1       7.373   4.409  11.807  0.00  0.00    +0.000 A 
ATOM     25  C   UNL     1       7.862   5.111  12.908  0.00  0.00    +0.000 A 
ATOM     26  C   UNL     1       7.207   5.025  14.138  0.00  0.00    +0.000 A 
ENDBRANCH  20  21
ENDBRANCH  17  20
ENDBRANCH   6  17
TORSDOF 6
ENDMDL
MODEL 8
REMARK VINA RESULT:      -5.8      2.193      5.925
REMARK  Name = 
REMARK  9 active torsions:
REMARK  status: ('A' for Active; 'I' for Inactive)
REMARK    1  A    between atoms: C_1  and  N_2
REMARK    2  A    between atoms: N_2  and  C_3
REMARK    3  A    between atoms: N_2  and  C_4
REMARK    4  A    between atoms: C_4  and  C_5
REMARK    5  A    between atoms: C_7  and  C_8
REMARK    6  A    between atoms: N_13  and  S_14
REMARK    7  A    between atoms: S_14  and  C_17
REMARK    8  A    between atoms: C_17  and  C_18
REMARK    9  A    between atoms: N_25  and  C_26
REMARK                            x       y       z     vdW  Elec       q    Type
REMARK                         _______ _______ _______ _____ _____    ______ ____
ROOT
ATOM      1  C   UNL     1       4.743   4.180  16.275  0.00  0.00    +0.000 C 
ATOM      2  C   UNL     1       5.560   3.185  15.424  0.00  0.00    +0.000 C 
ATOM      3  C   UNL     1       6.146   3.888  14.200  0.00  0.00    +0.000 C 
ATOM      4  C   UNL     1       6.997   5.071  14.653  0.00  0.00    +0.000 C 
ATOM      5  C   UNL     1       6.153   6.019  15.508  0.00  0.00    +0.000 C 
ATOM      6  N   UNL     1       5.609   5.315  16.691  0.00  0.00    +0.000 NA
ENDROOT
BRANCH   1   9
ATOM      7  C   UNL     1       2.837   2.390  18.855  0.00  0.00    +0.000 A 
ATOM      8  C   UNL     1       2.853   3.054  17.641  0.00  0.00    +0.000 A 
ATOM      9  C   UNL     1       4.175   3.433  17.461  0.00  0.00    +0.000 A 
ATOM     10  N   UNL     1       4.909   3.009  18.512  0.00  0.00    +0.000 NA
ATOM     11  N   UNL     1       4.093   2.376  19.342  0.00  0.00    +0.000 N 
ATOM     12  C   UNL     1       4.537   1.763  20.586  0.00  0.00    +0.000 C 
BRANCH   7  13
ATOM     13  C   UNL     1       1.631   1.764  19.519  0.00  0.00    +0.000 C 
BRANCH  13  15
ATOM     14  C   UNL     1       1.501   2.620  21.809  0.00  0.00    +0.000 C 
ATOM     15  N   UNL     1       0.947   2.694  20.448  0.00  0.00    +0.000 NA
ATOM     16  C   UNL     1       1.068   4.078  19.959  0.00  0.00    +0.000 C 
ENDBRANCH  13  15
ENDBRANCH   7  13
ENDBRANCH   1   9
BRANCH   6  17
ATOM     17  S   UNL     1       4.720   6.486  17.719  0.00  0.00    +0.000 S 
ATOM     18  O   UNL     1       5.144   6.214  19.173  0.00  0.00    +0.000 OA
ATOM     19  O   UNL     1       5.375   7.854  17.463  0.00  0.00    +0.000 OA
BRANCH  17  20
ATOM     20  C   UNL     1       2.913   6.538  17.548  0.00  0.00    +0.000 C 
BRANCH  20  21
ATOM     21  C   UNL     1       2.303   7.659  18.345  0.00  0.00    +0.000 A 
ATOM     22  C   UNL     1       1.961   8.873  17.729  0.00  0.00    +0.000 A 
ATOM     23  C   UNL     1       1.392   9.908  18.478  0.00  0.00    +0.000 A 
ATOM     24  C   UNL     1       1.159   9.738  19.846  0.00  0.00    +0.000 A 
ATOM     25  C   UNL     1       1.488   8.533  20.465  0.00  0.00    +0.000 A 
ATOM     26  C   UNL     1       2.052   7.496  19.719  0.00  0.00    +0.000 A 
ENDBRANCH  20  21
ENDBRANCH  17  20
ENDBRANCH   6  17
TORSDOF 6
ENDMDL
MODEL 9
REMARK VINA RESULT:      -5.8      1.381      2.134
REMARK  Name = 
REMARK  9 active torsions:
REMARK  status: ('A' for Active; 'I' for Inactive)
REMARK    1  A    between atoms: C_1  and  N_2
REMARK    2  A    between atoms: N_2  and  C_3
REMARK    3  A    between atoms: N_2  and  C_4
REMARK    4  A    between atoms: C_4  and  C_5
REMARK    5  A    between atoms: C_7  and  C_8
REMARK    6  A    between atoms: N_13  and  S_14
REMARK    7  A    between atoms: S_14  and  C_17
REMARK    8  A    between atoms: C_17  and  C_18
REMARK    9  A    between atoms: N_25  and  C_26
REMARK                            x       y       z     vdW  Elec       q    Type
REMARK                         _______ _______ _______ _____ _____    ______ ____
ROOT
ATOM      1  C   UNL     1       2.463   4.734  18.158  0.00  0.00    +0.000 C 
ATOM      2  C   UNL     1       1.396   3.819  18.795  0.00  0.00    +0.000 C 
ATOM      3  C   UNL     1       1.567   2.381  18.305  0.00  0.00    +0.000 C 
ATOM      4  C   UNL     1       2.981   1.902  18.623  0.00  0.00    +0.000 C 
ATOM      5  C   UNL     1       4.003   2.847  17.989  0.00  0.00    +0.000 C 
ATOM      6  N   UNL     1       3.821   4.229  18.490  0.00  0.00    +0.000 NA
ENDROOT
BRANCH   1   9
ATOM      7  C   UNL     1       1.906   8.308  18.794  0.00  0.00    +0.000 A 
ATOM      8  C   UNL     1       2.107   7.284  17.886  0.00  0.00    +0.000 A 
ATOM      9  C   UNL     1       2.241   6.142  18.662  0.00  0.00    +0.000 A 
ATOM     10  N   UNL     1       2.118   6.470  19.965  0.00  0.00    +0.000 NA
ATOM     11  N   UNL     1       1.910   7.777  20.032  0.00  0.00    +0.000 N 
ATOM     12  C   UNL     1       1.711   8.491  21.286  0.00  0.00    +0.000 C 
BRANCH   7  13
ATOM     13  C   UNL     1       1.694   9.770  18.466  0.00  0.00    +0.000 C 
BRANCH  13  15
ATOM     14  C   UNL     1       0.464  11.687  19.361  0.00  0.00    +0.000 C 
ATOM     15  N   UNL     1       0.388  10.277  18.949  0.00  0.00    +0.000 NA
ATOM     16  C   UNL     1      -0.628  10.143  17.892  0.00  0.00    +0.000 C 
ENDBRANCH  13  15
ENDBRANCH   7  13
ENDBRANCH   1   9
BRANCH   6  17
ATOM     17  S   UNL     1       5.106   5.279  17.806  0.00  0.00    +0.000 S 
ATOM     18  O   UNL     1       4.443   6.144  16.721  0.00  0.00    +0.000 OA
ATOM     19  O   UNL     1       5.412   6.329  18.887  0.00  0.00    +0.000 OA
BRANCH  17  20
ATOM     20  C   UNL     1       6.605   4.462  17.188  0.00  0.00    +0.000 C 
BRANCH  20  21
ATOM     21  C   UNL     1       6.652   4.433  15.684  0.00  0.00    +0.000 A 
ATOM     22  C   UNL     1       5.790   3.598  14.956  0.00  0.00    +0.000 A 
ATOM     23  C   UNL     1       5.839   3.580  13.559  0.00  0.00    +0.000 A 
ATOM     24  C   UNL     1       6.747   4.396  12.878  0.00  0.00    +0.000 A 
ATOM     25  C   UNL     1       7.602   5.235  13.592  0.00  0.00    +0.000 A 
ATOM     26  C   UNL     1       7.552   5.258  14.987  0.00  0.00    +0.000 A 
ENDBRANCH  20  21
ENDBRANCH  17  20
ENDBRANCH   6  17
TORSDOF 6
ENDMDL
