MODEL 1
REMARK VINA RESULT:      -8.8      0.000      0.000
REMARK  Name = 
REMARK  5 active torsions:
REMARK  status: ('A' for Active; 'I' for Inactive)
REMARK    1  A    between atoms: C_2  and  C_3
REMARK    2  A    between atoms: C_5  and  C_6
REMARK    3  A    between atoms: C_6  and  N_7
REMARK    4  A    between atoms: C_10  and  C_11
REMARK    5  A    between atoms: C_27  and  C_28
REMARK                            x       y       z     vdW  Elec       q    Type
REMARK                         _______ _______ _______ _____ _____    ______ ____
ROOT
ATOM      1  N   UNL     1       1.578   7.111  20.179  0.00  0.00    +0.000 NA
ATOM      2  C   UNL     1       2.397   7.750  19.145  0.00  0.00    +0.000 C 
ATOM      3  C   UNL     1       2.510   6.946  17.852  0.00  0.00    +0.000 C 
ATOM      4  C   UNL     1       2.904   5.494  18.099  0.00  0.00    +0.000 C 
ATOM      5  C   UNL     1       1.947   4.877  19.122  0.00  0.00    +0.000 C 
ATOM      6  C   UNL     1       1.872   5.696  20.409  0.00  0.00    +0.000 C 
ENDROOT
BRANCH   4   7
ATOM      7  C   UNL     1       4.342   5.277  18.453  0.00  0.00    +0.000 A 
ATOM      8  N   UNL     1       4.861   5.390  19.732  0.00  0.00    +0.000 NA
ATOM      9  N   UNL     1       6.176   5.147  19.695  0.00  0.00    +0.000 NA
ATOM     10  N   UNL     1       6.488   4.886  18.413  0.00  0.00    +0.000 N 
ATOM     11  C   UNL     1       7.767   4.591  17.923  0.00  0.00    +0.000 A 
ATOM     12  N   UNL     1       7.985   4.341  16.646  0.00  0.00    +0.000 NA
ATOM     13  C   UNL     1       6.863   4.393  15.861  0.00  0.00    +0.000 A 
ATOM     14  N   UNL     1       6.851   4.163  14.511  0.00  0.00    +0.000 N 
ATOM     15  C   UNL     1       5.562   4.297  14.035  0.00  0.00    +0.000 A 
ATOM     16  C   UNL     1       4.731   4.617  15.090  0.00  0.00    +0.000 A 
ATOM     17  C   UNL     1       5.557   4.673  16.213  0.00  0.00    +0.000 A 
ATOM     18  C   UNL     1       5.376   4.947  17.628  0.00  0.00    +0.000 A 
ATOM     19  H   UNL     1       7.668   3.932  13.963  0.00  0.00    +0.000 HD
ENDBRANCH   4   7
BRANCH   1  20
ATOM     20  C   UNL     1       1.546   7.888  21.436  0.00  0.00    +0.000 C 
BRANCH  20  23
ATOM     21  C   UNL     1      -0.709  10.820  20.341  0.00  0.00    +0.000 A 
ATOM     22  C   UNL     1       0.182   9.728  20.300  0.00  0.00    +0.000 A 
ATOM     23  C   UNL     1       0.619   9.094  21.475  0.00  0.00    +0.000 A 
ATOM     24  C   UNL     1       0.158   9.586  22.702  0.00  0.00    +0.000 A 
ATOM     25  C   UNL     1      -0.726  10.664  22.754  0.00  0.00    +0.000 A 
ATOM     26  C   UNL     1      -1.170  11.301  21.579  0.00  0.00    +0.000 A 
BRANCH  26  27
ATOM     27  C   UNL     1      -2.124  12.459  21.739  0.00  0.00    +0.000 C 
ATOM     28  F   UNL     1      -3.273  12.372  21.023  0.00  0.00    +0.000 F 
ATOM     29  F   UNL     1      -2.508  12.634  23.034  0.00  0.00    +0.000 F 
ATOM     30  F   UNL     1      -1.551  13.639  21.366  0.00  0.00    +0.000 F 
ENDBRANCH  26  27
BRANCH  21  32
ATOM     31  N   UNL     1      -1.467  11.869  18.089  0.00  0.00    +0.000 NA
ATOM     32  C   UNL     1      -1.112  11.396  19.085  0.00  0.00    +0.000 C 
ENDBRANCH  21  32
ENDBRANCH  20  23
ENDBRANCH   1  20
TORSDOF 5
ENDMDL
MODEL 2
REMARK VINA RESULT:      -8.8      4.842     10.153
REMARK  Name = 
REMARK  5 active torsions:
REMARK  status: ('A' for Active; 'I' for Inactive)
REMARK    1  A    between atoms: C_2  and  C_3
REMARK    2  A    between atoms: C_5  and  C_6
REMARK    3  A    between atoms: C_6  and  N_7
REMARK    4  A    between atoms: C_10  and  C_11
REMARK    5  A    between atoms: C_27  and  C_28
REMARK                            x       y       z     vdW  Elec       q    Type
REMARK                         _______ _______ _______ _____ _____    ______ ____
ROOT
ATOM      1  N   UNL     1       2.042   8.170  19.273  0.00  0.00    +0.000 NA
ATOM      2  C   UNL     1       1.974   8.851  17.977  0.00  0.00    +0.000 C 
ATOM      3  C   UNL     1       1.823  10.367  18.076  0.00  0.00    +0.000 C 
ATOM      4  C   UNL     1       0.699  10.783  19.018  0.00  0.00    +0.000 C 
ATOM      5  C   UNL     1       0.894  10.098  20.372  0.00  0.00    +0.000 C 
ATOM      6  C   UNL     1       1.023   8.582  20.239  0.00  0.00    +0.000 C 
ENDROOT
BRANCH   4   7
ATOM      7  C   UNL     1      -0.684  10.601  18.475  0.00  0.00    +0.000 A 
ATOM      8  N   UNL     1      -1.015   9.741  17.441  0.00  0.00    +0.000 NA
ATOM      9  N   UNL     1      -2.327   9.832  17.197  0.00  0.00    +0.000 NA
ATOM     10  N   UNL     1      -2.822  10.737  18.060  0.00  0.00    +0.000 N 
ATOM     11  C   UNL     1      -4.159  11.150  18.141  0.00  0.00    +0.000 A 
ATOM     12  N   UNL     1      -4.562  12.042  19.024  0.00  0.00    +0.000 NA
ATOM     13  C   UNL     1      -3.569  12.516  19.841  0.00  0.00    +0.000 A 
ATOM     14  N   UNL     1      -3.758  13.442  20.833  0.00  0.00    +0.000 N 
ATOM     15  C   UNL     1      -2.554  13.694  21.459  0.00  0.00    +0.000 A 
ATOM     16  C   UNL     1      -1.575  12.922  20.865  0.00  0.00    +0.000 A 
ATOM     17  C   UNL     1      -2.225  12.199  19.865  0.00  0.00    +0.000 A 
ATOM     18  C   UNL     1      -1.835  11.218  18.868  0.00  0.00    +0.000 A 
ATOM     19  H   UNL     1      -4.648  13.865  21.058  0.00  0.00    +0.000 HD
ENDBRANCH   4   7
BRANCH   1  20
ATOM     20  C   UNL     1       2.122   6.700  19.137  0.00  0.00    +0.000 C 
BRANCH  20  23
ATOM     21  C   UNL     1       5.519   6.319  17.349  0.00  0.00    +0.000 A 
ATOM     22  C   UNL     1       4.458   6.853  18.109  0.00  0.00    +0.000 A 
ATOM     23  C   UNL     1       3.255   6.150  18.281  0.00  0.00    +0.000 A 
ATOM     24  C   UNL     1       3.122   4.902  17.660  0.00  0.00    +0.000 A 
ATOM     25  C   UNL     1       4.166   4.364  16.907  0.00  0.00    +0.000 A 
ATOM     26  C   UNL     1       5.377   5.063  16.735  0.00  0.00    +0.000 A 
BRANCH  26  27
ATOM     27  C   UNL     1       6.446   4.398  15.901  0.00  0.00    +0.000 C 
ATOM     28  F   UNL     1       6.817   5.071  14.783  0.00  0.00    +0.000 F 
ATOM     29  F   UNL     1       7.594   4.192  16.606  0.00  0.00    +0.000 F 
ATOM     30  F   UNL     1       6.055   3.164  15.472  0.00  0.00    +0.000 F 
ENDBRANCH  26  27
BRANCH  21  32
ATOM     31  N   UNL     1       7.690   7.727  17.119  0.00  0.00    +0.000 NA
ATOM     32  C   UNL     1       6.720   7.106  17.240  0.00  0.00    +0.000 C 
ENDBRANCH  21  32
ENDBRANCH  20  23
ENDBRANCH   1  20
TORSDOF 5
ENDMDL
MODEL 3
REMARK VINA RESULT:      -8.7      5.285     10.225
REMARK  Name = 
REMARK  5 active torsions:
REMARK  status: ('A' for Active; 'I' for Inactive)
REMARK    1  A    between atoms: C_2  and  C_3
REMARK    2  A    between atoms: C_5  and  C_6
REMARK    3  A    between atoms: C_6  and  N_7
REMARK    4  A    between atoms: C_10  and  C_11
REMARK    5  A    between atoms: C_27  and  C_28
REMARK                            x       y       z     vdW  Elec       q    Type
REMARK                         _______ _______ _______ _____ _____    ______ ____
ROOT
ATOM      1  N   UNL     1       0.986   8.656  20.187  0.00  0.00    +0.000 NA
ATOM      2  C   UNL     1       0.925   9.106  21.581  0.00  0.00    +0.000 C 
ATOM      3  C   UNL     1      -0.354   9.858  21.938  0.00  0.00    +0.000 C 
ATOM      4  C   UNL     1      -0.676  10.971  20.947  0.00  0.00    +0.000 C 
ATOM      5  C   UNL     1      -0.679  10.399  19.528  0.00  0.00    +0.000 C 
ATOM      6  C   UNL     1       0.622   9.670  19.196  0.00  0.00    +0.000 C 
ENDROOT
BRANCH   4   7
ATOM      7  C   UNL     1       0.174  12.197  21.071  0.00  0.00    +0.000 A 
ATOM      8  N   UNL     1       1.348  12.413  20.369  0.00  0.00    +0.000 NA
ATOM      9  N   UNL     1       1.861  13.596  20.725  0.00  0.00    +0.000 NA
ATOM     10  N   UNL     1       1.028  14.122  21.640  0.00  0.00    +0.000 N 
ATOM     11  C   UNL     1       1.195  15.352  22.292  0.00  0.00    +0.000 A 
ATOM     12  N   UNL     1       0.324  15.797  23.176  0.00  0.00    +0.000 NA
ATOM     13  C   UNL     1      -0.740  14.960  23.391  0.00  0.00    +0.000 A 
ATOM     14  N   UNL     1      -1.766  15.221  24.260  0.00  0.00    +0.000 N 
ATOM     15  C   UNL     1      -2.666  14.173  24.233  0.00  0.00    +0.000 A 
ATOM     16  C   UNL     1      -2.216  13.226  23.335  0.00  0.00    +0.000 A 
ATOM     17  C   UNL     1      -1.020  13.732  22.825  0.00  0.00    +0.000 A 
ATOM     18  C   UNL     1      -0.026  13.288  21.864  0.00  0.00    +0.000 A 
ATOM     19  H   UNL     1      -1.839  16.054  24.826  0.00  0.00    +0.000 HD
ENDBRANCH   4   7
BRANCH   1  20
ATOM     20  C   UNL     1       2.265   7.991  19.862  0.00  0.00    +0.000 C 
BRANCH  20  23
ATOM     21  C   UNL     1       1.886   4.168  20.217  0.00  0.00    +0.000 A 
ATOM     22  C   UNL     1       1.984   5.539  20.531  0.00  0.00    +0.000 A 
ATOM     23  C   UNL     1       2.204   6.505  19.536  0.00  0.00    +0.000 A 
ATOM     24  C   UNL     1       2.344   6.071  18.212  0.00  0.00    +0.000 A 
ATOM     25  C   UNL     1       2.249   4.717  17.890  0.00  0.00    +0.000 A 
ATOM     26  C   UNL     1       2.023   3.744  18.884  0.00  0.00    +0.000 A 
BRANCH  26  27
ATOM     27  C   UNL     1       1.936   2.305  18.436  0.00  0.00    +0.000 C 
ATOM     28  F   UNL     1       0.719   1.723  18.576  0.00  0.00    +0.000 F 
ATOM     29  F   UNL     1       2.269   2.155  17.124  0.00  0.00    +0.000 F 
ATOM     30  F   UNL     1       2.803   1.510  19.127  0.00  0.00    +0.000 F 
ENDBRANCH  26  27
BRANCH  21  32
ATOM     31  N   UNL     1       1.421   2.534  22.182  0.00  0.00    +0.000 NA
ATOM     32  C   UNL     1       1.645   3.253  21.303  0.00  0.00    +0.000 C 
ENDBRANCH  21  32
ENDBRANCH  20  23
ENDBRANCH   1  20
TORSDOF 5
ENDMDL
MODEL 4
REMARK VINA RESULT:      -8.5      5.118     10.056
REMARK  Name = 
REMARK  5 active torsions:
REMARK  status: ('A' for Active; 'I' for Inactive)
REMARK    1  A    between atoms: C_2  and  C_3
REMARK    2  A    between atoms: C_5  and  C_6
REMARK    3  A    between atoms: C_6  and  N_7
REMARK    4  A    between atoms: C_10  and  C_11
REMARK    5  A    between atoms: C_27  and  C_28
REMARK                            x       y       z     vdW  Elec       q    Type
REMARK                         _______ _______ _______ _____ _____    ______ ____
ROOT
ATOM      1  N   UNL     1       1.366   8.480  19.047  0.00  0.00    +0.000 NA
ATOM      2  C   UNL     1       1.239   8.732  20.485  0.00  0.00    +0.000 C 
ATOM      3  C   UNL     1      -0.098   9.345  20.895  0.00  0.00    +0.000 C 
ATOM      4  C   UNL     1      -0.467  10.560  20.051  0.00  0.00    +0.000 C 
ATOM      5  C   UNL     1      -0.395  10.187  18.568  0.00  0.00    +0.000 C 
ATOM      6  C   UNL     1       0.961   9.593  18.188  0.00  0.00    +0.000 C 
ENDROOT
BRANCH   4   7
ATOM      7  C   UNL     1       0.294  11.809  20.367  0.00  0.00    +0.000 A 
ATOM      8  N   UNL     1       1.463  12.198  19.734  0.00  0.00    +0.000 NA
ATOM      9  N   UNL     1       1.887  13.350  20.266  0.00  0.00    +0.000 NA
ATOM     10  N   UNL     1       1.004  13.687  21.222  0.00  0.00    +0.000 N 
ATOM     11  C   UNL     1       1.075  14.821  22.042  0.00  0.00    +0.000 A 
ATOM     12  N   UNL     1       0.159  15.080  22.956  0.00  0.00    +0.000 NA
ATOM     13  C   UNL     1      -0.849  14.154  23.023  0.00  0.00    +0.000 A 
ATOM     14  N   UNL     1      -1.906  14.222  23.891  0.00  0.00    +0.000 N 
ATOM     15  C   UNL     1      -2.732  13.132  23.694  0.00  0.00    +0.000 A 
ATOM     16  C   UNL     1      -2.201  12.352  22.686  0.00  0.00    +0.000 A 
ATOM     17  C   UNL     1      -1.034  13.002  22.284  0.00  0.00    +0.000 A 
ATOM     18  C   UNL     1       0.005  12.763  21.299  0.00  0.00    +0.000 A 
ATOM     19  H   UNL     1      -2.046  14.961  24.565  0.00  0.00    +0.000 HD
ENDBRANCH   4   7
BRANCH   1  20
ATOM     20  C   UNL     1       2.696   7.947  18.681  0.00  0.00    +0.000 C 
BRANCH  20  23
ATOM     21  C   UNL     1       2.677   4.301  19.942  0.00  0.00    +0.000 A 
ATOM     22  C   UNL     1       2.550   5.705  19.901  0.00  0.00    +0.000 A 
ATOM     23  C   UNL     1       2.872   6.436  18.747  0.00  0.00    +0.000 A 
ATOM     24  C   UNL     1       3.345   5.736  17.630  0.00  0.00    +0.000 A 
ATOM     25  C   UNL     1       3.473   4.347  17.659  0.00  0.00    +0.000 A 
ATOM     26  C   UNL     1       3.146   3.608  18.813  0.00  0.00    +0.000 A 
BRANCH  26  27
ATOM     27  C   UNL     1       3.320   2.110  18.747  0.00  0.00    +0.000 C 
ATOM     28  F   UNL     1       4.231   1.590  19.607  0.00  0.00    +0.000 F 
ATOM     29  F   UNL     1       2.157   1.447  18.995  0.00  0.00    +0.000 F 
ATOM     30  F   UNL     1       3.715   1.704  17.507  0.00  0.00    +0.000 F 
ENDBRANCH  26  27
BRANCH  21  32
ATOM     31  N   UNL     1       2.043   3.114  22.164  0.00  0.00    +0.000 NA
ATOM     32  C   UNL     1       2.309   3.636  21.165  0.00  0.00    +0.000 C 
ENDBRANCH  21  32
ENDBRANCH  20  23
ENDBRANCH   1  20
TORSDOF 5
ENDMDL
MODEL 5
REMARK VINA RESULT:      -8.5      5.280     10.149
REMARK  Name = 
REMARK  5 active torsions:
REMARK  status: ('A' for Active; 'I' for Inactive)
REMARK    1  A    between atoms: C_2  and  C_3
REMARK    2  A    between atoms: C_5  and  C_6
REMARK    3  A    between atoms: C_6  and  N_7
REMARK    4  A    between atoms: C_10  and  C_11
REMARK    5  A    between atoms: C_27  and  C_28
REMARK                            x       y       z     vdW  Elec       q    Type
REMARK                         _______ _______ _______ _____ _____    ______ ____
ROOT
ATOM      1  N   UNL     1       0.995   8.621  20.216  0.00  0.00    +0.000 NA
ATOM      2  C   UNL     1       1.008   9.029  21.624  0.00  0.00    +0.000 C 
ATOM      3  C   UNL     1      -0.257   9.754  22.075  0.00  0.00    +0.000 C 
ATOM      4  C   UNL     1      -0.645  10.892  21.137  0.00  0.00    +0.000 C 
ATOM      5  C   UNL     1      -0.722  10.363  19.704  0.00  0.00    +0.000 C 
ATOM      6  C   UNL     1       0.565   9.659  19.278  0.00  0.00    +0.000 C 
ENDROOT
BRANCH   4   7
ATOM      7  C   UNL     1       0.197  12.124  21.251  0.00  0.00    +0.000 A 
ATOM      8  N   UNL     1       1.582  12.129  21.279  0.00  0.00    +0.000 NA
ATOM      9  N   UNL     1       2.014  13.388  21.401  0.00  0.00    +0.000 NA
ATOM     10  N   UNL     1       0.922  14.172  21.452  0.00  0.00    +0.000 N 
ATOM     11  C   UNL     1       0.918  15.566  21.593  0.00  0.00    +0.000 A 
ATOM     12  N   UNL     1      -0.203  16.260  21.629  0.00  0.00    +0.000 NA
ATOM     13  C   UNL     1      -1.340  15.504  21.516  0.00  0.00    +0.000 A 
ATOM     14  N   UNL     1      -2.612  16.012  21.522  0.00  0.00    +0.000 N 
ATOM     15  C   UNL     1      -3.518  14.978  21.390  0.00  0.00    +0.000 A 
ATOM     16  C   UNL     1      -2.823  13.789  21.296  0.00  0.00    +0.000 A 
ATOM     17  C   UNL     1      -1.475  14.136  21.377  0.00  0.00    +0.000 A 
ATOM     18  C   UNL     1      -0.211  13.421  21.350  0.00  0.00    +0.000 A 
ATOM     19  H   UNL     1      -2.836  16.993  21.611  0.00  0.00    +0.000 HD
ENDBRANCH   4   7
BRANCH   1  20
ATOM     20  C   UNL     1       2.261   7.981  19.800  0.00  0.00    +0.000 C 
BRANCH  20  23
ATOM     21  C   UNL     1       1.887   4.161  20.186  0.00  0.00    +0.000 A 
ATOM     22  C   UNL     1       1.976   5.536  20.488  0.00  0.00    +0.000 A 
ATOM     23  C   UNL     1       2.208   6.492  19.487  0.00  0.00    +0.000 A 
ATOM     24  C   UNL     1       2.369   6.046  18.170  0.00  0.00    +0.000 A 
ATOM     25  C   UNL     1       2.282   4.689  17.859  0.00  0.00    +0.000 A 
ATOM     26  C   UNL     1       2.044   3.725  18.859  0.00  0.00    +0.000 A 
BRANCH  26  27
ATOM     27  C   UNL     1       1.968   2.282  18.424  0.00  0.00    +0.000 C 
ATOM     28  F   UNL     1       2.793   1.429  19.083  0.00  0.00    +0.000 F 
ATOM     29  F   UNL     1       0.715   1.768  18.567  0.00  0.00    +0.000 F 
ATOM     30  F   UNL     1       2.274   2.138  17.103  0.00  0.00    +0.000 F 
ENDBRANCH  26  27
BRANCH  21  32
ATOM     31  N   UNL     1       1.443   2.551  22.175  0.00  0.00    +0.000 NA
ATOM     32  C   UNL     1       1.633   3.256  21.277  0.00  0.00    +0.000 C 
ENDBRANCH  21  32
ENDBRANCH  20  23
ENDBRANCH   1  20
TORSDOF 5
ENDMDL
MODEL 6
REMARK VINA RESULT:      -8.3      4.813     10.531
REMARK  Name = 
REMARK  5 active torsions:
REMARK  status: ('A' for Active; 'I' for Inactive)
REMARK    1  A    between atoms: C_2  and  C_3
REMARK    2  A    between atoms: C_5  and  C_6
REMARK    3  A    between atoms: C_6  and  N_7
REMARK    4  A    between atoms: C_10  and  C_11
REMARK    5  A    between atoms: C_27  and  C_28
REMARK                            x       y       z     vdW  Elec       q    Type
REMARK                         _______ _______ _______ _____ _____    ______ ____
ROOT
ATOM      1  N   UNL     1       0.334  10.386  19.442  0.00  0.00    +0.000 NA
ATOM      2  C   UNL     1      -1.033   9.884  19.276  0.00  0.00    +0.000 C 
ATOM      3  C   UNL     1      -1.908  10.746  18.369  0.00  0.00    +0.000 C 
ATOM      4  C   UNL     1      -1.865  12.223  18.747  0.00  0.00    +0.000 C 
ATOM      5  C   UNL     1      -0.409  12.687  18.812  0.00  0.00    +0.000 C 
ATOM      6  C   UNL     1       0.434  11.815  19.741  0.00  0.00    +0.000 C 
ENDROOT
BRANCH   4   7
ATOM      7  C   UNL     1      -2.641  12.587  19.975  0.00  0.00    +0.000 A 
ATOM      8  N   UNL     1      -2.075  13.038  21.156  0.00  0.00    +0.000 NA
ATOM      9  N   UNL     1      -3.044  13.256  22.051  0.00  0.00    +0.000 NA
ATOM     10  N   UNL     1      -4.206  12.948  21.450  0.00  0.00    +0.000 N 
ATOM     11  C   UNL     1      -5.478  13.019  22.036  0.00  0.00    +0.000 A 
ATOM     12  N   UNL     1      -6.571  12.701  21.371  0.00  0.00    +0.000 NA
ATOM     13  C   UNL     1      -6.351  12.306  20.078  0.00  0.00    +0.000 A 
ATOM     14  N   UNL     1      -7.337  11.936  19.202  0.00  0.00    +0.000 N 
ATOM     15  C   UNL     1      -6.769  11.596  17.990  0.00  0.00    +0.000 A 
ATOM     16  C   UNL     1      -5.400  11.748  18.083  0.00  0.00    +0.000 A 
ATOM     17  C   UNL     1      -5.161  12.188  19.386  0.00  0.00    +0.000 A 
ATOM     18  C   UNL     1      -3.990  12.544  20.167  0.00  0.00    +0.000 A 
ATOM     19  H   UNL     1      -8.323  11.920  19.424  0.00  0.00    +0.000 HD
ENDBRANCH   4   7
BRANCH   1  20
ATOM     20  C   UNL     1       1.130   9.562  20.376  0.00  0.00    +0.000 C 
BRANCH  20  23
ATOM     21  C   UNL     1       2.193   5.866  20.066  0.00  0.00    +0.000 A 
ATOM     22  C   UNL     1       1.703   7.080  20.592  0.00  0.00    +0.000 A 
ATOM     23  C   UNL     1       1.698   8.259  19.831  0.00  0.00    +0.000 A 
ATOM     24  C   UNL     1       2.213   8.209  18.529  0.00  0.00    +0.000 A 
ATOM     25  C   UNL     1       2.700   7.014  17.999  0.00  0.00    +0.000 A 
ATOM     26  C   UNL     1       2.702   5.826  18.757  0.00  0.00    +0.000 A 
BRANCH  26  27
ATOM     27  C   UNL     1       3.250   4.585  18.095  0.00  0.00    +0.000 C 
ATOM     28  F   UNL     1       2.352   3.590  17.887  0.00  0.00    +0.000 F 
ATOM     29  F   UNL     1       3.796   4.851  16.876  0.00  0.00    +0.000 F 
ATOM     30  F   UNL     1       4.253   4.024  18.830  0.00  0.00    +0.000 F 
ENDBRANCH  26  27
BRANCH  21  32
ATOM     31  N   UNL     1       2.114   3.752  21.572  0.00  0.00    +0.000 NA
ATOM     32  C   UNL     1       2.144   4.705  20.916  0.00  0.00    +0.000 C 
ENDBRANCH  21  32
ENDBRANCH  20  23
ENDBRANCH   1  20
TORSDOF 5
ENDMDL
MODEL 7
REMARK VINA RESULT:      -8.3      1.268      1.864
REMARK  Name = 
REMARK  5 active torsions:
REMARK  status: ('A' for Active; 'I' for Inactive)
REMARK    1  A    between atoms: C_2  and  C_3
REMARK    2  A    between atoms: C_5  and  C_6
REMARK    3  A    between atoms: C_6  and  N_7
REMARK    4  A    between atoms: C_10  and  C_11
REMARK    5  A    between atoms: C_27  and  C_28
REMARK                            x       y       z     vdW  Elec       q    Type
REMARK                         _______ _______ _______ _____ _____    ______ ____
ROOT
ATOM      1  N   UNL     1       1.560   7.072  20.034  0.00  0.00    +0.000 NA
ATOM      2  C   UNL     1       2.317   7.509  18.857  0.00  0.00    +0.000 C 
ATOM      3  C   UNL     1       2.402   6.464  17.747  0.00  0.00    +0.000 C 
ATOM      4  C   UNL     1       2.849   5.100  18.260  0.00  0.00    +0.000 C 
ATOM      5  C   UNL     1       1.953   4.680  19.427  0.00  0.00    +0.000 C 
ATOM      6  C   UNL     1       1.905   5.739  20.528  0.00  0.00    +0.000 C 
ENDROOT
BRANCH   4   7
ATOM      7  C   UNL     1       4.306   4.989  18.585  0.00  0.00    +0.000 A 
ATOM      8  N   UNL     1       4.837   5.100  19.859  0.00  0.00    +0.000 NA
ATOM      9  N   UNL     1       6.166   4.967  19.793  0.00  0.00    +0.000 NA
ATOM     10  N   UNL     1       6.475   4.776  18.499  0.00  0.00    +0.000 N 
ATOM     11  C   UNL     1       7.766   4.605  17.979  0.00  0.00    +0.000 A 
ATOM     12  N   UNL     1       7.981   4.419  16.691  0.00  0.00    +0.000 NA
ATOM     13  C   UNL     1       6.844   4.406  15.926  0.00  0.00    +0.000 A 
ATOM     14  N   UNL     1       6.828   4.223  14.568  0.00  0.00    +0.000 N 
ATOM     15  C   UNL     1       5.523   4.268  14.116  0.00  0.00    +0.000 A 
ATOM     16  C   UNL     1       4.688   4.482  15.195  0.00  0.00    +0.000 A 
ATOM     17  C   UNL     1       5.526   4.566  16.306  0.00  0.00    +0.000 A 
ATOM     18  C   UNL     1       5.348   4.774  17.732  0.00  0.00    +0.000 A 
ATOM     19  H   UNL     1       7.651   4.079  14.000  0.00  0.00    +0.000 HD
ENDBRANCH   4   7
BRANCH   1  20
ATOM     20  C   UNL     1       1.555   8.084  21.111  0.00  0.00    +0.000 C 
BRANCH  20  23
ATOM     21  C   UNL     1      -0.897  11.010  21.671  0.00  0.00    +0.000 A 
ATOM     22  C   UNL     1      -0.146   9.833  21.875  0.00  0.00    +0.000 A 
ATOM     23  C   UNL     1       0.708   9.328  20.881  0.00  0.00    +0.000 A 
ATOM     24  C   UNL     1       0.786  10.015  19.663  0.00  0.00    +0.000 A 
ATOM     25  C   UNL     1       0.049  11.180  19.452  0.00  0.00    +0.000 A 
ATOM     26  C   UNL     1      -0.806  11.694  20.447  0.00  0.00    +0.000 A 
BRANCH  26  27
ATOM     27  C   UNL     1      -1.563  12.959  20.122  0.00  0.00    +0.000 C 
ATOM     28  F   UNL     1      -1.379  13.988  20.988  0.00  0.00    +0.000 F 
ATOM     29  F   UNL     1      -1.241  13.450  18.893  0.00  0.00    +0.000 F 
ATOM     30  F   UNL     1      -2.909  12.746  20.089  0.00  0.00    +0.000 F 
ENDBRANCH  26  27
BRANCH  21  32
ATOM     31  N   UNL     1      -2.389  11.851  23.624  0.00  0.00    +0.000 NA
ATOM     32  C   UNL     1      -1.734  11.459  22.753  0.00  0.00    +0.000 C 
ENDBRANCH  21  32
ENDBRANCH  20  23
ENDBRANCH   1  20
TORSDOF 5
ENDMDL
MODEL 8
REMARK VINA RESULT:      -8.2      4.766     10.338
REMARK  Name = 
REMARK  5 active torsions:
REMARK  status: ('A' for Active; 'I' for Inactive)
REMARK    1  A    between atoms: C_2  and  C_3
REMARK    2  A    between atoms: C_5  and  C_6
REMARK    3  A    between atoms: C_6  and  N_7
REMARK    4  A    between atoms: C_10  and  C_11
REMARK    5  A    between atoms: C_27  and  C_28
REMARK                            x       y       z     vdW  Elec       q    Type
REMARK                         _______ _______ _______ _____ _____    ______ ____
ROOT
ATOM      1  N   UNL     1       1.053   9.163  18.858  0.00  0.00    +0.000 NA
ATOM      2  C   UNL     1       1.465   9.132  20.265  0.00  0.00    +0.000 C 
ATOM      3  C   UNL     1       0.314   9.296  21.255  0.00  0.00    +0.000 C 
ATOM      4  C   UNL     1      -0.573  10.492  20.929  0.00  0.00    +0.000 C 
ATOM      5  C   UNL     1      -1.030  10.400  19.472  0.00  0.00    +0.000 C 
ATOM      6  C   UNL     1       0.145  10.255  18.506  0.00  0.00    +0.000 C 
ENDROOT
BRANCH   4   7
ATOM      7  C   UNL     1       0.012  11.828  21.265  0.00  0.00    +0.000 A 
ATOM      8  N   UNL     1       1.212  12.308  20.765  0.00  0.00    +0.000 NA
ATOM      9  N   UNL     1       1.445  13.521  21.277  0.00  0.00    +0.000 NA
ATOM     10  N   UNL     1       0.413  13.807  22.090  0.00  0.00    +0.000 N 
ATOM     11  C   UNL     1       0.262  14.979  22.843  0.00  0.00    +0.000 A 
ATOM     12  N   UNL     1      -0.789  15.182  23.614  0.00  0.00    +0.000 NA
ATOM     13  C   UNL     1      -1.700  14.159  23.607  0.00  0.00    +0.000 A 
ATOM     14  N   UNL     1      -2.866  14.156  24.327  0.00  0.00    +0.000 N 
ATOM     15  C   UNL     1      -3.546  12.977  24.091  0.00  0.00    +0.000 A 
ATOM     16  C   UNL     1      -2.812  12.211  23.208  0.00  0.00    +0.000 A 
ATOM     17  C   UNL     1      -1.671  12.961  22.921  0.00  0.00    +0.000 A 
ATOM     18  C   UNL     1      -0.491  12.787  22.093  0.00  0.00    +0.000 A 
ATOM     19  H   UNL     1      -3.167  14.907  24.932  0.00  0.00    +0.000 HD
ENDBRANCH   4   7
BRANCH   1  20
ATOM     20  C   UNL     1       2.199   9.066  17.931  0.00  0.00    +0.000 C 
BRANCH  20  23
ATOM     21  C   UNL     1       4.810   6.306  17.260  0.00  0.00    +0.000 A 
ATOM     22  C   UNL     1       4.184   7.568  17.340  0.00  0.00    +0.000 A 
ATOM     23  C   UNL     1       2.865   7.703  17.800  0.00  0.00    +0.000 A 
ATOM     24  C   UNL     1       2.169   6.545  18.165  0.00  0.00    +0.000 A 
ATOM     25  C   UNL     1       2.778   5.292  18.091  0.00  0.00    +0.000 A 
ATOM     26  C   UNL     1       4.103   5.150  17.635  0.00  0.00    +0.000 A 
BRANCH  26  27
ATOM     27  C   UNL     1       4.673   3.753  17.590  0.00  0.00    +0.000 C 
ATOM     28  F   UNL     1       3.798   2.756  17.874  0.00  0.00    +0.000 F 
ATOM     29  F   UNL     1       5.195   3.451  16.369  0.00  0.00    +0.000 F 
ATOM     30  F   UNL     1       5.701   3.600  18.474  0.00  0.00    +0.000 F 
ENDBRANCH  26  27
BRANCH  21  32
ATOM     31  N   UNL     1       7.266   6.202  16.423  0.00  0.00    +0.000 NA
ATOM     32  C   UNL     1       6.170   6.267  16.790  0.00  0.00    +0.000 C 
ENDBRANCH  21  32
ENDBRANCH  20  23
ENDBRANCH   1  20
TORSDOF 5
ENDMDL
MODEL 9
REMARK VINA RESULT:      -8.2      5.277      9.906
REMARK  Name = 
REMARK  5 active torsions:
REMARK  status: ('A' for Active; 'I' for Inactive)
REMARK    1  A    between atoms: C_2  and  C_3
REMARK    2  A    between atoms: C_5  and  C_6
REMARK    3  A    between atoms: C_6  and  N_7
REMARK    4  A    between atoms: C_10  and  C_11
REMARK    5  A    between atoms: C_27  and  C_28
REMARK                            x       y       z     vdW  Elec       q    Type
REMARK                         _______ _______ _______ _____ _____    ______ ____
ROOT
ATOM      1  N   UNL     1       0.952   8.801  19.777  0.00  0.00    +0.000 NA
ATOM      2  C   UNL     1       0.710   9.759  20.860  0.00  0.00    +0.000 C 
ATOM      3  C   UNL     1      -0.527  10.629  20.658  0.00  0.00    +0.000 C 
ATOM      4  C   UNL     1      -0.567  11.279  19.279  0.00  0.00    +0.000 C 
ATOM      5  C   UNL     1      -0.397  10.201  18.207  0.00  0.00    +0.000 C 
ATOM      6  C   UNL     1       0.859   9.360  18.427  0.00  0.00    +0.000 C 
ENDROOT
BRANCH   4   7
ATOM      7  C   UNL     1       0.371  12.430  19.091  0.00  0.00    +0.000 A 
ATOM      8  N   UNL     1       1.615  12.339  18.489  0.00  0.00    +0.000 NA
ATOM      9  N   UNL     1       2.196  13.543  18.497  0.00  0.00    +0.000 NA
ATOM     10  N   UNL     1       1.336  14.386  19.096  0.00  0.00    +0.000 N 
ATOM     11  C   UNL     1       1.552  15.752  19.329  0.00  0.00    +0.000 A 
ATOM     12  N   UNL     1       0.651  16.510  19.920  0.00  0.00    +0.000 NA
ATOM     13  C   UNL     1      -0.496  15.850  20.277  0.00  0.00    +0.000 A 
ATOM     14  N   UNL     1      -1.567  16.438  20.898  0.00  0.00    +0.000 N 
ATOM     15  C   UNL     1      -2.548  15.490  21.113  0.00  0.00    +0.000 A 
ATOM     16  C   UNL     1      -2.106  14.276  20.625  0.00  0.00    +0.000 A 
ATOM     17  C   UNL     1      -0.832  14.521  20.112  0.00  0.00    +0.000 A 
ATOM     18  C   UNL     1       0.199  13.731  19.462  0.00  0.00    +0.000 A 
ATOM     19  H   UNL     1      -1.615  17.414  21.152  0.00  0.00    +0.000 HD
ENDBRANCH   4   7
BRANCH   1  20
ATOM     20  C   UNL     1       2.192   8.022  19.976  0.00  0.00    +0.000 C 
BRANCH  20  23
ATOM     21  C   UNL     1       1.842   4.190  20.249  0.00  0.00    +0.000 A 
ATOM     22  C   UNL     1       1.930   5.555  20.593  0.00  0.00    +0.000 A 
ATOM     23  C   UNL     1       2.140   6.543  19.618  0.00  0.00    +0.000 A 
ATOM     24  C   UNL     1       2.280   6.139  18.284  0.00  0.00    +0.000 A 
ATOM     25  C   UNL     1       2.193   4.792  17.933  0.00  0.00    +0.000 A 
ATOM     26  C   UNL     1       1.977   3.796  18.907  0.00  0.00    +0.000 A 
BRANCH  26  27
ATOM     27  C   UNL     1       1.900   2.367  18.428  0.00  0.00    +0.000 C 
ATOM     28  F   UNL     1       2.240   2.166  17.130  0.00  0.00    +0.000 F 
ATOM     29  F   UNL     1       2.702   1.538  19.153  0.00  0.00    +0.000 F 
ATOM     30  F   UNL     1       0.640   1.860  18.557  0.00  0.00    +0.000 F 
ENDBRANCH  26  27
BRANCH  21  32
ATOM     31  N   UNL     1       1.394   2.512  22.180  0.00  0.00    +0.000 NA
ATOM     32  C   UNL     1       1.610   3.250  21.315  0.00  0.00    +0.000 C 
ENDBRANCH  21  32
ENDBRANCH  20  23
ENDBRANCH   1  20
TORSDOF 5
ENDMDL
