MODEL 1
REMARK VINA RESULT:      -6.0      0.000      0.000
REMARK  Name = 
REMARK  3 active torsions:
REMARK  status: ('A' for Active; 'I' for Inactive)
REMARK    1  A    between atoms: C_3  and  C_4
REMARK    2  A    between atoms: C_5  and  C_6
REMARK    3  A    between atoms: N_10  and  C_11
REMARK                            x       y       z     vdW  Elec       q    Type
REMARK                         _______ _______ _______ _____ _____    ______ ____
ROOT
ATOM      1  C   UNL     1       2.849   7.249  18.581  0.00  0.00    +0.000 C 
ATOM      2  C   UNL     1       3.095   6.050  19.113  0.00  0.00    +0.000 C 
ATOM      3  C   UNL     1       2.337   5.368  20.146  0.00  0.00    +0.000 C 
ATOM      4  C   UNL     1       1.023   5.822  20.690  0.00  0.00    +0.000 C 
ATOM      5  C   UNL     1       2.932   4.203  20.461  0.00  0.00    +0.000 C 
ATOM      6  C   UNL     1       4.102   4.050  19.573  0.00  0.00    +0.000 C 
ATOM      7  O   UNL     1       4.881   3.115  19.592  0.00  0.00    +0.000 OA
ATOM      8  N   UNL     1       4.111   5.186  18.755  0.00  0.00    +0.000 N 
ENDROOT
BRANCH   8   9
ATOM      9  C   UNL     1       4.967   5.246  17.626  0.00  0.00    +0.000 A 
ATOM     10  C   UNL     1       6.138   6.005  17.698  0.00  0.00    +0.000 A 
ATOM     11  C   UNL     1       7.043   5.991  16.634  0.00  0.00    +0.000 A 
ATOM     12  C   UNL     1       6.781   5.232  15.490  0.00  0.00    +0.000 A 
ATOM     13 CL   UNL     1       7.974   5.257  14.237  0.00  0.00    +0.000 Cl
ATOM     14  C   UNL     1       5.594   4.495  15.384  0.00  0.00    +0.000 A 
ATOM     15 CL   UNL     1       5.255   3.586  13.940  0.00  0.00    +0.000 Cl
ATOM     16  C   UNL     1       4.679   4.509  16.452  0.00  0.00    +0.000 A 
ATOM     17 CL   UNL     1       3.127   3.727  16.287  0.00  0.00    +0.000 Cl
ENDBRANCH   8   9
BRANCH   5  18
ATOM     18  C   UNL     1       2.510   3.230  21.382  0.00  0.00    +0.000 C 
ATOM     19  N   UNL     1       2.108   2.430  22.120  0.00  0.00    +0.000 NA
ENDBRANCH   5  18
TORSDOF 2
ENDMDL
MODEL 2
REMARK VINA RESULT:      -5.9      2.813      5.980
REMARK  Name = 
REMARK  3 active torsions:
REMARK  status: ('A' for Active; 'I' for Inactive)
REMARK    1  A    between atoms: C_3  and  C_4
REMARK    2  A    between atoms: C_5  and  C_6
REMARK    3  A    between atoms: N_10  and  C_11
REMARK                            x       y       z     vdW  Elec       q    Type
REMARK                         _______ _______ _______ _____ _____    ______ ____
ROOT
ATOM      1  C   UNL     1       4.635   3.255  16.049  0.00  0.00    +0.000 C 
ATOM      2  C   UNL     1       5.246   4.200  16.767  0.00  0.00    +0.000 C 
ATOM      3  C   UNL     1       6.139   5.239  16.285  0.00  0.00    +0.000 C 
ATOM      4  C   UNL     1       6.405   5.545  14.848  0.00  0.00    +0.000 C 
ATOM      5  C   UNL     1       6.602   5.964  17.319  0.00  0.00    +0.000 C 
ATOM      6  C   UNL     1       5.960   5.448  18.545  0.00  0.00    +0.000 C 
ATOM      7  O   UNL     1       6.160   5.864  19.671  0.00  0.00    +0.000 OA
ATOM      8  N   UNL     1       5.119   4.410  18.127  0.00  0.00    +0.000 N 
ENDROOT
BRANCH   8   9
ATOM      9  C   UNL     1       4.174   3.853  19.023  0.00  0.00    +0.000 A 
ATOM     10  C   UNL     1       4.523   2.720  19.765  0.00  0.00    +0.000 A 
ATOM     11  C   UNL     1       3.643   2.220  20.728  0.00  0.00    +0.000 A 
ATOM     12  C   UNL     1       2.408   2.838  20.948  0.00  0.00    +0.000 A 
ATOM     13 CL   UNL     1       1.398   2.162  22.181  0.00  0.00    +0.000 Cl
ATOM     14  C   UNL     1       2.024   3.950  20.188  0.00  0.00    +0.000 A 
ATOM     15 CL   UNL     1       0.469   4.686  20.438  0.00  0.00    +0.000 Cl
ATOM     16  C   UNL     1       2.906   4.454  19.215  0.00  0.00    +0.000 A 
ATOM     17 CL   UNL     1       2.396   5.739  18.150  0.00  0.00    +0.000 Cl
ENDBRANCH   8   9
BRANCH   5  18
ATOM     18  C   UNL     1       7.460   7.077  17.288  0.00  0.00    +0.000 C 
ATOM     19  N   UNL     1       8.120   8.030  17.273  0.00  0.00    +0.000 NA
ENDBRANCH   5  18
TORSDOF 2
ENDMDL
MODEL 3
REMARK VINA RESULT:      -5.7      6.170      7.827
REMARK  Name = 
REMARK  3 active torsions:
REMARK  status: ('A' for Active; 'I' for Inactive)
REMARK    1  A    between atoms: C_3  and  C_4
REMARK    2  A    between atoms: C_5  and  C_6
REMARK    3  A    between atoms: N_10  and  C_11
REMARK                            x       y       z     vdW  Elec       q    Type
REMARK                         _______ _______ _______ _____ _____    ______ ____
ROOT
ATOM      1  C   UNL     1      -1.964  10.742  18.536  0.00  0.00    +0.000 C 
ATOM      2  C   UNL     1      -1.207  11.293  19.487  0.00  0.00    +0.000 C 
ATOM      3  C   UNL     1      -1.591  12.320  20.438  0.00  0.00    +0.000 C 
ATOM      4  C   UNL     1      -2.980  12.833  20.636  0.00  0.00    +0.000 C 
ATOM      5  C   UNL     1      -0.537  12.661  21.200  0.00  0.00    +0.000 C 
ATOM      6  C   UNL     1       0.594  11.797  20.802  0.00  0.00    +0.000 C 
ATOM      7  O   UNL     1       1.714  11.843  21.276  0.00  0.00    +0.000 OA
ATOM      8  N   UNL     1       0.100  10.965  19.790  0.00  0.00    +0.000 N 
ENDROOT
BRANCH   8   9
ATOM      9  C   UNL     1       0.858   9.853  19.348  0.00  0.00    +0.000 A 
ATOM     10  C   UNL     1       1.562   9.943  18.143  0.00  0.00    +0.000 A 
ATOM     11  C   UNL     1       2.396   8.896  17.744  0.00  0.00    +0.000 A 
ATOM     12  C   UNL     1       2.525   7.751  18.536  0.00  0.00    +0.000 A 
ATOM     13 CL   UNL     1       3.603   6.520  17.972  0.00  0.00    +0.000 Cl
ATOM     14  C   UNL     1       1.798   7.626  19.727  0.00  0.00    +0.000 A 
ATOM     15 CL   UNL     1       1.930   6.181  20.685  0.00  0.00    +0.000 Cl
ATOM     16  C   UNL     1       0.955   8.676  20.130  0.00  0.00    +0.000 A 
ATOM     17 CL   UNL     1      -0.078   8.487  21.525  0.00  0.00    +0.000 Cl
ENDBRANCH   8   9
BRANCH   5  18
ATOM     18  C   UNL     1      -0.486  13.586  22.256  0.00  0.00    +0.000 C 
ATOM     19  N   UNL     1      -0.501  14.361  23.119  0.00  0.00    +0.000 NA
ENDBRANCH   5  18
TORSDOF 2
ENDMDL
MODEL 4
REMARK VINA RESULT:      -5.7      3.742      5.965
REMARK  Name = 
REMARK  3 active torsions:
REMARK  status: ('A' for Active; 'I' for Inactive)
REMARK    1  A    between atoms: C_3  and  C_4
REMARK    2  A    between atoms: C_5  and  C_6
REMARK    3  A    between atoms: N_10  and  C_11
REMARK                            x       y       z     vdW  Elec       q    Type
REMARK                         _______ _______ _______ _____ _____    ______ ____
ROOT
ATOM      1  C   UNL     1       1.792   4.409  17.857  0.00  0.00    +0.000 C 
ATOM      2  C   UNL     1       3.043   4.853  17.717  0.00  0.00    +0.000 C 
ATOM      3  C   UNL     1       4.168   4.155  17.123  0.00  0.00    +0.000 C 
ATOM      4  C   UNL     1       4.086   2.854  16.395  0.00  0.00    +0.000 C 
ATOM      5  C   UNL     1       5.279   4.907  17.219  0.00  0.00    +0.000 C 
ATOM      6  C   UNL     1       4.894   6.189  17.843  0.00  0.00    +0.000 C 
ATOM      7  O   UNL     1       5.655   7.104  18.097  0.00  0.00    +0.000 OA
ATOM      8  N   UNL     1       3.516   6.100  18.077  0.00  0.00    +0.000 N 
ENDROOT
BRANCH   8   9
ATOM      9  C   UNL     1       2.781   7.252  18.451  0.00  0.00    +0.000 A 
ATOM     10  C   UNL     1       2.676   8.316  17.550  0.00  0.00    +0.000 A 
ATOM     11  C   UNL     1       1.870   9.414  17.860  0.00  0.00    +0.000 A 
ATOM     12  C   UNL     1       1.174   9.462  19.072  0.00  0.00    +0.000 A 
ATOM     13 CL   UNL     1       0.180  10.851  19.354  0.00  0.00    +0.000 Cl
ATOM     14  C   UNL     1       1.297   8.424  20.004  0.00  0.00    +0.000 A 
ATOM     15 CL   UNL     1       0.462   8.511  21.527  0.00  0.00    +0.000 Cl
ATOM     16  C   UNL     1       2.110   7.318  19.697  0.00  0.00    +0.000 A 
ATOM     17 CL   UNL     1       2.404   6.085  20.896  0.00  0.00    +0.000 Cl
ENDBRANCH   8   9
BRANCH   5  18
ATOM     18  C   UNL     1       6.571   4.620  16.744  0.00  0.00    +0.000 C 
ATOM     19  N   UNL     1       7.657   4.424  16.388  0.00  0.00    +0.000 NA
ENDBRANCH   5  18
TORSDOF 2
ENDMDL
MODEL 5
REMARK VINA RESULT:      -5.6      3.115      5.874
REMARK  Name = 
REMARK  3 active torsions:
REMARK  status: ('A' for Active; 'I' for Inactive)
REMARK    1  A    between atoms: C_3  and  C_4
REMARK    2  A    between atoms: C_5  and  C_6
REMARK    3  A    between atoms: N_10  and  C_11
REMARK                            x       y       z     vdW  Elec       q    Type
REMARK                         _______ _______ _______ _____ _____    ______ ____
ROOT
ATOM      1  C   UNL     1       2.267   3.921  17.112  0.00  0.00    +0.000 C 
ATOM      2  C   UNL     1       3.466   4.306  17.554  0.00  0.00    +0.000 C 
ATOM      3  C   UNL     1       4.765   3.950  17.012  0.00  0.00    +0.000 C 
ATOM      4  C   UNL     1       4.990   3.208  15.735  0.00  0.00    +0.000 C 
ATOM      5  C   UNL     1       5.741   4.486  17.765  0.00  0.00    +0.000 C 
ATOM      6  C   UNL     1       5.094   5.289  18.822  0.00  0.00    +0.000 C 
ATOM      7  O   UNL     1       5.679   5.904  19.694  0.00  0.00    +0.000 OA
ATOM      8  N   UNL     1       3.717   5.167  18.604  0.00  0.00    +0.000 N 
ENDROOT
BRANCH   8   9
ATOM      9  C   UNL     1       2.808   6.005  19.298  0.00  0.00    +0.000 A 
ATOM     10  C   UNL     1       2.187   5.526  20.455  0.00  0.00    +0.000 A 
ATOM     11  C   UNL     1       1.370   6.373  21.208  0.00  0.00    +0.000 A 
ATOM     12  C   UNL     1       1.158   7.695  20.806  0.00  0.00    +0.000 A 
ATOM     13 CL   UNL     1       0.152   8.674  21.818  0.00  0.00    +0.000 Cl
ATOM     14  C   UNL     1       1.740   8.181  19.628  0.00  0.00    +0.000 A 
ATOM     15 CL   UNL     1       1.438   9.814  19.112  0.00  0.00    +0.000 Cl
ATOM     16  C   UNL     1       2.561   7.331  18.866  0.00  0.00    +0.000 A 
ATOM     17 CL   UNL     1       3.175   7.858  17.319  0.00  0.00    +0.000 Cl
ENDBRANCH   8   9
BRANCH   5  18
ATOM     18  C   UNL     1       7.132   4.413  17.572  0.00  0.00    +0.000 C 
ATOM     19  N   UNL     1       8.284   4.334  17.469  0.00  0.00    +0.000 NA
ENDBRANCH   5  18
TORSDOF 2
ENDMDL
MODEL 6
REMARK VINA RESULT:      -5.5      3.683      5.724
REMARK  Name = 
REMARK  3 active torsions:
REMARK  status: ('A' for Active; 'I' for Inactive)
REMARK    1  A    between atoms: C_3  and  C_4
REMARK    2  A    between atoms: C_5  and  C_6
REMARK    3  A    between atoms: N_10  and  C_11
REMARK                            x       y       z     vdW  Elec       q    Type
REMARK                         _______ _______ _______ _____ _____    ______ ____
ROOT
ATOM      1  C   UNL     1       5.408   7.161  17.322  0.00  0.00    +0.000 C 
ATOM      2  C   UNL     1       4.568   6.150  17.554  0.00  0.00    +0.000 C 
ATOM      3  C   UNL     1       4.853   4.728  17.483  0.00  0.00    +0.000 C 
ATOM      4  C   UNL     1       6.209   4.132  17.297  0.00  0.00    +0.000 C 
ATOM      5  C   UNL     1       3.735   4.021  17.726  0.00  0.00    +0.000 C 
ATOM      6  C   UNL     1       2.660   4.985  18.036  0.00  0.00    +0.000 C 
ATOM      7  O   UNL     1       1.507   4.693  18.292  0.00  0.00    +0.000 OA
ATOM      8  N   UNL     1       3.250   6.252  17.955  0.00  0.00    +0.000 N 
ENDROOT
BRANCH   8   9
ATOM      9  C   UNL     1       2.555   7.394  18.428  0.00  0.00    +0.000 A 
ATOM     10  C   UNL     1       2.319   8.458  17.552  0.00  0.00    +0.000 A 
ATOM     11  C   UNL     1       1.547   9.545  17.971  0.00  0.00    +0.000 A 
ATOM     12  C   UNL     1       1.016   9.582  19.263  0.00  0.00    +0.000 A 
ATOM     13 CL   UNL     1       0.050  10.956  19.679  0.00  0.00    +0.000 Cl
ATOM     14  C   UNL     1       1.274   8.543  20.167  0.00  0.00    +0.000 A 
ATOM     15 CL   UNL     1       0.646   8.616  21.787  0.00  0.00    +0.000 Cl
ATOM     16  C   UNL     1       2.054   7.449  19.751  0.00  0.00    +0.000 A 
ATOM     17 CL   UNL     1       2.519   6.216  20.897  0.00  0.00    +0.000 Cl
ENDBRANCH   8   9
BRANCH   5  18
ATOM     18  C   UNL     1       3.582   2.625  17.785  0.00  0.00    +0.000 C 
ATOM     19  N   UNL     1       3.497   1.472  17.876  0.00  0.00    +0.000 NA
ENDBRANCH   5  18
TORSDOF 2
ENDMDL
MODEL 7
REMARK VINA RESULT:      -5.5      3.100      4.271
REMARK  Name = 
REMARK  3 active torsions:
REMARK  status: ('A' for Active; 'I' for Inactive)
REMARK    1  A    between atoms: C_3  and  C_4
REMARK    2  A    between atoms: C_5  and  C_6
REMARK    3  A    between atoms: N_10  and  C_11
REMARK                            x       y       z     vdW  Elec       q    Type
REMARK                         _______ _______ _______ _____ _____    ______ ____
ROOT
ATOM      1  C   UNL     1       2.185   6.140  20.854  0.00  0.00    +0.000 C 
ATOM      2  C   UNL     1       1.987   7.206  20.076  0.00  0.00    +0.000 C 
ATOM      3  C   UNL     1       1.278   8.428  20.412  0.00  0.00    +0.000 C 
ATOM      4  C   UNL     1       0.779   8.785  21.773  0.00  0.00    +0.000 C 
ATOM      5  C   UNL     1       1.239   9.246  19.346  0.00  0.00    +0.000 C 
ATOM      6  C   UNL     1       1.998   8.594  18.259  0.00  0.00    +0.000 C 
ATOM      7  O   UNL     1       2.155   9.049  17.141  0.00  0.00    +0.000 OA
ATOM      8  N   UNL     1       2.458   7.383  18.789  0.00  0.00    +0.000 N 
ENDROOT
BRANCH   8   9
ATOM      9  C   UNL     1       3.421   6.617  18.087  0.00  0.00    +0.000 A 
ATOM     10  C   UNL     1       4.663   7.188  17.794  0.00  0.00    +0.000 A 
ATOM     11  C   UNL     1       5.661   6.414  17.195  0.00  0.00    +0.000 A 
ATOM     12  C   UNL     1       5.423   5.074  16.876  0.00  0.00    +0.000 A 
ATOM     13 CL   UNL     1       6.729   4.191  16.162  0.00  0.00    +0.000 Cl
ATOM     14  C   UNL     1       4.172   4.495  17.126  0.00  0.00    +0.000 A 
ATOM     15 CL   UNL     1       3.870   2.841  16.687  0.00  0.00    +0.000 Cl
ATOM     16  C   UNL     1       3.164   5.272  17.726  0.00  0.00    +0.000 A 
ATOM     17 CL   UNL     1       1.552   4.627  17.910  0.00  0.00    +0.000 Cl
ENDBRANCH   8   9
BRANCH   5  18
ATOM     18  C   UNL     1       0.681  10.533  19.254  0.00  0.00    +0.000 C 
ATOM     19  N   UNL     1       0.178  11.577  19.216  0.00  0.00    +0.000 NA
ENDBRANCH   5  18
TORSDOF 2
ENDMDL
MODEL 8
REMARK VINA RESULT:      -5.3      8.763     11.204
REMARK  Name = 
REMARK  3 active torsions:
REMARK  status: ('A' for Active; 'I' for Inactive)
REMARK    1  A    between atoms: C_3  and  C_4
REMARK    2  A    between atoms: C_5  and  C_6
REMARK    3  A    between atoms: N_10  and  C_11
REMARK                            x       y       z     vdW  Elec       q    Type
REMARK                         _______ _______ _______ _____ _____    ______ ____
ROOT
ATOM      1  C   UNL     1      -2.114  12.217  19.429  0.00  0.00    +0.000 C 
ATOM      2  C   UNL     1      -1.346  11.450  20.206  0.00  0.00    +0.000 C 
ATOM      3  C   UNL     1      -0.463  10.375  19.792  0.00  0.00    +0.000 C 
ATOM      4  C   UNL     1      -0.120  10.040  18.378  0.00  0.00    +0.000 C 
ATOM      5  C   UNL     1       0.097   9.798  20.870  0.00  0.00    +0.000 C 
ATOM      6  C   UNL     1      -0.367  10.538  22.060  0.00  0.00    +0.000 C 
ATOM      7  O   UNL     1      -0.069  10.277  23.211  0.00  0.00    +0.000 OA
ATOM      8  N   UNL     1      -1.204  11.552  21.576  0.00  0.00    +0.000 N 
ENDROOT
BRANCH   8   9
ATOM      9  C   UNL     1      -1.631  12.594  22.435  0.00  0.00    +0.000 A 
ATOM     10  C   UNL     1      -2.861  12.476  23.090  0.00  0.00    +0.000 A 
ATOM     11  C   UNL     1      -3.251  13.444  24.019  0.00  0.00    +0.000 A 
ATOM     12  C   UNL     1      -2.424  14.538  24.292  0.00  0.00    +0.000 A 
ATOM     13 CL   UNL     1      -2.981  15.669  25.478  0.00  0.00    +0.000 Cl
ATOM     14  C   UNL     1      -1.206  14.694  23.618  0.00  0.00    +0.000 A 
ATOM     15 CL   UNL     1      -0.203  16.079  23.931  0.00  0.00    +0.000 Cl
ATOM     16  C   UNL     1      -0.812  13.723  22.680  0.00  0.00    +0.000 A 
ATOM     17 CL   UNL     1       0.623  13.967  21.715  0.00  0.00    +0.000 Cl
ENDBRANCH   8   9
BRANCH   5  18
ATOM     18  C   UNL     1       1.032   8.748  20.911  0.00  0.00    +0.000 C 
ATOM     19  N   UNL     1       1.759   7.845  20.930  0.00  0.00    +0.000 NA
ENDBRANCH   5  18
TORSDOF 2
ENDMDL
MODEL 9
REMARK VINA RESULT:      -5.2      5.942      7.753
REMARK  Name = 
REMARK  3 active torsions:
REMARK  status: ('A' for Active; 'I' for Inactive)
REMARK    1  A    between atoms: C_3  and  C_4
REMARK    2  A    between atoms: C_5  and  C_6
REMARK    3  A    between atoms: N_10  and  C_11
REMARK                            x       y       z     vdW  Elec       q    Type
REMARK                         _______ _______ _______ _____ _____    ______ ____
ROOT
ATOM      1  C   UNL     1      -1.710   9.970  18.332  0.00  0.00    +0.000 C 
ATOM      2  C   UNL     1      -1.173  10.726  19.292  0.00  0.00    +0.000 C 
ATOM      3  C   UNL     1      -1.726  11.933  19.880  0.00  0.00    +0.000 C 
ATOM      4  C   UNL     1      -3.099  12.461  19.629  0.00  0.00    +0.000 C 
ATOM      5  C   UNL     1      -0.864  12.445  20.777  0.00  0.00    +0.000 C 
ATOM      6  C   UNL     1       0.292  11.527  20.854  0.00  0.00    +0.000 C 
ATOM      7  O   UNL     1       1.272  11.689  21.557  0.00  0.00    +0.000 OA
ATOM      8  N   UNL     1       0.013  10.488  19.958  0.00  0.00    +0.000 N 
ENDROOT
BRANCH   8   9
ATOM      9  C   UNL     1       0.807   9.314  19.959  0.00  0.00    +0.000 A 
ATOM     10  C   UNL     1       0.669   8.399  21.008  0.00  0.00    +0.000 A 
ATOM     11  C   UNL     1       1.367   7.189  20.972  0.00  0.00    +0.000 A 
ATOM     12  C   UNL     1       2.212   6.890  19.899  0.00  0.00    +0.000 A 
ATOM     13 CL   UNL     1       3.011   5.355  19.931  0.00  0.00    +0.000 Cl
ATOM     14  C   UNL     1       2.393   7.811  18.859  0.00  0.00    +0.000 A 
ATOM     15 CL   UNL     1       3.478   7.449  17.550  0.00  0.00    +0.000 Cl
ATOM     16  C   UNL     1       1.694   9.031  18.893  0.00  0.00    +0.000 A 
ATOM     17 CL   UNL     1       2.015  10.259  17.694  0.00  0.00    +0.000 Cl
ENDBRANCH   8   9
BRANCH   5  18
ATOM     18  C   UNL     1      -1.022  13.581  21.589  0.00  0.00    +0.000 C 
ATOM     19  N   UNL     1      -1.100  14.538  22.239  0.00  0.00    +0.000 NA
ENDBRANCH   5  18
TORSDOF 2
ENDMDL
