MODEL 1
REMARK VINA RESULT:      -8.2      0.000      0.000
REMARK  Name = 
REMARK  6 active torsions:
REMARK  status: ('A' for Active; 'I' for Inactive)
REMARK    1  A    between atoms: C_1  and  C_2
REMARK    2  A    between atoms: C_2  and  C_3
REMARK    3  A    between atoms: C_4  and  C_5
REMARK    4  A    between atoms: C_11  and  C_12
REMARK    5  A    between atoms: C_12  and  O_13
REMARK    6  A    between atoms: O_13  and  N_14
REMARK                            x       y       z     vdW  Elec       q    Type
REMARK                         _______ _______ _______ _____ _____    ______ ____
ROOT
ATOM      1  C   UNL     1       6.256   7.341  16.838  0.00  0.00    +0.000 C 
ATOM      2  C   UNL     1       7.364   7.207  17.849  0.00  0.00    +0.000 C 
ATOM      3  C   UNL     1       7.701   6.019  18.393  0.00  0.00    +0.000 C 
ENDROOT
BRANCH   2   4
ATOM      4  C   UNL     1       8.107   8.385  18.203  0.00  0.00    +0.000 C 
ATOM      5  C   UNL     1       8.753   9.351  18.514  0.00  0.00    +0.000 C 
BRANCH   5   6
ATOM      6  C   UNL     1       9.530  10.503  18.886  0.00  0.00    +0.000 A 
ATOM      7  C   UNL     1      10.221  11.234  17.915  0.00  0.00    +0.000 A 
ATOM      8  C   UNL     1      11.001  12.336  18.283  0.00  0.00    +0.000 A 
ATOM      9  C   UNL     1      11.089  12.715  19.622  0.00  0.00    +0.000 A 
ATOM     10  C   UNL     1      10.390  12.000  20.593  0.00  0.00    +0.000 A 
ATOM     11  C   UNL     1       9.610  10.896  20.226  0.00  0.00    +0.000 A 
ENDBRANCH   5   6
ENDBRANCH   2   4
BRANCH   3  12
ATOM     12  C   UNL     1       7.043   4.697  18.096  0.00  0.00    +0.000 C 
BRANCH  12  13
ATOM     13  O   UNL     1       6.215   4.299  19.203  0.00  0.00    +0.000 OA
BRANCH  13  14
ATOM     14  N   UNL     1       4.958   4.924  19.063  0.00  0.00    +0.000 NA
ATOM     15  C   UNL     1       3.998   4.062  19.181  0.00  0.00    +0.000 C 
ATOM     16  C   UNL     1       4.082   2.570  19.410  0.00  0.00    +0.000 C 
ATOM     17  N   UNL     1       2.623   2.203  19.395  0.00  0.00    +0.000 NA
ATOM     18  C   UNL     1       2.120   2.345  17.995  0.00  0.00    +0.000 C 
ATOM     19  C   UNL     1       2.051   3.863  17.747  0.00  0.00    +0.000 C 
ATOM     20  C   UNL     1       2.541   4.426  19.078  0.00  0.00    +0.000 C 
ATOM     21  C   UNL     1       2.000   3.392  20.054  0.00  0.00    +0.000 C 
ENDBRANCH  13  14
ENDBRANCH  12  13
ENDBRANCH   3  12
TORSDOF 5
ENDMDL
MODEL 2
REMARK VINA RESULT:      -8.1      1.036      1.669
REMARK  Name = 
REMARK  6 active torsions:
REMARK  status: ('A' for Active; 'I' for Inactive)
REMARK    1  A    between atoms: C_1  and  C_2
REMARK    2  A    between atoms: C_2  and  C_3
REMARK    3  A    between atoms: C_4  and  C_5
REMARK    4  A    between atoms: C_11  and  C_12
REMARK    5  A    between atoms: C_12  and  O_13
REMARK    6  A    between atoms: O_13  and  N_14
REMARK                            x       y       z     vdW  Elec       q    Type
REMARK                         _______ _______ _______ _____ _____    ______ ____
ROOT
ATOM      1  C   UNL     1       7.870   5.768  18.726  0.00  0.00    +0.000 C 
ATOM      2  C   UNL     1       7.459   7.014  17.987  0.00  0.00    +0.000 C 
ATOM      3  C   UNL     1       6.451   7.016  17.088  0.00  0.00    +0.000 C 
ENDROOT
BRANCH   2   4
ATOM      4  C   UNL     1       8.141   8.241  18.291  0.00  0.00    +0.000 C 
ATOM      5  C   UNL     1       8.728   9.253  18.573  0.00  0.00    +0.000 C 
BRANCH   5   6
ATOM      6  C   UNL     1       9.434  10.459  18.912  0.00  0.00    +0.000 A 
ATOM      7  C   UNL     1      10.026  11.237  17.913  0.00  0.00    +0.000 A 
ATOM      8  C   UNL     1      10.739  12.395  18.248  0.00  0.00    +0.000 A 
ATOM      9  C   UNL     1      10.857  12.781  19.583  0.00  0.00    +0.000 A 
ATOM     10  C   UNL     1      10.256  12.018  20.583  0.00  0.00    +0.000 A 
ATOM     11  C   UNL     1       9.544  10.859  20.248  0.00  0.00    +0.000 A 
ENDBRANCH   5   6
ENDBRANCH   2   4
BRANCH   3  12
ATOM     12  C   UNL     1       5.623   5.822  16.692  0.00  0.00    +0.000 C 
BRANCH  12  13
ATOM     13  O   UNL     1       4.355   5.855  17.369  0.00  0.00    +0.000 OA
BRANCH  13  14
ATOM     14  N   UNL     1       4.426   4.993  18.484  0.00  0.00    +0.000 NA
ATOM     15  C   UNL     1       3.676   3.951  18.311  0.00  0.00    +0.000 C 
ATOM     16  C   UNL     1       2.785   3.605  17.140  0.00  0.00    +0.000 C 
ATOM     17  N   UNL     1       2.187   2.310  17.617  0.00  0.00    +0.000 NA
ATOM     18  C   UNL     1       1.244   2.615  18.736  0.00  0.00    +0.000 C 
ATOM     19  C   UNL     1       2.145   2.989  19.928  0.00  0.00    +0.000 C 
ATOM     20  C   UNL     1       3.541   2.850  19.328  0.00  0.00    +0.000 C 
ATOM     21  C   UNL     1       3.333   1.697  18.358  0.00  0.00    +0.000 C 
ENDBRANCH  13  14
ENDBRANCH  12  13
ENDBRANCH   3  12
TORSDOF 5
ENDMDL
MODEL 3
REMARK VINA RESULT:      -8.0      1.035      2.043
REMARK  Name = 
REMARK  6 active torsions:
REMARK  status: ('A' for Active; 'I' for Inactive)
REMARK    1  A    between atoms: C_1  and  C_2
REMARK    2  A    between atoms: C_2  and  C_3
REMARK    3  A    between atoms: C_4  and  C_5
REMARK    4  A    between atoms: C_11  and  C_12
REMARK    5  A    between atoms: C_12  and  O_13
REMARK    6  A    between atoms: O_13  and  N_14
REMARK                            x       y       z     vdW  Elec       q    Type
REMARK                         _______ _______ _______ _____ _____    ______ ____
ROOT
ATOM      1  C   UNL     1       7.781   5.674  18.255  0.00  0.00    +0.000 C 
ATOM      2  C   UNL     1       7.285   7.018  17.790  0.00  0.00    +0.000 C 
ATOM      3  C   UNL     1       6.143   7.158  17.085  0.00  0.00    +0.000 C 
ENDROOT
BRANCH   2   4
ATOM      4  C   UNL     1       8.042   8.184  18.155  0.00  0.00    +0.000 C 
ATOM      5  C   UNL     1       8.644   9.178  18.467  0.00  0.00    +0.000 C 
BRANCH   5   6
ATOM      6  C   UNL     1       9.361  10.366  18.845  0.00  0.00    +0.000 A 
ATOM      7  C   UNL     1       9.514  10.702  20.193  0.00  0.00    +0.000 A 
ATOM      8  C   UNL     1      10.186  11.875  20.557  0.00  0.00    +0.000 A 
ATOM      9  C   UNL     1      10.710  12.714  19.574  0.00  0.00    +0.000 A 
ATOM     10  C   UNL     1      10.575  12.377  18.228  0.00  0.00    +0.000 A 
ATOM     11  C   UNL     1       9.902  11.204  17.864  0.00  0.00    +0.000 A 
ENDBRANCH   5   6
ENDBRANCH   2   4
BRANCH   3  12
ATOM     12  C   UNL     1       5.229   6.039  16.660  0.00  0.00    +0.000 C 
BRANCH  12  13
ATOM     13  O   UNL     1       4.065   6.007  17.504  0.00  0.00    +0.000 OA
BRANCH  13  14
ATOM     14  N   UNL     1       4.273   5.039  18.509  0.00  0.00    +0.000 NA
ATOM     15  C   UNL     1       3.343   4.137  18.481  0.00  0.00    +0.000 C 
ATOM     16  C   UNL     1       2.141   4.038  17.570  0.00  0.00    +0.000 C 
ATOM     17  N   UNL     1       1.479   2.801  18.114  0.00  0.00    +0.000 NA
ATOM     18  C   UNL     1       0.912   3.128  19.458  0.00  0.00    +0.000 C 
ATOM     19  C   UNL     1       2.133   3.250  20.388  0.00  0.00    +0.000 C 
ATOM     20  C   UNL     1       3.290   2.972  19.433  0.00  0.00    +0.000 C 
ATOM     21  C   UNL     1       2.659   1.961  18.489  0.00  0.00    +0.000 C 
ENDBRANCH  13  14
ENDBRANCH  12  13
ENDBRANCH   3  12
TORSDOF 5
ENDMDL
MODEL 4
REMARK VINA RESULT:      -7.9      0.878      1.600
REMARK  Name = 
REMARK  6 active torsions:
REMARK  status: ('A' for Active; 'I' for Inactive)
REMARK    1  A    between atoms: C_1  and  C_2
REMARK    2  A    between atoms: C_2  and  C_3
REMARK    3  A    between atoms: C_4  and  C_5
REMARK    4  A    between atoms: C_11  and  C_12
REMARK    5  A    between atoms: C_12  and  O_13
REMARK    6  A    between atoms: O_13  and  N_14
REMARK                            x       y       z     vdW  Elec       q    Type
REMARK                         _______ _______ _______ _____ _____    ______ ____
ROOT
ATOM      1  C   UNL     1       6.061   7.323  16.893  0.00  0.00    +0.000 C 
ATOM      2  C   UNL     1       7.310   7.153  17.716  0.00  0.00    +0.000 C 
ATOM      3  C   UNL     1       7.788   5.936  18.055  0.00  0.00    +0.000 C 
ENDROOT
BRANCH   2   4
ATOM      4  C   UNL     1       8.031   8.332  18.109  0.00  0.00    +0.000 C 
ATOM      5  C   UNL     1       8.655   9.299  18.459  0.00  0.00    +0.000 C 
BRANCH   5   6
ATOM      6  C   UNL     1       9.405  10.453  18.879  0.00  0.00    +0.000 A 
ATOM      7  C   UNL     1       9.503  10.777  20.235  0.00  0.00    +0.000 A 
ATOM      8  C   UNL     1      10.208  11.917  20.639  0.00  0.00    +0.000 A 
ATOM      9  C   UNL     1      10.821  12.734  19.689  0.00  0.00    +0.000 A 
ATOM     10  C   UNL     1      10.740  12.407  18.336  0.00  0.00    +0.000 A 
ATOM     11  C   UNL     1      10.034  11.267  17.931  0.00  0.00    +0.000 A 
ENDBRANCH   5   6
ENDBRANCH   2   4
BRANCH   3  12
ATOM     12  C   UNL     1       7.166   4.614  17.688  0.00  0.00    +0.000 C 
BRANCH  12  13
ATOM     13  O   UNL     1       5.933   4.434  18.405  0.00  0.00    +0.000 OA
BRANCH  13  14
ATOM     14  N   UNL     1       4.985   3.874  17.523  0.00  0.00    +0.000 NA
ATOM     15  C   UNL     1       3.793   3.933  18.027  0.00  0.00    +0.000 C 
ATOM     16  C   UNL     1       3.353   4.475  19.368  0.00  0.00    +0.000 C 
ATOM     17  N   UNL     1       1.877   4.188  19.315  0.00  0.00    +0.000 NA
ATOM     18  C   UNL     1       1.685   2.709  19.420  0.00  0.00    +0.000 C 
ATOM     19  C   UNL     1       2.150   2.148  18.064  0.00  0.00    +0.000 C 
ATOM     20  C   UNL     1       2.569   3.414  17.322  0.00  0.00    +0.000 C 
ATOM     21  C   UNL     1       1.571   4.422  17.870  0.00  0.00    +0.000 C 
ENDBRANCH  13  14
ENDBRANCH  12  13
ENDBRANCH   3  12
TORSDOF 5
ENDMDL
MODEL 5
REMARK VINA RESULT:      -7.9      1.178      1.807
REMARK  Name = 
REMARK  6 active torsions:
REMARK  status: ('A' for Active; 'I' for Inactive)
REMARK    1  A    between atoms: C_1  and  C_2
REMARK    2  A    between atoms: C_2  and  C_3
REMARK    3  A    between atoms: C_4  and  C_5
REMARK    4  A    between atoms: C_11  and  C_12
REMARK    5  A    between atoms: C_12  and  O_13
REMARK    6  A    between atoms: O_13  and  N_14
REMARK                            x       y       z     vdW  Elec       q    Type
REMARK                         _______ _______ _______ _____ _____    ______ ____
ROOT
ATOM      1  C   UNL     1       6.548   7.137  16.863  0.00  0.00    +0.000 C 
ATOM      2  C   UNL     1       7.560   7.362  17.956  0.00  0.00    +0.000 C 
ATOM      3  C   UNL     1       7.935   6.378  18.801  0.00  0.00    +0.000 C 
ENDROOT
BRANCH   2   4
ATOM      4  C   UNL     1       8.169   8.659  18.061  0.00  0.00    +0.000 C 
ATOM      5  C   UNL     1       8.682   9.740  18.185  0.00  0.00    +0.000 C 
BRANCH   5   6
ATOM      6  C   UNL     1       9.297  11.032  18.337  0.00  0.00    +0.000 A 
ATOM      7  C   UNL     1      10.449  11.179  19.115  0.00  0.00    +0.000 A 
ATOM      8  C   UNL     1      11.029  12.441  19.286  0.00  0.00    +0.000 A 
ATOM      9  C   UNL     1      10.462  13.560  18.676  0.00  0.00    +0.000 A 
ATOM     10  C   UNL     1       9.323  13.417  17.885  0.00  0.00    +0.000 A 
ATOM     11  C   UNL     1       8.741  12.154  17.715  0.00  0.00    +0.000 A 
ENDBRANCH   5   6
ENDBRANCH   2   4
BRANCH   3  12
ATOM     12  C   UNL     1       7.415   4.965  18.792  0.00  0.00    +0.000 C 
BRANCH  12  13
ATOM     13  O   UNL     1       6.245   4.865  19.622  0.00  0.00    +0.000 OA
BRANCH  13  14
ATOM     14  N   UNL     1       5.405   3.867  19.086  0.00  0.00    +0.000 NA
ATOM     15  C   UNL     1       4.175   4.271  19.045  0.00  0.00    +0.000 C 
ATOM     16  C   UNL     1       3.591   5.589  19.499  0.00  0.00    +0.000 C 
ATOM     17  N   UNL     1       2.133   5.364  19.208  0.00  0.00    +0.000 NA
ATOM     18  C   UNL     1       1.611   4.360  20.186  0.00  0.00    +0.000 C 
ATOM     19  C   UNL     1       2.218   3.017  19.741  0.00  0.00    +0.000 C 
ATOM     20  C   UNL     1       3.043   3.427  18.524  0.00  0.00    +0.000 C 
ATOM     21  C   UNL     1       2.192   4.551  17.954  0.00  0.00    +0.000 C 
ENDBRANCH  13  14
ENDBRANCH  12  13
ENDBRANCH   3  12
TORSDOF 5
ENDMDL
MODEL 6
REMARK VINA RESULT:      -7.9      1.253      2.065
REMARK  Name = 
REMARK  6 active torsions:
REMARK  status: ('A' for Active; 'I' for Inactive)
REMARK    1  A    between atoms: C_1  and  C_2
REMARK    2  A    between atoms: C_2  and  C_3
REMARK    3  A    between atoms: C_4  and  C_5
REMARK    4  A    between atoms: C_11  and  C_12
REMARK    5  A    between atoms: C_12  and  O_13
REMARK    6  A    between atoms: O_13  and  N_14
REMARK                            x       y       z     vdW  Elec       q    Type
REMARK                         _______ _______ _______ _____ _____    ______ ____
ROOT
ATOM      1  C   UNL     1       7.745   5.767  19.033  0.00  0.00    +0.000 C 
ATOM      2  C   UNL     1       7.657   6.883  18.027  0.00  0.00    +0.000 C 
ATOM      3  C   UNL     1       6.986   6.751  16.863  0.00  0.00    +0.000 C 
ENDROOT
BRANCH   2   4
ATOM      4  C   UNL     1       8.275   8.140  18.351  0.00  0.00    +0.000 C 
ATOM      5  C   UNL     1       8.761   9.203  18.634  0.00  0.00    +0.000 C 
BRANCH   5   6
ATOM      6  C   UNL     1       9.340  10.475  18.977  0.00  0.00    +0.000 A 
ATOM      7  C   UNL     1       9.492  10.844  20.317  0.00  0.00    +0.000 A 
ATOM      8  C   UNL     1      10.027  12.094  20.648  0.00  0.00    +0.000 A 
ATOM      9  C   UNL     1      10.415  12.978  19.641  0.00  0.00    +0.000 A 
ATOM     10  C   UNL     1      10.281  12.609  18.304  0.00  0.00    +0.000 A 
ATOM     11  C   UNL     1       9.744  11.358  17.972  0.00  0.00    +0.000 A 
ENDBRANCH   5   6
ENDBRANCH   2   4
BRANCH   3  12
ATOM     12  C   UNL     1       6.261   5.514  16.402  0.00  0.00    +0.000 C 
BRANCH  12  13
ATOM     13  O   UNL     1       4.885   5.567  16.815  0.00  0.00    +0.000 OA
BRANCH  13  14
ATOM     14  N   UNL     1       4.301   4.305  16.574  0.00  0.00    +0.000 NA
ATOM     15  C   UNL     1       3.502   3.974  17.539  0.00  0.00    +0.000 C 
ATOM     16  C   UNL     1       3.177   4.730  18.807  0.00  0.00    +0.000 C 
ATOM     17  N   UNL     1       2.240   3.763  19.477  0.00  0.00    +0.000 NA
ATOM     18  C   UNL     1       3.035   2.582  19.932  0.00  0.00    +0.000 C 
ATOM     19  C   UNL     1       3.387   1.816  18.643  0.00  0.00    +0.000 C 
ATOM     20  C   UNL     1       2.732   2.681  17.570  0.00  0.00    +0.000 C 
ATOM     21  C   UNL     1       1.503   3.190  18.308  0.00  0.00    +0.000 C 
ENDBRANCH  13  14
ENDBRANCH  12  13
ENDBRANCH   3  12
TORSDOF 5
ENDMDL
MODEL 7
REMARK VINA RESULT:      -7.9      0.639      1.213
REMARK  Name = 
REMARK  6 active torsions:
REMARK  status: ('A' for Active; 'I' for Inactive)
REMARK    1  A    between atoms: C_1  and  C_2
REMARK    2  A    between atoms: C_2  and  C_3
REMARK    3  A    between atoms: C_4  and  C_5
REMARK    4  A    between atoms: C_11  and  C_12
REMARK    5  A    between atoms: C_12  and  O_13
REMARK    6  A    between atoms: O_13  and  N_14
REMARK                            x       y       z     vdW  Elec       q    Type
REMARK                         _______ _______ _______ _____ _____    ______ ____
ROOT
ATOM      1  C   UNL     1       7.076   6.789  16.356  0.00  0.00    +0.000 C 
ATOM      2  C   UNL     1       7.506   6.959  17.789  0.00  0.00    +0.000 C 
ATOM      3  C   UNL     1       7.359   5.978  18.705  0.00  0.00    +0.000 C 
ENDROOT
BRANCH   2   4
ATOM      4  C   UNL     1       8.131   8.196  18.169  0.00  0.00    +0.000 C 
ATOM      5  C   UNL     1       8.681   9.213  18.501  0.00  0.00    +0.000 C 
BRANCH   5   6
ATOM      6  C   UNL     1       9.343  10.427  18.899  0.00  0.00    +0.000 A 
ATOM      7  C   UNL     1       9.643  10.660  20.244  0.00  0.00    +0.000 A 
ATOM      8  C   UNL     1      10.260  11.856  20.632  0.00  0.00    +0.000 A 
ATOM      9  C   UNL     1      10.583  12.818  19.676  0.00  0.00    +0.000 A 
ATOM     10  C   UNL     1      10.301  12.584  18.331  0.00  0.00    +0.000 A 
ATOM     11  C   UNL     1       9.683  11.389  17.943  0.00  0.00    +0.000 A 
ENDBRANCH   5   6
ENDBRANCH   2   4
BRANCH   3  12
ATOM     12  C   UNL     1       6.757   4.621  18.451  0.00  0.00    +0.000 C 
BRANCH  12  13
ATOM     13  O   UNL     1       5.754   4.334  19.440  0.00  0.00    +0.000 OA
BRANCH  13  14
ATOM     14  N   UNL     1       4.592   5.065  19.117  0.00  0.00    +0.000 NA
ATOM     15  C   UNL     1       3.525   4.382  19.389  0.00  0.00    +0.000 C 
ATOM     16  C   UNL     1       3.408   2.983  19.948  0.00  0.00    +0.000 C 
ATOM     17  N   UNL     1       1.914   2.810  19.962  0.00  0.00    +0.000 NA
ATOM     18  C   UNL     1       1.445   2.694  18.547  0.00  0.00    +0.000 C 
ATOM     19  C   UNL     1       1.580   4.113  17.964  0.00  0.00    +0.000 C 
ATOM     20  C   UNL     1       2.130   4.895  19.153  0.00  0.00    +0.000 C 
ATOM     21  C   UNL     1       1.449   4.187  20.314  0.00  0.00    +0.000 C 
ENDBRANCH  13  14
ENDBRANCH  12  13
ENDBRANCH   3  12
TORSDOF 5
ENDMDL
MODEL 8
REMARK VINA RESULT:      -7.9      1.175      1.671
REMARK  Name = 
REMARK  6 active torsions:
REMARK  status: ('A' for Active; 'I' for Inactive)
REMARK    1  A    between atoms: C_1  and  C_2
REMARK    2  A    between atoms: C_2  and  C_3
REMARK    3  A    between atoms: C_4  and  C_5
REMARK    4  A    between atoms: C_11  and  C_12
REMARK    5  A    between atoms: C_12  and  O_13
REMARK    6  A    between atoms: O_13  and  N_14
REMARK                            x       y       z     vdW  Elec       q    Type
REMARK                         _______ _______ _______ _____ _____    ______ ____
ROOT
ATOM      1  C   UNL     1       6.618   7.307  16.843  0.00  0.00    +0.000 C 
ATOM      2  C   UNL     1       7.606   7.476  17.967  0.00  0.00    +0.000 C 
ATOM      3  C   UNL     1       7.954   6.455  18.778  0.00  0.00    +0.000 C 
ENDROOT
BRANCH   2   4
ATOM      4  C   UNL     1       8.223   8.762  18.140  0.00  0.00    +0.000 C 
ATOM      5  C   UNL     1       8.769   9.827  18.270  0.00  0.00    +0.000 C 
BRANCH   5   6
ATOM      6  C   UNL     1       9.425  11.099  18.420  0.00  0.00    +0.000 A 
ATOM      7  C   UNL     1       8.945  12.225  17.746  0.00  0.00    +0.000 A 
ATOM      8  C   UNL     1       9.602  13.455  17.870  0.00  0.00    +0.000 A 
ATOM      9  C   UNL     1      10.738  13.563  18.672  0.00  0.00    +0.000 A 
ATOM     10  C   UNL     1      11.212  12.447  19.359  0.00  0.00    +0.000 A 
ATOM     11  C   UNL     1      10.555  11.216  19.235  0.00  0.00    +0.000 A 
ENDBRANCH   5   6
ENDBRANCH   2   4
BRANCH   3  12
ATOM     12  C   UNL     1       7.423   5.048  18.698  0.00  0.00    +0.000 C 
BRANCH  12  13
ATOM     13  O   UNL     1       6.332   4.880  19.619  0.00  0.00    +0.000 OA
BRANCH  13  14
ATOM     14  N   UNL     1       5.475   3.880  19.114  0.00  0.00    +0.000 NA
ATOM     15  C   UNL     1       4.254   4.306  19.051  0.00  0.00    +0.000 C 
ATOM     16  C   UNL     1       3.694   5.651  19.455  0.00  0.00    +0.000 C 
ATOM     17  N   UNL     1       2.233   5.445  19.163  0.00  0.00    +0.000 NA
ATOM     18  C   UNL     1       1.686   4.486  20.172  0.00  0.00    +0.000 C 
ATOM     19  C   UNL     1       2.269   3.116  19.778  0.00  0.00    +0.000 C 
ATOM     20  C   UNL     1       3.108   3.467  18.553  0.00  0.00    +0.000 C 
ATOM     21  C   UNL     1       2.282   4.587  17.939  0.00  0.00    +0.000 C 
ENDBRANCH  13  14
ENDBRANCH  12  13
ENDBRANCH   3  12
TORSDOF 5
ENDMDL
MODEL 9
REMARK VINA RESULT:      -7.9      0.770      1.391
REMARK  Name = 
REMARK  6 active torsions:
REMARK  status: ('A' for Active; 'I' for Inactive)
REMARK    1  A    between atoms: C_1  and  C_2
REMARK    2  A    between atoms: C_2  and  C_3
REMARK    3  A    between atoms: C_4  and  C_5
REMARK    4  A    between atoms: C_11  and  C_12
REMARK    5  A    between atoms: C_12  and  O_13
REMARK    6  A    between atoms: O_13  and  N_14
REMARK                            x       y       z     vdW  Elec       q    Type
REMARK                         _______ _______ _______ _____ _____    ______ ____
ROOT
ATOM      1  C   UNL     1       5.845   7.472  16.949  0.00  0.00    +0.000 C 
ATOM      2  C   UNL     1       7.161   7.239  17.643  0.00  0.00    +0.000 C 
ATOM      3  C   UNL     1       7.652   6.000  17.856  0.00  0.00    +0.000 C 
ENDROOT
BRANCH   2   4
ATOM      4  C   UNL     1       7.929   8.385  18.046  0.00  0.00    +0.000 C 
ATOM      5  C   UNL     1       8.596   9.323  18.396  0.00  0.00    +0.000 C 
BRANCH   5   6
ATOM      6  C   UNL     1       9.399  10.441  18.815  0.00  0.00    +0.000 A 
ATOM      7  C   UNL     1       9.474  10.790  20.166  0.00  0.00    +0.000 A 
ATOM      8  C   UNL     1      10.231  11.897  20.568  0.00  0.00    +0.000 A 
ATOM      9  C   UNL     1      10.919  12.655  19.621  0.00  0.00    +0.000 A 
ATOM     10  C   UNL     1      10.861  12.302  18.274  0.00  0.00    +0.000 A 
ATOM     11  C   UNL     1      10.102  11.196  17.871  0.00  0.00    +0.000 A 
ENDBRANCH   5   6
ENDBRANCH   2   4
BRANCH   3  12
ATOM     12  C   UNL     1       6.983   4.709  17.461  0.00  0.00    +0.000 C 
BRANCH  12  13
ATOM     13  O   UNL     1       6.570   3.989  18.634  0.00  0.00    +0.000 OA
BRANCH  13  14
ATOM     14  N   UNL     1       5.656   4.791  19.348  0.00  0.00    +0.000 NA
ATOM     15  C   UNL     1       4.443   4.369  19.183  0.00  0.00    +0.000 C 
ATOM     16  C   UNL     1       3.944   3.211  18.350  0.00  0.00    +0.000 C 
ATOM     17  N   UNL     1       2.461   3.323  18.574  0.00  0.00    +0.000 NA
ATOM     18  C   UNL     1       1.972   4.543  17.860  0.00  0.00    +0.000 C 
ATOM     19  C   UNL     1       2.494   5.728  18.694  0.00  0.00    +0.000 C 
ATOM     20  C   UNL     1       3.245   5.022  19.818  0.00  0.00    +0.000 C 
ATOM     21  C   UNL     1       2.399   3.771  19.999  0.00  0.00    +0.000 C 
ENDBRANCH  13  14
ENDBRANCH  12  13
ENDBRANCH   3  12
TORSDOF 5
ENDMDL
