MODEL 1
REMARK VINA RESULT:      -6.6      0.000      0.000
REMARK  Name = 
REMARK  14 active torsions:
REMARK  status: ('A' for Active; 'I' for Inactive)
REMARK    1  A    between atoms: C_1  and  C_2
REMARK    2  A    between atoms: C_2  and  C_3
REMARK    3  A    between atoms: C_3  and  C_4
REMARK    4  A    between atoms: C_4  and  C_5
REMARK    5  A    between atoms: C_5  and  C_6
REMARK    6  A    between atoms: C_6  and  C_7
REMARK    7  A    between atoms: C_7  and  C_8
REMARK    8  A    between atoms: C_8  and  O_9
REMARK    9  A    between atoms: O_9  and  C_10
REMARK   10  A    between atoms: C_10  and  S_12
REMARK   11  A    between atoms: S_12  and  C_13
REMARK   12  A    between atoms: C_13  and  C_14
REMARK   13  A    between atoms: C_13  and  C_20
REMARK   14  A    between atoms: C_14  and  N_15
REMARK                            x       y       z     vdW  Elec       q    Type
REMARK                         _______ _______ _______ _____ _____    ______ ____
ROOT
ATOM      1  C   UNL     1       5.819   4.677  16.593  0.00  0.00    +0.000 C 
ENDROOT
BRANCH   1   2
ATOM      2  C   UNL     1       4.601   4.568  17.557  0.00  0.00    +0.000 A 
ATOM      3  C   UNL     1       4.289   3.336  18.199  0.00  0.00    +0.000 A 
ATOM      4  C   UNL     1       3.152   3.161  18.983  0.00  0.00    +0.000 A 
ATOM      5  C   UNL     1       2.280   4.215  19.163  0.00  0.00    +0.000 A 
ATOM      6 CL   UNL     1       0.850   3.987  20.090  0.00  0.00    +0.000 Cl
ATOM      7  C   UNL     1       2.570   5.457  18.616  0.00  0.00    +0.000 A 
ATOM      8  C   UNL     1       3.733   5.644  17.852  0.00  0.00    +0.000 A 
ATOM      9 CL   UNL     1       4.029   7.272  17.347  0.00  0.00    +0.000 Cl
ENDBRANCH   1   2
BRANCH   1  10
ATOM     10  S   UNL     1       7.409   4.459  17.529  0.00  0.00    +0.000 S 
BRANCH  10  11
ATOM     11  C   UNL     1       7.516   5.814  18.599  0.00  0.00    +0.000 C 
ATOM     12  O   UNL     1       7.370   5.710  19.810  0.00  0.00    +0.000 OA
BRANCH  11  13
ATOM     13  O   UNL     1       7.744   6.983  17.937  0.00  0.00    +0.000 OA
BRANCH  13  14
ATOM     14  C   UNL     1       8.433   8.008  18.652  0.00  0.00    +0.000 C 
BRANCH  14  15
ATOM     15  C   UNL     1       8.094   9.375  18.074  0.00  0.00    +0.000 C 
BRANCH  15  16
ATOM     16  C   UNL     1       9.292  10.310  18.178  0.00  0.00    +0.000 C 
BRANCH  16  17
ATOM     17  C   UNL     1       9.502  10.807  19.608  0.00  0.00    +0.000 C 
BRANCH  17  18
ATOM     18  C   UNL     1       9.422  12.334  19.667  0.00  0.00    +0.000 C 
BRANCH  18  19
ATOM     19  C   UNL     1       9.382  12.959  18.270  0.00  0.00    +0.000 C 
BRANCH  19  21
ATOM     20  C   UNL     1      10.713  14.896  19.215  0.00  0.00    +0.000 C 
ATOM     21  C   UNL     1      10.560  13.914  18.065  0.00  0.00    +0.000 C 
ENDBRANCH  19  21
ENDBRANCH  18  19
ENDBRANCH  17  18
ENDBRANCH  16  17
ENDBRANCH  15  16
ENDBRANCH  14  15
ENDBRANCH  13  14
ENDBRANCH  11  13
ENDBRANCH  10  11
ENDBRANCH   1  10
BRANCH   1  22
ATOM     22  C   UNL     1       5.771   3.698  15.389  0.00  0.00    +0.000 C 
BRANCH  22  23
ATOM     23  N   UNL     1       6.467   4.133  14.197  0.00  0.00    +0.000 N 
ATOM     24  C   UNL     1       6.357   3.615  12.939  0.00  0.00    +0.000 A 
ATOM     25  C   UNL     1       7.172   4.389  12.155  0.00  0.00    +0.000 A 
ATOM     26  N   UNL     1       7.744   5.391  12.899  0.00  0.00    +0.000 NA
ATOM     27  C   UNL     1       7.284   5.226  14.113  0.00  0.00    +0.000 A 
ENDBRANCH  22  23
ENDBRANCH   1  22
TORSDOF 13
ENDMDL
MODEL 2
REMARK VINA RESULT:      -6.5      4.664      7.542
REMARK  Name = 
REMARK  14 active torsions:
REMARK  status: ('A' for Active; 'I' for Inactive)
REMARK    1  A    between atoms: C_1  and  C_2
REMARK    2  A    between atoms: C_2  and  C_3
REMARK    3  A    between atoms: C_3  and  C_4
REMARK    4  A    between atoms: C_4  and  C_5
REMARK    5  A    between atoms: C_5  and  C_6
REMARK    6  A    between atoms: C_6  and  C_7
REMARK    7  A    between atoms: C_7  and  C_8
REMARK    8  A    between atoms: C_8  and  O_9
REMARK    9  A    between atoms: O_9  and  C_10
REMARK   10  A    between atoms: C_10  and  S_12
REMARK   11  A    between atoms: S_12  and  C_13
REMARK   12  A    between atoms: C_13  and  C_14
REMARK   13  A    between atoms: C_13  and  C_20
REMARK   14  A    between atoms: C_14  and  N_15
REMARK                            x       y       z     vdW  Elec       q    Type
REMARK                         _______ _______ _______ _____ _____    ______ ____
ROOT
ATOM      1  C   UNL     1       4.126   4.726  17.999  0.00  0.00    +0.000 C 
ENDROOT
BRANCH   1   2
ATOM      2  C   UNL     1       3.413   6.040  18.433  0.00  0.00    +0.000 A 
ATOM      3  C   UNL     1       2.742   6.125  19.685  0.00  0.00    +0.000 A 
ATOM      4  C   UNL     1       2.001   7.239  20.071  0.00  0.00    +0.000 A 
ATOM      5  C   UNL     1       1.906   8.321  19.219  0.00  0.00    +0.000 A 
ATOM      6 CL   UNL     1       0.951   9.677  19.671  0.00  0.00    +0.000 Cl
ATOM      7  C   UNL     1       2.595   8.319  18.014  0.00  0.00    +0.000 A 
ATOM      8  C   UNL     1       3.369   7.209  17.639  0.00  0.00    +0.000 A 
ATOM      9 CL   UNL     1       4.275   7.403  16.178  0.00  0.00    +0.000 Cl
ENDBRANCH   1   2
BRANCH   1  10
ATOM     10  S   UNL     1       5.703   4.498  18.953  0.00  0.00    +0.000 S 
BRANCH  10  11
ATOM     11  C   UNL     1       6.919   5.353  18.067  0.00  0.00    +0.000 C 
ATOM     12  O   UNL     1       7.034   6.570  18.114  0.00  0.00    +0.000 OA
BRANCH  11  13
ATOM     13  O   UNL     1       7.687   4.525  17.305  0.00  0.00    +0.000 OA
BRANCH  13  14
ATOM     14  C   UNL     1       7.119   4.055  16.084  0.00  0.00    +0.000 C 
BRANCH  14  15
ATOM     15  C   UNL     1       6.564   5.221  15.276  0.00  0.00    +0.000 C 
BRANCH  15  16
ATOM     16  C   UNL     1       5.732   4.711  14.106  0.00  0.00    +0.000 C 
BRANCH  16  17
ATOM     17  C   UNL     1       6.309   3.425  13.516  0.00  0.00    +0.000 C 
BRANCH  17  18
ATOM     18  C   UNL     1       5.796   3.205  12.092  0.00  0.00    +0.000 C 
BRANCH  18  19
ATOM     19  C   UNL     1       4.352   3.686  11.924  0.00  0.00    +0.000 C 
BRANCH  19  21
ATOM     20  C   UNL     1       3.022   4.116   9.811  0.00  0.00    +0.000 C 
ATOM     21  C   UNL     1       3.714   3.074  10.675  0.00  0.00    +0.000 C 
ENDBRANCH  19  21
ENDBRANCH  18  19
ENDBRANCH  17  18
ENDBRANCH  16  17
ENDBRANCH  15  16
ENDBRANCH  14  15
ENDBRANCH  13  14
ENDBRANCH  11  13
ENDBRANCH  10  11
ENDBRANCH   1  10
BRANCH   1  22
ATOM     22  C   UNL     1       3.245   3.452  18.115  0.00  0.00    +0.000 C 
BRANCH  22  23
ATOM     23  N   UNL     1       2.716   3.171  19.432  0.00  0.00    +0.000 N 
ATOM     24  C   UNL     1       1.407   3.190  19.820  0.00  0.00    +0.000 A 
ATOM     25  C   UNL     1       1.414   2.813  21.137  0.00  0.00    +0.000 A 
ATOM     26  N   UNL     1       2.692   2.528  21.550  0.00  0.00    +0.000 NA
ATOM     27  C   UNL     1       3.446   2.729  20.499  0.00  0.00    +0.000 A 
ENDBRANCH  22  23
ENDBRANCH   1  22
TORSDOF 13
ENDMDL
MODEL 3
REMARK VINA RESULT:      -6.5      5.175      7.892
REMARK  Name = 
REMARK  14 active torsions:
REMARK  status: ('A' for Active; 'I' for Inactive)
REMARK    1  A    between atoms: C_1  and  C_2
REMARK    2  A    between atoms: C_2  and  C_3
REMARK    3  A    between atoms: C_3  and  C_4
REMARK    4  A    between atoms: C_4  and  C_5
REMARK    5  A    between atoms: C_5  and  C_6
REMARK    6  A    between atoms: C_6  and  C_7
REMARK    7  A    between atoms: C_7  and  C_8
REMARK    8  A    between atoms: C_8  and  O_9
REMARK    9  A    between atoms: O_9  and  C_10
REMARK   10  A    between atoms: C_10  and  S_12
REMARK   11  A    between atoms: S_12  and  C_13
REMARK   12  A    between atoms: C_13  and  C_14
REMARK   13  A    between atoms: C_13  and  C_20
REMARK   14  A    between atoms: C_14  and  N_15
REMARK                            x       y       z     vdW  Elec       q    Type
REMARK                         _______ _______ _______ _____ _____    ______ ____
ROOT
ATOM      1  C   UNL     1       4.756   4.061  18.918  0.00  0.00    +0.000 C 
ENDROOT
BRANCH   1   2
ATOM      2  C   UNL     1       5.397   4.413  17.544  0.00  0.00    +0.000 A 
ATOM      3  C   UNL     1       4.798   3.978  16.328  0.00  0.00    +0.000 A 
ATOM      4  C   UNL     1       5.388   4.175  15.083  0.00  0.00    +0.000 A 
ATOM      5  C   UNL     1       6.603   4.823  15.001  0.00  0.00    +0.000 A 
ATOM      6 CL   UNL     1       7.358   5.024  13.469  0.00  0.00    +0.000 Cl
ATOM      7  C   UNL     1       7.200   5.328  16.148  0.00  0.00    +0.000 A 
ATOM      8  C   UNL     1       6.589   5.158  17.401  0.00  0.00    +0.000 A 
ATOM      9 CL   UNL     1       7.380   5.953  18.719  0.00  0.00    +0.000 Cl
ENDBRANCH   1   2
BRANCH   1  10
ATOM     10  S   UNL     1       3.717   5.474  19.531  0.00  0.00    +0.000 S 
BRANCH  10  11
ATOM     11  C   UNL     1       2.722   5.942  18.195  0.00  0.00    +0.000 C 
ATOM     12  O   UNL     1       1.883   5.198  17.706  0.00  0.00    +0.000 OA
BRANCH  11  13
ATOM     13  O   UNL     1       3.008   7.198  17.750  0.00  0.00    +0.000 OA
BRANCH  13  14
ATOM     14  C   UNL     1       2.573   8.287  18.562  0.00  0.00    +0.000 C 
BRANCH  14  15
ATOM     15  C   UNL     1       1.562   9.141  17.807  0.00  0.00    +0.000 C 
BRANCH  15  16
ATOM     16  C   UNL     1       1.471  10.530  18.423  0.00  0.00    +0.000 C 
BRANCH  16  17
ATOM     17  C   UNL     1       0.023  11.003  18.547  0.00  0.00    +0.000 C 
BRANCH  17  18
ATOM     18  C   UNL     1      -0.929  10.012  17.873  0.00  0.00    +0.000 C 
BRANCH  18  19
ATOM     19  C   UNL     1      -2.394  10.415  18.054  0.00  0.00    +0.000 C 
BRANCH  19  21
ATOM     20  C   UNL     1      -2.718  10.072  15.565  0.00  0.00    +0.000 C 
ATOM     21  C   UNL     1      -3.268   9.803  16.957  0.00  0.00    +0.000 C 
ENDBRANCH  19  21
ENDBRANCH  18  19
ENDBRANCH  17  18
ENDBRANCH  16  17
ENDBRANCH  15  16
ENDBRANCH  14  15
ENDBRANCH  13  14
ENDBRANCH  11  13
ENDBRANCH  10  11
ENDBRANCH   1  10
BRANCH   1  22
ATOM     22  C   UNL     1       3.924   2.749  18.919  0.00  0.00    +0.000 C 
BRANCH  22  23
ATOM     23  N   UNL     1       2.878   2.670  19.916  0.00  0.00    +0.000 N 
ATOM     24  C   UNL     1       3.029   2.606  21.272  0.00  0.00    +0.000 A 
ATOM     25  C   UNL     1       1.756   2.592  21.778  0.00  0.00    +0.000 A 
ATOM     26  N   UNL     1       0.834   2.685  20.765  0.00  0.00    +0.000 NA
ATOM     27  C   UNL     1       1.538   2.754  19.664  0.00  0.00    +0.000 A 
ENDBRANCH  22  23
ENDBRANCH   1  22
TORSDOF 13
ENDMDL
MODEL 4
REMARK VINA RESULT:      -6.4      5.103      7.596
REMARK  Name = 
REMARK  14 active torsions:
REMARK  status: ('A' for Active; 'I' for Inactive)
REMARK    1  A    between atoms: C_1  and  C_2
REMARK    2  A    between atoms: C_2  and  C_3
REMARK    3  A    between atoms: C_3  and  C_4
REMARK    4  A    between atoms: C_4  and  C_5
REMARK    5  A    between atoms: C_5  and  C_6
REMARK    6  A    between atoms: C_6  and  C_7
REMARK    7  A    between atoms: C_7  and  C_8
REMARK    8  A    between atoms: C_8  and  O_9
REMARK    9  A    between atoms: O_9  and  C_10
REMARK   10  A    between atoms: C_10  and  S_12
REMARK   11  A    between atoms: S_12  and  C_13
REMARK   12  A    between atoms: C_13  and  C_14
REMARK   13  A    between atoms: C_13  and  C_20
REMARK   14  A    between atoms: C_14  and  N_15
REMARK                            x       y       z     vdW  Elec       q    Type
REMARK                         _______ _______ _______ _____ _____    ______ ____
ROOT
ATOM      1  C   UNL     1       4.829   4.180  18.748  0.00  0.00    +0.000 C 
ENDROOT
BRANCH   1   2
ATOM      2  C   UNL     1       5.493   4.496  17.375  0.00  0.00    +0.000 A 
ATOM      3  C   UNL     1       4.864   4.113  16.157  0.00  0.00    +0.000 A 
ATOM      4  C   UNL     1       5.466   4.276  14.912  0.00  0.00    +0.000 A 
ATOM      5  C   UNL     1       6.725   4.836  14.834  0.00  0.00    +0.000 A 
ATOM      6 CL   UNL     1       7.491   4.994  13.303  0.00  0.00    +0.000 Cl
ATOM      7  C   UNL     1       7.357   5.288  15.984  0.00  0.00    +0.000 A 
ATOM      8  C   UNL     1       6.736   5.154  17.236  0.00  0.00    +0.000 A 
ATOM      9 CL   UNL     1       7.582   5.881  18.559  0.00  0.00    +0.000 Cl
ENDBRANCH   1   2
BRANCH   1  10
ATOM     10  S   UNL     1       3.926   5.671  19.390  0.00  0.00    +0.000 S 
BRANCH  10  11
ATOM     11  C   UNL     1       2.849   6.152  18.124  0.00  0.00    +0.000 C 
ATOM     12  O   UNL     1       1.882   5.482  17.792  0.00  0.00    +0.000 OA
BRANCH  11  13
ATOM     13  O   UNL     1       3.226   7.324  17.538  0.00  0.00    +0.000 OA
BRANCH  13  14
ATOM     14  C   UNL     1       2.870   8.529  18.215  0.00  0.00    +0.000 C 
BRANCH  14  15
ATOM     15  C   UNL     1       1.575   9.092  17.646  0.00  0.00    +0.000 C 
BRANCH  15  16
ATOM     16  C   UNL     1       0.613   9.458  18.769  0.00  0.00    +0.000 C 
BRANCH  16  17
ATOM     17  C   UNL     1      -0.570  10.279  18.258  0.00  0.00    +0.000 C 
BRANCH  17  18
ATOM     18  C   UNL     1      -1.089  11.217  19.350  0.00  0.00    +0.000 C 
BRANCH  18  19
ATOM     19  C   UNL     1      -0.426  10.941  20.702  0.00  0.00    +0.000 C 
BRANCH  19  21
ATOM     20  C   UNL     1      -1.103  10.816  23.141  0.00  0.00    +0.000 C 
ATOM     21  C   UNL     1      -1.214  11.595  21.840  0.00  0.00    +0.000 C 
ENDBRANCH  19  21
ENDBRANCH  18  19
ENDBRANCH  17  18
ENDBRANCH  16  17
ENDBRANCH  15  16
ENDBRANCH  14  15
ENDBRANCH  13  14
ENDBRANCH  11  13
ENDBRANCH  10  11
ENDBRANCH   1  10
BRANCH   1  22
ATOM     22  C   UNL     1       3.881   2.950  18.732  0.00  0.00    +0.000 C 
BRANCH  22  23
ATOM     23  N   UNL     1       2.956   2.856  19.841  0.00  0.00    +0.000 N 
ATOM     24  C   UNL     1       1.591   2.842  19.781  0.00  0.00    +0.000 A 
ATOM     25  C   UNL     1       1.174   2.694  21.078  0.00  0.00    +0.000 A 
ATOM     26  N   UNL     1       2.251   2.578  21.920  0.00  0.00    +0.000 NA
ATOM     27  C   UNL     1       3.304   2.655  21.147  0.00  0.00    +0.000 A 
ENDBRANCH  22  23
ENDBRANCH   1  22
TORSDOF 13
ENDMDL
MODEL 5
REMARK VINA RESULT:      -6.4      4.349      6.655
REMARK  Name = 
REMARK  14 active torsions:
REMARK  status: ('A' for Active; 'I' for Inactive)
REMARK    1  A    between atoms: C_1  and  C_2
REMARK    2  A    between atoms: C_2  and  C_3
REMARK    3  A    between atoms: C_3  and  C_4
REMARK    4  A    between atoms: C_4  and  C_5
REMARK    5  A    between atoms: C_5  and  C_6
REMARK    6  A    between atoms: C_6  and  C_7
REMARK    7  A    between atoms: C_7  and  C_8
REMARK    8  A    between atoms: C_8  and  O_9
REMARK    9  A    between atoms: O_9  and  C_10
REMARK   10  A    between atoms: C_10  and  S_12
REMARK   11  A    between atoms: S_12  and  C_13
REMARK   12  A    between atoms: C_13  and  C_14
REMARK   13  A    between atoms: C_13  and  C_20
REMARK   14  A    between atoms: C_14  and  N_15
REMARK                            x       y       z     vdW  Elec       q    Type
REMARK                         _______ _______ _______ _____ _____    ______ ____
ROOT
ATOM      1  C   UNL     1       2.839   6.229  18.826  0.00  0.00    +0.000 C 
ENDROOT
BRANCH   1   2
ATOM      2  C   UNL     1       2.096   7.386  19.557  0.00  0.00    +0.000 A 
ATOM      3  C   UNL     1       1.688   7.246  20.914  0.00  0.00    +0.000 A 
ATOM      4  C   UNL     1       0.929   8.206  21.576  0.00  0.00    +0.000 A 
ATOM      5  C   UNL     1       0.549   9.353  20.909  0.00  0.00    +0.000 A 
ATOM      6 CL   UNL     1      -0.431  10.517  21.710  0.00  0.00    +0.000 Cl
ATOM      7  C   UNL     1       0.975   9.571  19.606  0.00  0.00    +0.000 A 
ATOM      8  C   UNL     1       1.769   8.618  18.948  0.00  0.00    +0.000 A 
ATOM      9 CL   UNL     1       2.332   9.086  17.380  0.00  0.00    +0.000 Cl
ENDBRANCH   1   2
BRANCH   1  10
ATOM     10  S   UNL     1       3.565   5.043  20.058  0.00  0.00    +0.000 S 
BRANCH  10  11
ATOM     11  C   UNL     1       5.161   4.690  19.490  0.00  0.00    +0.000 C 
ATOM     12  O   UNL     1       5.558   3.547  19.312  0.00  0.00    +0.000 OA
BRANCH  11  13
ATOM     13  O   UNL     1       5.907   5.815  19.305  0.00  0.00    +0.000 OA
BRANCH  13  14
ATOM     14  C   UNL     1       7.183   5.650  18.688  0.00  0.00    +0.000 C 
BRANCH  14  15
ATOM     15  C   UNL     1       7.214   6.356  17.339  0.00  0.00    +0.000 C 
BRANCH  15  16
ATOM     16  C   UNL     1       5.853   6.959  17.021  0.00  0.00    +0.000 C 
BRANCH  16  17
ATOM     17  C   UNL     1       5.310   6.463  15.682  0.00  0.00    +0.000 C 
BRANCH  17  18
ATOM     18  C   UNL     1       5.408   4.939  15.590  0.00  0.00    +0.000 C 
BRANCH  18  19
ATOM     19  C   UNL     1       6.359   4.493  14.476  0.00  0.00    +0.000 C 
BRANCH  19  21
ATOM     20  C   UNL     1       6.462   3.474  12.159  0.00  0.00    +0.000 C 
ATOM     21  C   UNL     1       5.604   3.724  13.389  0.00  0.00    +0.000 C 
ENDBRANCH  19  21
ENDBRANCH  18  19
ENDBRANCH  17  18
ENDBRANCH  16  17
ENDBRANCH  15  16
ENDBRANCH  14  15
ENDBRANCH  13  14
ENDBRANCH  11  13
ENDBRANCH  10  11
ENDBRANCH   1  10
BRANCH   1  22
ATOM     22  C   UNL     1       1.970   5.460  17.795  0.00  0.00    +0.000 C 
BRANCH  22  23
ATOM     23  N   UNL     1       1.912   4.025  17.968  0.00  0.00    +0.000 N 
ATOM     24  C   UNL     1       2.690   3.085  17.356  0.00  0.00    +0.000 A 
ATOM     25  C   UNL     1       2.288   1.884  17.879  0.00  0.00    +0.000 A 
ATOM     26  N   UNL     1       1.311   2.074  18.824  0.00  0.00    +0.000 NA
ATOM     27  C   UNL     1       1.124   3.369  18.872  0.00  0.00    +0.000 A 
ENDBRANCH  22  23
ENDBRANCH   1  22
TORSDOF 13
ENDMDL
MODEL 6
REMARK VINA RESULT:      -6.2      2.919      4.259
REMARK  Name = 
REMARK  14 active torsions:
REMARK  status: ('A' for Active; 'I' for Inactive)
REMARK    1  A    between atoms: C_1  and  C_2
REMARK    2  A    between atoms: C_2  and  C_3
REMARK    3  A    between atoms: C_3  and  C_4
REMARK    4  A    between atoms: C_4  and  C_5
REMARK    5  A    between atoms: C_5  and  C_6
REMARK    6  A    between atoms: C_6  and  C_7
REMARK    7  A    between atoms: C_7  and  C_8
REMARK    8  A    between atoms: C_8  and  O_9
REMARK    9  A    between atoms: O_9  and  C_10
REMARK   10  A    between atoms: C_10  and  S_12
REMARK   11  A    between atoms: S_12  and  C_13
REMARK   12  A    between atoms: C_13  and  C_14
REMARK   13  A    between atoms: C_13  and  C_20
REMARK   14  A    between atoms: C_14  and  N_15
REMARK                            x       y       z     vdW  Elec       q    Type
REMARK                         _______ _______ _______ _____ _____    ______ ____
ROOT
ATOM      1  C   UNL     1       3.548   5.941  17.766  0.00  0.00    +0.000 C 
ENDROOT
BRANCH   1   2
ATOM      2  C   UNL     1       2.725   7.119  18.365  0.00  0.00    +0.000 A 
ATOM      3  C   UNL     1       2.577   8.341  17.650  0.00  0.00    +0.000 A 
ATOM      4  C   UNL     1       1.944   9.458  18.189  0.00  0.00    +0.000 A 
ATOM      5  C   UNL     1       1.426   9.397  19.466  0.00  0.00    +0.000 A 
ATOM      6 CL   UNL     1       0.687  10.790  20.151  0.00  0.00    +0.000 Cl
ATOM      7  C   UNL     1       1.483   8.210  20.183  0.00  0.00    +0.000 A 
ATOM      8  C   UNL     1       2.093   7.073  19.628  0.00  0.00    +0.000 A 
ATOM      9 CL   UNL     1       1.972   5.634  20.582  0.00  0.00    +0.000 Cl
ENDBRANCH   1   2
BRANCH   1  10
ATOM     10  S   UNL     1       4.703   6.560  16.449  0.00  0.00    +0.000 S 
BRANCH  10  11
ATOM     11  C   UNL     1       6.296   6.404  17.106  0.00  0.00    +0.000 C 
ATOM     12  O   UNL     1       7.009   5.436  16.882  0.00  0.00    +0.000 OA
BRANCH  11  13
ATOM     13  O   UNL     1       6.631   7.452  17.909  0.00  0.00    +0.000 OA
BRANCH  13  14
ATOM     14  C   UNL     1       8.021   7.753  18.034  0.00  0.00    +0.000 C 
BRANCH  14  15
ATOM     15  C   UNL     1       8.252   9.252  17.902  0.00  0.00    +0.000 C 
BRANCH  15  16
ATOM     16  C   UNL     1       9.213   9.741  18.978  0.00  0.00    +0.000 C 
BRANCH  16  17
ATOM     17  C   UNL     1       9.373  11.260  18.948  0.00  0.00    +0.000 C 
BRANCH  17  18
ATOM     18  C   UNL     1      10.720  11.651  18.336  0.00  0.00    +0.000 C 
BRANCH  18  19
ATOM     19  C   UNL     1      10.571  12.749  17.280  0.00  0.00    +0.000 C 
BRANCH  19  21
ATOM     20  C   UNL     1      11.825  14.948  17.184  0.00  0.00    +0.000 C 
ATOM     21  C   UNL     1      11.911  13.439  17.016  0.00  0.00    +0.000 C 
ENDBRANCH  19  21
ENDBRANCH  18  19
ENDBRANCH  17  18
ENDBRANCH  16  17
ENDBRANCH  15  16
ENDBRANCH  14  15
ENDBRANCH  13  14
ENDBRANCH  11  13
ENDBRANCH  10  11
ENDBRANCH   1  10
BRANCH   1  22
ATOM     22  C   UNL     1       4.335   5.110  18.815  0.00  0.00    +0.000 C 
BRANCH  22  23
ATOM     23  N   UNL     1       4.110   3.681  18.782  0.00  0.00    +0.000 N 
ATOM     24  C   UNL     1       3.619   2.944  17.742  0.00  0.00    +0.000 A 
ATOM     25  C   UNL     1       3.636   1.645  18.179  0.00  0.00    +0.000 A 
ATOM     26  N   UNL     1       4.162   1.569  19.444  0.00  0.00    +0.000 NA
ATOM     27  C   UNL     1       4.459   2.802  19.769  0.00  0.00    +0.000 A 
ENDBRANCH  22  23
ENDBRANCH   1  22
TORSDOF 13
ENDMDL
MODEL 7
REMARK VINA RESULT:      -6.2      3.669      5.519
REMARK  Name = 
REMARK  14 active torsions:
REMARK  status: ('A' for Active; 'I' for Inactive)
REMARK    1  A    between atoms: C_1  and  C_2
REMARK    2  A    between atoms: C_2  and  C_3
REMARK    3  A    between atoms: C_3  and  C_4
REMARK    4  A    between atoms: C_4  and  C_5
REMARK    5  A    between atoms: C_5  and  C_6
REMARK    6  A    between atoms: C_6  and  C_7
REMARK    7  A    between atoms: C_7  and  C_8
REMARK    8  A    between atoms: C_8  and  O_9
REMARK    9  A    between atoms: O_9  and  C_10
REMARK   10  A    between atoms: C_10  and  S_12
REMARK   11  A    between atoms: S_12  and  C_13
REMARK   12  A    between atoms: C_13  and  C_14
REMARK   13  A    between atoms: C_13  and  C_20
REMARK   14  A    between atoms: C_14  and  N_15
REMARK                            x       y       z     vdW  Elec       q    Type
REMARK                         _______ _______ _______ _____ _____    ______ ____
ROOT
ATOM      1  C   UNL     1       2.144   6.264  19.631  0.00  0.00    +0.000 C 
ENDROOT
BRANCH   1   2
ATOM      2  C   UNL     1       1.710   7.678  20.117  0.00  0.00    +0.000 A 
ATOM      3  C   UNL     1       1.457   7.928  21.495  0.00  0.00    +0.000 A 
ATOM      4  C   UNL     1       0.964   9.143  21.964  0.00  0.00    +0.000 A 
ATOM      5  C   UNL     1       0.709  10.163  21.071  0.00  0.00    +0.000 A 
ATOM      6 CL   UNL     1       0.053  11.647  21.642  0.00  0.00    +0.000 Cl
ATOM      7  C   UNL     1       1.000   9.997  19.724  0.00  0.00    +0.000 A 
ATOM      8  C   UNL     1       1.528   8.784  19.256  0.00  0.00    +0.000 A 
ATOM      9 CL   UNL     1       1.964   8.769  17.581  0.00  0.00    +0.000 Cl
ENDBRANCH   1   2
BRANCH   1  10
ATOM     10  S   UNL     1       3.978   6.215  19.337  0.00  0.00    +0.000 S 
BRANCH  10  11
ATOM     11  C   UNL     1       4.181   5.624  17.723  0.00  0.00    +0.000 C 
ATOM     12  O   UNL     1       3.521   4.698  17.272  0.00  0.00    +0.000 OA
BRANCH  11  13
ATOM     13  O   UNL     1       5.165   6.282  17.048  0.00  0.00    +0.000 OA
BRANCH  13  14
ATOM     14  C   UNL     1       6.441   5.645  16.981  0.00  0.00    +0.000 C 
BRANCH  14  15
ATOM     15  C   UNL     1       7.540   6.681  16.786  0.00  0.00    +0.000 C 
BRANCH  15  16
ATOM     16  C   UNL     1       7.723   7.509  18.051  0.00  0.00    +0.000 C 
BRANCH  16  17
ATOM     17  C   UNL     1       7.991   8.980  17.733  0.00  0.00    +0.000 C 
BRANCH  17  18
ATOM     18  C   UNL     1       8.977   9.579  18.738  0.00  0.00    +0.000 C 
BRANCH  18  19
ATOM     19  C   UNL     1       9.182  11.079  18.511  0.00  0.00    +0.000 C 
BRANCH  19  21
ATOM     20  C   UNL     1      11.229  11.783  19.828  0.00  0.00    +0.000 C 
ATOM     21  C   UNL     1      10.672  11.425  18.459  0.00  0.00    +0.000 C 
ENDBRANCH  19  21
ENDBRANCH  18  19
ENDBRANCH  17  18
ENDBRANCH  16  17
ENDBRANCH  15  16
ENDBRANCH  14  15
ENDBRANCH  13  14
ENDBRANCH  11  13
ENDBRANCH  10  11
ENDBRANCH   1  10
BRANCH   1  22
ATOM     22  C   UNL     1       1.726   5.106  20.576  0.00  0.00    +0.000 C 
BRANCH  22  23
ATOM     23  N   UNL     1       1.725   3.784  19.988  0.00  0.00    +0.000 N 
ATOM     24  C   UNL     1       0.830   3.279  19.088  0.00  0.00    +0.000 A 
ATOM     25  C   UNL     1       1.278   2.016  18.801  0.00  0.00    +0.000 A 
ATOM     26  N   UNL     1       2.445   1.754  19.474  0.00  0.00    +0.000 NA
ATOM     27  C   UNL     1       2.699   2.842  20.158  0.00  0.00    +0.000 A 
ENDBRANCH  22  23
ENDBRANCH   1  22
TORSDOF 13
ENDMDL
MODEL 8
REMARK VINA RESULT:      -6.2      3.428      5.047
REMARK  Name = 
REMARK  14 active torsions:
REMARK  status: ('A' for Active; 'I' for Inactive)
REMARK    1  A    between atoms: C_1  and  C_2
REMARK    2  A    between atoms: C_2  and  C_3
REMARK    3  A    between atoms: C_3  and  C_4
REMARK    4  A    between atoms: C_4  and  C_5
REMARK    5  A    between atoms: C_5  and  C_6
REMARK    6  A    between atoms: C_6  and  C_7
REMARK    7  A    between atoms: C_7  and  C_8
REMARK    8  A    between atoms: C_8  and  O_9
REMARK    9  A    between atoms: O_9  and  C_10
REMARK   10  A    between atoms: C_10  and  S_12
REMARK   11  A    between atoms: S_12  and  C_13
REMARK   12  A    between atoms: C_13  and  C_14
REMARK   13  A    between atoms: C_13  and  C_20
REMARK   14  A    between atoms: C_14  and  N_15
REMARK                            x       y       z     vdW  Elec       q    Type
REMARK                         _______ _______ _______ _____ _____    ______ ____
ROOT
ATOM      1  C   UNL     1       2.618   6.543  18.899  0.00  0.00    +0.000 C 
ENDROOT
BRANCH   1   2
ATOM      2  C   UNL     1       1.963   7.711  19.694  0.00  0.00    +0.000 A 
ATOM      3  C   UNL     1       1.808   7.633  21.107  0.00  0.00    +0.000 A 
ATOM      4  C   UNL     1       1.134   8.600  21.847  0.00  0.00    +0.000 A 
ATOM      5  C   UNL     1       0.590   9.692  21.203  0.00  0.00    +0.000 A 
ATOM      6 CL   UNL     1      -0.285  10.863  22.109  0.00  0.00    +0.000 Cl
ATOM      7  C   UNL     1       0.768   9.853  19.836  0.00  0.00    +0.000 A 
ATOM      8  C   UNL     1       1.476   8.894  19.094  0.00  0.00    +0.000 A 
ATOM      9 CL   UNL     1       1.731   9.293  17.430  0.00  0.00    +0.000 Cl
ENDBRANCH   1   2
BRANCH   1  10
ATOM     10  S   UNL     1       3.935   7.192  17.761  0.00  0.00    +0.000 S 
BRANCH  10  11
ATOM     11  C   UNL     1       4.922   5.829  17.356  0.00  0.00    +0.000 C 
ATOM     12  O   UNL     1       4.533   4.929  16.625  0.00  0.00    +0.000 OA
BRANCH  11  13
ATOM     13  O   UNL     1       6.140   5.869  17.966  0.00  0.00    +0.000 OA
BRANCH  13  14
ATOM     14  C   UNL     1       7.149   6.664  17.344  0.00  0.00    +0.000 C 
BRANCH  14  15
ATOM     15  C   UNL     1       7.933   7.440  18.393  0.00  0.00    +0.000 C 
BRANCH  15  16
ATOM     16  C   UNL     1       8.249   8.843  17.893  0.00  0.00    +0.000 C 
BRANCH  16  17
ATOM     17  C   UNL     1       9.074   9.635  18.906  0.00  0.00    +0.000 C 
BRANCH  17  18
ATOM     18  C   UNL     1       9.118  11.117  18.528  0.00  0.00    +0.000 C 
BRANCH  18  19
ATOM     19  C   UNL     1      10.324  11.447  17.646  0.00  0.00    +0.000 C 
BRANCH  19  21
ATOM     20  C   UNL     1      11.915  13.299  16.970  0.00  0.00    +0.000 C 
ATOM     21  C   UNL     1      10.578  12.955  17.607  0.00  0.00    +0.000 C 
ENDBRANCH  19  21
ENDBRANCH  18  19
ENDBRANCH  17  18
ENDBRANCH  16  17
ENDBRANCH  15  16
ENDBRANCH  14  15
ENDBRANCH  13  14
ENDBRANCH  11  13
ENDBRANCH  10  11
ENDBRANCH   1  10
BRANCH   1  22
ATOM     22  C   UNL     1       3.193   5.407  19.788  0.00  0.00    +0.000 C 
BRANCH  22  23
ATOM     23  N   UNL     1       2.650   4.087  19.551  0.00  0.00    +0.000 N 
ATOM     24  C   UNL     1       1.334   3.744  19.426  0.00  0.00    +0.000 A 
ATOM     25  C   UNL     1       1.333   2.399  19.166  0.00  0.00    +0.000 A 
ATOM     26  N   UNL     1       2.618   1.922  19.091  0.00  0.00    +0.000 NA
ATOM     27  C   UNL     1       3.384   2.962  19.302  0.00  0.00    +0.000 A 
ENDBRANCH  22  23
ENDBRANCH   1  22
TORSDOF 13
ENDMDL
MODEL 9
REMARK VINA RESULT:      -6.2      4.427      7.569
REMARK  Name = 
REMARK  14 active torsions:
REMARK  status: ('A' for Active; 'I' for Inactive)
REMARK    1  A    between atoms: C_1  and  C_2
REMARK    2  A    between atoms: C_2  and  C_3
REMARK    3  A    between atoms: C_3  and  C_4
REMARK    4  A    between atoms: C_4  and  C_5
REMARK    5  A    between atoms: C_5  and  C_6
REMARK    6  A    between atoms: C_6  and  C_7
REMARK    7  A    between atoms: C_7  and  C_8
REMARK    8  A    between atoms: C_8  and  O_9
REMARK    9  A    between atoms: O_9  and  C_10
REMARK   10  A    between atoms: C_10  and  S_12
REMARK   11  A    between atoms: S_12  and  C_13
REMARK   12  A    between atoms: C_13  and  C_14
REMARK   13  A    between atoms: C_13  and  C_20
REMARK   14  A    between atoms: C_14  and  N_15
REMARK                            x       y       z     vdW  Elec       q    Type
REMARK                         _______ _______ _______ _____ _____    ______ ____
ROOT
ATOM      1  C   UNL     1       3.207   6.063  18.169  0.00  0.00    +0.000 C 
ENDROOT
BRANCH   1   2
ATOM      2  C   UNL     1       2.430   7.347  18.583  0.00  0.00    +0.000 A 
ATOM      3  C   UNL     1       2.311   8.446  17.686  0.00  0.00    +0.000 A 
ATOM      4  C   UNL     1       1.720   9.654  18.047  0.00  0.00    +0.000 A 
ATOM      5  C   UNL     1       1.217   9.811  19.322  0.00  0.00    +0.000 A 
ATOM      6 CL   UNL     1       0.532  11.319  19.785  0.00  0.00    +0.000 Cl
ATOM      7  C   UNL     1       1.246   8.750  20.216  0.00  0.00    +0.000 A 
ATOM      8  C   UNL     1       1.813   7.521  19.842  0.00  0.00    +0.000 A 
ATOM      9 CL   UNL     1       1.659   6.254  21.011  0.00  0.00    +0.000 Cl
ENDBRANCH   1   2
BRANCH   1  10
ATOM     10  S   UNL     1       4.252   5.454  19.580  0.00  0.00    +0.000 S 
BRANCH  10  11
ATOM     11  C   UNL     1       5.854   5.295  18.947  0.00  0.00    +0.000 C 
ATOM     12  O   UNL     1       6.547   4.308  19.149  0.00  0.00    +0.000 OA
BRANCH  11  13
ATOM     13  O   UNL     1       6.246   6.394  18.242  0.00  0.00    +0.000 OA
BRANCH  13  14
ATOM     14  C   UNL     1       6.915   6.163  17.002  0.00  0.00    +0.000 C 
BRANCH  14  15
ATOM     15  C   UNL     1       5.907   6.099  15.862  0.00  0.00    +0.000 C 
BRANCH  15  16
ATOM     16  C   UNL     1       5.468   4.661  15.619  0.00  0.00    +0.000 C 
BRANCH  16  17
ATOM     17  C   UNL     1       6.289   3.995  14.516  0.00  0.00    +0.000 C 
BRANCH  17  18
ATOM     18  C   UNL     1       5.429   3.750  13.274  0.00  0.00    +0.000 C 
BRANCH  18  19
ATOM     19  C   UNL     1       6.261   3.243  12.093  0.00  0.00    +0.000 C 
BRANCH  19  21
ATOM     20  C   UNL     1       6.506   0.956  11.033  0.00  0.00    +0.000 C 
ATOM     21  C   UNL     1       5.553   2.088  11.382  0.00  0.00    +0.000 C 
ENDBRANCH  19  21
ENDBRANCH  18  19
ENDBRANCH  17  18
ENDBRANCH  16  17
ENDBRANCH  15  16
ENDBRANCH  14  15
ENDBRANCH  13  14
ENDBRANCH  11  13
ENDBRANCH  10  11
ENDBRANCH   1  10
BRANCH   1  22
ATOM     22  C   UNL     1       2.309   4.913  17.638  0.00  0.00    +0.000 C 
BRANCH  22  23
ATOM     23  N   UNL     1       2.094   3.811  18.551  0.00  0.00    +0.000 N 
ATOM     24  C   UNL     1       2.930   2.757  18.788  0.00  0.00    +0.000 A 
ATOM     25  C   UNL     1       2.310   2.014  19.758  0.00  0.00    +0.000 A 
ATOM     26  N   UNL     1       1.136   2.610  20.145  0.00  0.00    +0.000 NA
ATOM     27  C   UNL     1       1.046   3.697  19.421  0.00  0.00    +0.000 A 
ENDBRANCH  22  23
ENDBRANCH   1  22
TORSDOF 13
ENDMDL
