MODEL 1
REMARK VINA RESULT:      -7.6      0.000      0.000
REMARK  Name = 
REMARK  6 active torsions:
REMARK  status: ('A' for Active; 'I' for Inactive)
REMARK    1  A    between atoms: C_1  and  C_2
REMARK    2  A    between atoms: C_6  and  C_7
REMARK    3  A    between atoms: C_7  and  N_8
REMARK    4  A    between atoms: C_12  and  C_14
REMARK    5  A    between atoms: C_14  and  N_15
REMARK    6  A    between atoms: C_22  and  C_23
REMARK                            x       y       z     vdW  Elec       q    Type
REMARK                         _______ _______ _______ _____ _____    ______ ____
ROOT
ATOM      1  N   UNL     1       6.426   4.998  14.994  0.00  0.00    +0.000 N 
ATOM      2  C   UNL     1       6.672   3.772  15.748  0.00  0.00    +0.000 C 
ATOM      3  C   UNL     1       6.646   3.981  17.257  0.00  0.00    +0.000 C 
ATOM      4  N   UNL     1       5.453   4.729  17.663  0.00  0.00    +0.000 N 
ATOM      5  C   UNL     1       4.850   4.400  18.872  0.00  0.00    +0.000 C 
ATOM      6  O   UNL     1       5.271   3.460  19.552  0.00  0.00    +0.000 OA
ATOM      7  C   UNL     1       5.226   5.986  16.931  0.00  0.00    +0.000 C 
ATOM      8  C   UNL     1       6.173   7.079  17.444  0.00  0.00    +0.000 C 
ATOM      9  C   UNL     1       5.430   5.876  15.404  0.00  0.00    +0.000 C 
ATOM     10  O   UNL     1       4.907   6.689  14.639  0.00  0.00    +0.000 OA
ENDROOT
BRANCH   1  11
ATOM     11  C   UNL     1       7.028   5.146  13.673  0.00  0.00    +0.000 C 
BRANCH  11  17
ATOM     12  C   UNL     1       3.312   2.973  11.049  0.00  0.00    +0.000 C 
ATOM     13  C   UNL     1       4.749   2.980  11.482  0.00  0.00    +0.000 A 
ATOM     14  C   UNL     1       5.667   2.065  10.960  0.00  0.00    +0.000 A 
ATOM     15  C   UNL     1       7.010   2.123  11.337  0.00  0.00    +0.000 A 
ATOM     16  C   UNL     1       7.454   3.114  12.216  0.00  0.00    +0.000 A 
ATOM     17  C   UNL     1       6.555   4.047  12.743  0.00  0.00    +0.000 A 
ATOM     18  C   UNL     1       5.198   3.947  12.391  0.00  0.00    +0.000 A 
ENDBRANCH  11  17
ENDBRANCH   1  11
BRANCH   5  19
ATOM     19  C   UNL     1       3.606   5.168  19.333  0.00  0.00    +0.000 C 
BRANCH  19  20
ATOM     20  N   UNL     1       2.488   4.265  19.524  0.00  0.00    +0.000 N 
ATOM     21  C   UNL     1       1.663   3.814  18.532  0.00  0.00    +0.000 C 
ATOM     22  O   UNL     1       1.763   4.049  17.338  0.00  0.00    +0.000 OA
ATOM     23  C   UNL     1       0.547   2.996  19.163  0.00  0.00    +0.000 C 
ATOM     24  N   UNL     1       0.886   3.120  20.549  0.00  0.00    +0.000 N 
ATOM     25  C   UNL     1       1.979   3.934  20.740  0.00  0.00    +0.000 C 
ATOM     26  O   UNL     1       2.360   4.298  21.838  0.00  0.00    +0.000 OA
ATOM     27  H   UNL     1       0.327   2.813  21.336  0.00  0.00    +0.000 HD
ENDBRANCH  19  20
ENDBRANCH   5  19
TORSDOF 4
ENDMDL
MODEL 2
REMARK VINA RESULT:      -7.5      0.419      1.466
REMARK  Name = 
REMARK  6 active torsions:
REMARK  status: ('A' for Active; 'I' for Inactive)
REMARK    1  A    between atoms: C_1  and  C_2
REMARK    2  A    between atoms: C_6  and  C_7
REMARK    3  A    between atoms: C_7  and  N_8
REMARK    4  A    between atoms: C_12  and  C_14
REMARK    5  A    between atoms: C_14  and  N_15
REMARK    6  A    between atoms: C_22  and  C_23
REMARK                            x       y       z     vdW  Elec       q    Type
REMARK                         _______ _______ _______ _____ _____    ______ ____
ROOT
ATOM      1  N   UNL     1       6.426   5.014  14.943  0.00  0.00    +0.000 N 
ATOM      2  C   UNL     1       6.619   3.785  15.706  0.00  0.00    +0.000 C 
ATOM      3  C   UNL     1       6.611   4.008  17.214  0.00  0.00    +0.000 C 
ATOM      4  N   UNL     1       5.456   4.814  17.619  0.00  0.00    +0.000 N 
ATOM      5  C   UNL     1       4.846   4.524  18.834  0.00  0.00    +0.000 C 
ATOM      6  O   UNL     1       5.227   3.571  19.520  0.00  0.00    +0.000 OA
ATOM      7  C   UNL     1       5.284   6.074  16.877  0.00  0.00    +0.000 C 
ATOM      8  C   UNL     1       6.283   7.126  17.376  0.00  0.00    +0.000 C 
ATOM      9  C   UNL     1       5.474   5.941  15.350  0.00  0.00    +0.000 C 
ATOM     10  O   UNL     1       4.985   6.771  14.581  0.00  0.00    +0.000 OA
ENDROOT
BRANCH   1  11
ATOM     11  C   UNL     1       7.027   5.123  13.617  0.00  0.00    +0.000 C 
BRANCH  11  17
ATOM     12  C   UNL     1       3.260   2.969  11.052  0.00  0.00    +0.000 C 
ATOM     13  C   UNL     1       4.699   2.957  11.479  0.00  0.00    +0.000 A 
ATOM     14  C   UNL     1       5.597   2.014  10.973  0.00  0.00    +0.000 A 
ATOM     15  C   UNL     1       6.942   2.055  11.344  0.00  0.00    +0.000 A 
ATOM     16  C   UNL     1       7.409   3.054  12.201  0.00  0.00    +0.000 A 
ATOM     17  C   UNL     1       6.529   4.014  12.712  0.00  0.00    +0.000 A 
ATOM     18  C   UNL     1       5.169   3.934  12.367  0.00  0.00    +0.000 A 
ENDBRANCH  11  17
ENDBRANCH   1  11
BRANCH   5  19
ATOM     19  C   UNL     1       3.641   5.353  19.294  0.00  0.00    +0.000 C 
BRANCH  19  20
ATOM     20  N   UNL     1       2.475   4.509  19.467  0.00  0.00    +0.000 N 
ATOM     21  C   UNL     1       2.026   4.023  20.663  0.00  0.00    +0.000 C 
ATOM     22  O   UNL     1       2.492   4.261  21.767  0.00  0.00    +0.000 OA
ATOM     23  C   UNL     1       0.862   3.081  20.400  0.00  0.00    +0.000 C 
ATOM     24  N   UNL     1       0.810   3.127  18.969  0.00  0.00    +0.000 N 
ATOM     25  C   UNL     1       1.815   3.906  18.443  0.00  0.00    +0.000 C 
ATOM     26  O   UNL     1       2.055   3.977  17.251  0.00  0.00    +0.000 OA
ATOM     27  H   UNL     1       0.239   2.545  18.368  0.00  0.00    +0.000 HD
ENDBRANCH  19  20
ENDBRANCH   5  19
TORSDOF 4
ENDMDL
MODEL 3
REMARK VINA RESULT:      -7.3      6.127      8.460
REMARK  Name = 
REMARK  6 active torsions:
REMARK  status: ('A' for Active; 'I' for Inactive)
REMARK    1  A    between atoms: C_1  and  C_2
REMARK    2  A    between atoms: C_6  and  C_7
REMARK    3  A    between atoms: C_7  and  N_8
REMARK    4  A    between atoms: C_12  and  C_14
REMARK    5  A    between atoms: C_14  and  N_15
REMARK    6  A    between atoms: C_22  and  C_23
REMARK                            x       y       z     vdW  Elec       q    Type
REMARK                         _______ _______ _______ _____ _____    ______ ____
ROOT
ATOM      1  N   UNL     1       2.090   8.190  19.339  0.00  0.00    +0.000 N 
ATOM      2  C   UNL     1       1.234   8.258  20.519  0.00  0.00    +0.000 C 
ATOM      3  C   UNL     1       0.787   9.676  20.855  0.00  0.00    +0.000 C 
ATOM      4  N   UNL     1       0.261  10.355  19.668  0.00  0.00    +0.000 N 
ATOM      5  C   UNL     1      -0.807  11.230  19.830  0.00  0.00    +0.000 C 
ATOM      6  O   UNL     1      -1.339  11.379  20.934  0.00  0.00    +0.000 OA
ATOM      7  C   UNL     1       1.142  10.322  18.489  0.00  0.00    +0.000 C 
ATOM      8  C   UNL     1       2.285  11.334  18.649  0.00  0.00    +0.000 C 
ATOM      9  C   UNL     1       1.780   8.943  18.212  0.00  0.00    +0.000 C 
ATOM     10  O   UNL     1       2.195   8.655  17.088  0.00  0.00    +0.000 OA
ENDROOT
BRANCH   1  11
ATOM     11  C   UNL     1       3.089   7.129  19.252  0.00  0.00    +0.000 C 
BRANCH  11  17
ATOM     12  C   UNL     1       1.319   2.987  21.517  0.00  0.00    +0.000 C 
ATOM     13  C   UNL     1       1.575   3.753  20.252  0.00  0.00    +0.000 A 
ATOM     14  C   UNL     1       1.114   3.288  19.018  0.00  0.00    +0.000 A 
ATOM     15  C   UNL     1       1.318   4.044  17.862  0.00  0.00    +0.000 A 
ATOM     16  C   UNL     1       1.959   5.282  17.931  0.00  0.00    +0.000 A 
ATOM     17  C   UNL     1       2.421   5.772  19.157  0.00  0.00    +0.000 A 
ATOM     18  C   UNL     1       2.250   4.980  20.306  0.00  0.00    +0.000 A 
ENDBRANCH  11  17
ENDBRANCH   1  11
BRANCH   5  19
ATOM     19  C   UNL     1      -1.376  11.966  18.611  0.00  0.00    +0.000 C 
BRANCH  19  20
ATOM     20  N   UNL     1      -2.636  11.377  18.201  0.00  0.00    +0.000 N 
ATOM     21  C   UNL     1      -3.860  11.702  18.716  0.00  0.00    +0.000 C 
ATOM     22  O   UNL     1      -4.095  12.563  19.550  0.00  0.00    +0.000 OA
ATOM     23  C   UNL     1      -4.903  10.773  18.114  0.00  0.00    +0.000 C 
ATOM     24  N   UNL     1      -4.071   9.948  17.290  0.00  0.00    +0.000 N 
ATOM     25  C   UNL     1      -2.739  10.270  17.420  0.00  0.00    +0.000 C 
ATOM     26  O   UNL     1      -1.839   9.613  16.927  0.00  0.00    +0.000 OA
ATOM     27  H   UNL     1      -4.354   9.114  16.792  0.00  0.00    +0.000 HD
ENDBRANCH  19  20
ENDBRANCH   5  19
TORSDOF 4
ENDMDL
MODEL 4
REMARK VINA RESULT:      -7.1      6.112      8.394
REMARK  Name = 
REMARK  6 active torsions:
REMARK  status: ('A' for Active; 'I' for Inactive)
REMARK    1  A    between atoms: C_1  and  C_2
REMARK    2  A    between atoms: C_6  and  C_7
REMARK    3  A    between atoms: C_7  and  N_8
REMARK    4  A    between atoms: C_12  and  C_14
REMARK    5  A    between atoms: C_14  and  N_15
REMARK    6  A    between atoms: C_22  and  C_23
REMARK                            x       y       z     vdW  Elec       q    Type
REMARK                         _______ _______ _______ _____ _____    ______ ____
ROOT
ATOM      1  N   UNL     1       2.102   8.096  19.354  0.00  0.00    +0.000 N 
ATOM      2  C   UNL     1       1.303   8.158  20.574  0.00  0.00    +0.000 C 
ATOM      3  C   UNL     1       0.874   9.575  20.938  0.00  0.00    +0.000 C 
ATOM      4  N   UNL     1       0.293  10.261  19.781  0.00  0.00    +0.000 N 
ATOM      5  C   UNL     1      -0.766  11.135  19.998  0.00  0.00    +0.000 C 
ATOM      6  O   UNL     1      -1.244  11.279  21.127  0.00  0.00    +0.000 OA
ATOM      7  C   UNL     1       1.117  10.234  18.561  0.00  0.00    +0.000 C 
ATOM      8  C   UNL     1       2.267  11.244  18.672  0.00  0.00    +0.000 C 
ATOM      9  C   UNL     1       1.740   8.855  18.247  0.00  0.00    +0.000 C 
ATOM     10  O   UNL     1       2.100   8.573  17.103  0.00  0.00    +0.000 OA
ENDROOT
BRANCH   1  11
ATOM     11  C   UNL     1       3.095   7.035  19.215  0.00  0.00    +0.000 C 
BRANCH  11  17
ATOM     12  C   UNL     1       1.358   2.945  21.595  0.00  0.00    +0.000 C 
ATOM     13  C   UNL     1       1.593   3.684  20.310  0.00  0.00    +0.000 A 
ATOM     14  C   UNL     1       1.109   3.195  19.094  0.00  0.00    +0.000 A 
ATOM     15  C   UNL     1       1.294   3.926  17.919  0.00  0.00    +0.000 A 
ATOM     16  C   UNL     1       1.939   5.164  17.952  0.00  0.00    +0.000 A 
ATOM     17  C   UNL     1       2.423   5.678  19.159  0.00  0.00    +0.000 A 
ATOM     18  C   UNL     1       2.270   4.911  20.327  0.00  0.00    +0.000 A 
ENDBRANCH  11  17
ENDBRANCH   1  11
BRANCH   5  19
ATOM     19  C   UNL     1      -1.392  11.878  18.812  0.00  0.00    +0.000 C 
BRANCH  19  20
ATOM     20  N   UNL     1      -2.647  11.263  18.428  0.00  0.00    +0.000 N 
ATOM     21  C   UNL     1      -2.794  10.320  17.449  0.00  0.00    +0.000 C 
ATOM     22  O   UNL     1      -1.902   9.811  16.788  0.00  0.00    +0.000 OA
ATOM     23  C   UNL     1      -4.277  10.031  17.270  0.00  0.00    +0.000 C 
ATOM     24  N   UNL     1      -4.835  10.942  18.224  0.00  0.00    +0.000 N 
ATOM     25  C   UNL     1      -3.867  11.709  18.831  0.00  0.00    +0.000 C 
ATOM     26  O   UNL     1      -4.116  12.645  19.569  0.00  0.00    +0.000 OA
ATOM     27  H   UNL     1      -5.817  11.156  18.350  0.00  0.00    +0.000 HD
ENDBRANCH  19  20
ENDBRANCH   5  19
TORSDOF 4
ENDMDL
MODEL 5
REMARK VINA RESULT:      -7.1      0.636      1.965
REMARK  Name = 
REMARK  6 active torsions:
REMARK  status: ('A' for Active; 'I' for Inactive)
REMARK    1  A    between atoms: C_1  and  C_2
REMARK    2  A    between atoms: C_6  and  C_7
REMARK    3  A    between atoms: C_7  and  N_8
REMARK    4  A    between atoms: C_12  and  C_14
REMARK    5  A    between atoms: C_14  and  N_15
REMARK    6  A    between atoms: C_22  and  C_23
REMARK                            x       y       z     vdW  Elec       q    Type
REMARK                         _______ _______ _______ _____ _____    ______ ____
ROOT
ATOM      1  N   UNL     1       6.384   5.007  15.041  0.00  0.00    +0.000 N 
ATOM      2  C   UNL     1       6.572   3.769  15.792  0.00  0.00    +0.000 C 
ATOM      3  C   UNL     1       6.670   3.991  17.297  0.00  0.00    +0.000 C 
ATOM      4  N   UNL     1       5.580   4.846  17.774  0.00  0.00    +0.000 N 
ATOM      5  C   UNL     1       5.037   4.581  19.026  0.00  0.00    +0.000 C 
ATOM      6  O   UNL     1       5.419   3.612  19.688  0.00  0.00    +0.000 OA
ATOM      7  C   UNL     1       5.416   6.113  17.043  0.00  0.00    +0.000 C 
ATOM      8  C   UNL     1       6.490   7.120  17.475  0.00  0.00    +0.000 C 
ATOM      9  C   UNL     1       5.502   5.974  15.507  0.00  0.00    +0.000 C 
ATOM     10  O   UNL     1       5.002   6.826  14.769  0.00  0.00    +0.000 OA
ENDROOT
BRANCH   1  11
ATOM     11  C   UNL     1       6.903   5.091  13.679  0.00  0.00    +0.000 C 
BRANCH  11  17
ATOM     12  C   UNL     1       6.943   0.871  10.921  0.00  0.00    +0.000 C 
ATOM     13  C   UNL     1       6.201   2.077  11.418  0.00  0.00    +0.000 A 
ATOM     14  C   UNL     1       4.842   2.253  11.148  0.00  0.00    +0.000 A 
ATOM     15  C   UNL     1       4.160   3.356  11.665  0.00  0.00    +0.000 A 
ATOM     16  C   UNL     1       4.821   4.278  12.480  0.00  0.00    +0.000 A 
ATOM     17  C   UNL     1       6.180   4.116  12.771  0.00  0.00    +0.000 A 
ATOM     18  C   UNL     1       6.865   3.027  12.206  0.00  0.00    +0.000 A 
ENDBRANCH  11  17
ENDBRANCH   1  11
BRANCH   5  19
ATOM     19  C   UNL     1       3.902   5.462  19.562  0.00  0.00    +0.000 C 
BRANCH  19  20
ATOM     20  N   UNL     1       2.655   4.723  19.599  0.00  0.00    +0.000 N 
ATOM     21  C   UNL     1       2.102   4.169  20.720  0.00  0.00    +0.000 C 
ATOM     22  O   UNL     1       2.532   4.252  21.860  0.00  0.00    +0.000 OA
ATOM     23  C   UNL     1       0.870   3.376  20.314  0.00  0.00    +0.000 C 
ATOM     24  N   UNL     1       0.896   3.566  18.894  0.00  0.00    +0.000 N 
ATOM     25  C   UNL     1       1.995   4.291  18.492  0.00  0.00    +0.000 C 
ATOM     26  O   UNL     1       2.300   4.454  17.324  0.00  0.00    +0.000 OA
ATOM     27  H   UNL     1       0.305   3.105  18.214  0.00  0.00    +0.000 HD
ENDBRANCH  19  20
ENDBRANCH   5  19
TORSDOF 4
ENDMDL
MODEL 6
REMARK VINA RESULT:      -7.1      0.455      1.349
REMARK  Name = 
REMARK  6 active torsions:
REMARK  status: ('A' for Active; 'I' for Inactive)
REMARK    1  A    between atoms: C_1  and  C_2
REMARK    2  A    between atoms: C_6  and  C_7
REMARK    3  A    between atoms: C_7  and  N_8
REMARK    4  A    between atoms: C_12  and  C_14
REMARK    5  A    between atoms: C_14  and  N_15
REMARK    6  A    between atoms: C_22  and  C_23
REMARK                            x       y       z     vdW  Elec       q    Type
REMARK                         _______ _______ _______ _____ _____    ______ ____
ROOT
ATOM      1  N   UNL     1       6.351   5.085  15.267  0.00  0.00    +0.000 N 
ATOM      2  C   UNL     1       6.603   3.826  15.961  0.00  0.00    +0.000 C 
ATOM      3  C   UNL     1       6.637   3.973  17.478  0.00  0.00    +0.000 C 
ATOM      4  N   UNL     1       5.474   4.723  17.958  0.00  0.00    +0.000 N 
ATOM      5  C   UNL     1       4.911   4.355  19.175  0.00  0.00    +0.000 C 
ATOM      6  O   UNL     1       5.340   3.381  19.800  0.00  0.00    +0.000 OA
ATOM      7  C   UNL     1       5.243   6.013  17.287  0.00  0.00    +0.000 C 
ATOM      8  C   UNL     1       6.228   7.068  17.807  0.00  0.00    +0.000 C 
ATOM      9  C   UNL     1       5.387   5.962  15.749  0.00  0.00    +0.000 C 
ATOM     10  O   UNL     1       4.851   6.815  15.039  0.00  0.00    +0.000 OA
ENDROOT
BRANCH   1  11
ATOM     11  C   UNL     1       6.906   5.277  13.931  0.00  0.00    +0.000 C 
BRANCH  11  17
ATOM     12  C   UNL     1       7.594   1.426  10.752  0.00  0.00    +0.000 C 
ATOM     13  C   UNL     1       6.663   2.404  11.406  0.00  0.00    +0.000 A 
ATOM     14  C   UNL     1       5.281   2.323  11.221  0.00  0.00    +0.000 A 
ATOM     15  C   UNL     1       4.430   3.212  11.882  0.00  0.00    +0.000 A 
ATOM     16  C   UNL     1       4.950   4.170  12.755  0.00  0.00    +0.000 A 
ATOM     17  C   UNL     1       6.330   4.263  12.962  0.00  0.00    +0.000 A 
ATOM     18  C   UNL     1       7.178   3.393  12.255  0.00  0.00    +0.000 A 
ENDBRANCH  11  17
ENDBRANCH   1  11
BRANCH   5  19
ATOM     19  C   UNL     1       3.699   5.125  19.714  0.00  0.00    +0.000 C 
BRANCH  19  20
ATOM     20  N   UNL     1       2.527   4.272  19.752  0.00  0.00    +0.000 N 
ATOM     21  C   UNL     1       1.669   4.069  18.708  0.00  0.00    +0.000 C 
ATOM     22  O   UNL     1       1.776   4.519  17.578  0.00  0.00    +0.000 OA
ATOM     23  C   UNL     1       0.506   3.216  19.193  0.00  0.00    +0.000 C 
ATOM     24  N   UNL     1       0.861   3.055  20.572  0.00  0.00    +0.000 N 
ATOM     25  C   UNL     1       2.005   3.749  20.893  0.00  0.00    +0.000 C 
ATOM     26  O   UNL     1       2.416   3.875  22.033  0.00  0.00    +0.000 OA
ATOM     27  H   UNL     1       0.289   2.640  21.297  0.00  0.00    +0.000 HD
ENDBRANCH  19  20
ENDBRANCH   5  19
TORSDOF 4
ENDMDL
MODEL 7
REMARK VINA RESULT:      -6.8      6.875      9.189
REMARK  Name = 
REMARK  6 active torsions:
REMARK  status: ('A' for Active; 'I' for Inactive)
REMARK    1  A    between atoms: C_1  and  C_2
REMARK    2  A    between atoms: C_6  and  C_7
REMARK    3  A    between atoms: C_7  and  N_8
REMARK    4  A    between atoms: C_12  and  C_14
REMARK    5  A    between atoms: C_14  and  N_15
REMARK    6  A    between atoms: C_22  and  C_23
REMARK                            x       y       z     vdW  Elec       q    Type
REMARK                         _______ _______ _______ _____ _____    ______ ____
ROOT
ATOM      1  N   UNL     1       1.775   8.304  19.662  0.00  0.00    +0.000 N 
ATOM      2  C   UNL     1       1.514   7.867  21.030  0.00  0.00    +0.000 C 
ATOM      3  C   UNL     1       1.276   9.025  21.993  0.00  0.00    +0.000 C 
ATOM      4  N   UNL     1       0.299   9.970  21.447  0.00  0.00    +0.000 N 
ATOM      5  C   UNL     1      -0.582  10.587  22.328  0.00  0.00    +0.000 C 
ATOM      6  O   UNL     1      -0.582  10.296  23.527  0.00  0.00    +0.000 OA
ATOM      7  C   UNL     1       0.584  10.443  20.082  0.00  0.00    +0.000 C 
ATOM      8  C   UNL     1       1.698  11.497  20.105  0.00  0.00    +0.000 C 
ATOM      9  C   UNL     1       1.021   9.329  19.104  0.00  0.00    +0.000 C 
ATOM     10  O   UNL     1       0.905   9.480  17.887  0.00  0.00    +0.000 OA
ENDROOT
BRANCH   1  11
ATOM     11  C   UNL     1       2.624   7.478  18.808  0.00  0.00    +0.000 C 
BRANCH  11  17
ATOM     12  C   UNL     1       2.065   3.387  21.700  0.00  0.00    +0.000 C 
ATOM     13  C   UNL     1       1.998   4.023  20.342  0.00  0.00    +0.000 A 
ATOM     14  C   UNL     1       1.503   3.323  19.239  0.00  0.00    +0.000 A 
ATOM     15  C   UNL     1       1.401   3.951  17.997  0.00  0.00    +0.000 A 
ATOM     16  C   UNL     1       1.766   5.292  17.851  0.00  0.00    +0.000 A 
ATOM     17  C   UNL     1       2.255   6.015  18.944  0.00  0.00    +0.000 A 
ATOM     18  C   UNL     1       2.396   5.356  20.178  0.00  0.00    +0.000 A 
ENDBRANCH  11  17
ENDBRANCH   1  11
BRANCH   5  19
ATOM     19  C   UNL     1      -1.611  11.590  21.793  0.00  0.00    +0.000 C 
BRANCH  19  20
ATOM     20  N   UNL     1      -1.882  12.619  22.777  0.00  0.00    +0.000 N 
ATOM     21  C   UNL     1      -3.094  12.842  23.368  0.00  0.00    +0.000 C 
ATOM     22  O   UNL     1      -4.114  12.188  23.208  0.00  0.00    +0.000 OA
ATOM     23  C   UNL     1      -2.990  14.086  24.238  0.00  0.00    +0.000 C 
ATOM     24  N   UNL     1      -1.632  14.464  23.987  0.00  0.00    +0.000 N 
ATOM     25  C   UNL     1      -1.028  13.637  23.067  0.00  0.00    +0.000 C 
ATOM     26  O   UNL     1       0.074  13.850  22.595  0.00  0.00    +0.000 OA
ATOM     27  H   UNL     1      -1.179  15.318  24.288  0.00  0.00    +0.000 HD
ENDBRANCH  19  20
ENDBRANCH   5  19
TORSDOF 4
ENDMDL
MODEL 8
REMARK VINA RESULT:      -6.8      6.826      9.158
REMARK  Name = 
REMARK  6 active torsions:
REMARK  status: ('A' for Active; 'I' for Inactive)
REMARK    1  A    between atoms: C_1  and  C_2
REMARK    2  A    between atoms: C_6  and  C_7
REMARK    3  A    between atoms: C_7  and  N_8
REMARK    4  A    between atoms: C_12  and  C_14
REMARK    5  A    between atoms: C_14  and  N_15
REMARK    6  A    between atoms: C_22  and  C_23
REMARK                            x       y       z     vdW  Elec       q    Type
REMARK                         _______ _______ _______ _____ _____    ______ ____
ROOT
ATOM      1  N   UNL     1       1.815   8.272  19.694  0.00  0.00    +0.000 N 
ATOM      2  C   UNL     1       1.539   7.869  21.069  0.00  0.00    +0.000 C 
ATOM      3  C   UNL     1       1.283   9.049  22.000  0.00  0.00    +0.000 C 
ATOM      4  N   UNL     1       0.307   9.974  21.418  0.00  0.00    +0.000 N 
ATOM      5  C   UNL     1      -0.589  10.608  22.271  0.00  0.00    +0.000 C 
ATOM      6  O   UNL     1      -0.603  10.348  23.478  0.00  0.00    +0.000 OA
ATOM      7  C   UNL     1       0.606  10.413  20.045  0.00  0.00    +0.000 C 
ATOM      8  C   UNL     1       1.713  11.475  20.055  0.00  0.00    +0.000 C 
ATOM      9  C   UNL     1       1.061   9.278  19.101  0.00  0.00    +0.000 C 
ATOM     10  O   UNL     1       0.959   9.397  17.879  0.00  0.00    +0.000 OA
ENDROOT
BRANCH   1  11
ATOM     11  C   UNL     1       2.679   7.430  18.872  0.00  0.00    +0.000 C 
BRANCH  11  17
ATOM     12  C   UNL     1       2.049   3.329  21.735  0.00  0.00    +0.000 C 
ATOM     13  C   UNL     1       1.990   3.976  20.382  0.00  0.00    +0.000 A 
ATOM     14  C   UNL     1       1.477   3.295  19.275  0.00  0.00    +0.000 A 
ATOM     15  C   UNL     1       1.383   3.935  18.038  0.00  0.00    +0.000 A 
ATOM     16  C   UNL     1       1.774   5.269  17.901  0.00  0.00    +0.000 A 
ATOM     17  C   UNL     1       2.281   5.973  18.998  0.00  0.00    +0.000 A 
ATOM     18  C   UNL     1       2.413   5.303  20.226  0.00  0.00    +0.000 A 
ENDBRANCH  11  17
ENDBRANCH   1  11
BRANCH   5  19
ATOM     19  C   UNL     1      -1.617  11.590  21.698  0.00  0.00    +0.000 C 
BRANCH  19  20
ATOM     20  N   UNL     1      -1.826  12.701  22.607  0.00  0.00    +0.000 N 
ATOM     21  C   UNL     1      -0.888  13.643  22.925  0.00  0.00    +0.000 C 
ATOM     22  O   UNL     1       0.239  13.734  22.463  0.00  0.00    +0.000 OA
ATOM     23  C   UNL     1      -1.458  14.551  24.003  0.00  0.00    +0.000 C 
ATOM     24  N   UNL     1      -2.740  13.944  24.203  0.00  0.00    +0.000 N 
ATOM     25  C   UNL     1      -2.900  12.815  23.432  0.00  0.00    +0.000 C 
ATOM     26  O   UNL     1      -3.848  12.058  23.539  0.00  0.00    +0.000 OA
ATOM     27  H   UNL     1      -3.409  14.173  24.927  0.00  0.00    +0.000 HD
ENDBRANCH  19  20
ENDBRANCH   5  19
TORSDOF 4
ENDMDL
MODEL 9
REMARK VINA RESULT:      -6.7      6.839      9.078
REMARK  Name = 
REMARK  6 active torsions:
REMARK  status: ('A' for Active; 'I' for Inactive)
REMARK    1  A    between atoms: C_1  and  C_2
REMARK    2  A    between atoms: C_6  and  C_7
REMARK    3  A    between atoms: C_7  and  N_8
REMARK    4  A    between atoms: C_12  and  C_14
REMARK    5  A    between atoms: C_14  and  N_15
REMARK    6  A    between atoms: C_22  and  C_23
REMARK                            x       y       z     vdW  Elec       q    Type
REMARK                         _______ _______ _______ _____ _____    ______ ____
ROOT
ATOM      1  N   UNL     1       2.039   8.072  19.490  0.00  0.00    +0.000 N 
ATOM      2  C   UNL     1       1.443   8.059  20.822  0.00  0.00    +0.000 C 
ATOM      3  C   UNL     1       1.015   9.442  21.301  0.00  0.00    +0.000 C 
ATOM      4  N   UNL     1       0.226  10.130  20.276  0.00  0.00    +0.000 N 
ATOM      5  C   UNL     1      -0.822  10.944  20.690  0.00  0.00    +0.000 C 
ATOM      6  O   UNL     1      -1.121  11.031  21.884  0.00  0.00    +0.000 OA
ATOM      7  C   UNL     1       0.845  10.180  18.941  0.00  0.00    +0.000 C 
ATOM      8  C   UNL     1       1.952  11.243  18.906  0.00  0.00    +0.000 C 
ATOM      9  C   UNL     1       1.472   8.844  18.483  0.00  0.00    +0.000 C 
ATOM     10  O   UNL     1       1.657   8.614  17.287  0.00  0.00    +0.000 OA
ENDROOT
BRANCH   1  11
ATOM     11  C   UNL     1       3.044   7.066  19.157  0.00  0.00    +0.000 C 
BRANCH  11  17
ATOM     12  C   UNL     1       1.508   2.931  21.598  0.00  0.00    +0.000 C 
ATOM     13  C   UNL     1       1.694   3.668  20.304  0.00  0.00    +0.000 A 
ATOM     14  C   UNL     1       1.210   3.150  19.100  0.00  0.00    +0.000 A 
ATOM     15  C   UNL     1       1.346   3.878  17.916  0.00  0.00    +0.000 A 
ATOM     16  C   UNL     1       1.942   5.141  17.928  0.00  0.00    +0.000 A 
ATOM     17  C   UNL     1       2.425   5.684  19.124  0.00  0.00    +0.000 A 
ATOM     18  C   UNL     1       2.322   4.921  20.300  0.00  0.00    +0.000 A 
ENDBRANCH  11  17
ENDBRANCH   1  11
BRANCH   5  19
ATOM     19  C   UNL     1      -1.662  11.689  19.645  0.00  0.00    +0.000 C 
BRANCH  19  20
ATOM     20  N   UNL     1      -1.949  13.040  20.088  0.00  0.00    +0.000 N 
ATOM     21  C   UNL     1      -3.117  13.445  20.670  0.00  0.00    +0.000 C 
ATOM     22  O   UNL     1      -4.071  12.738  20.959  0.00  0.00    +0.000 OA
ATOM     23  C   UNL     1      -3.067  14.952  20.865  0.00  0.00    +0.000 C 
ATOM     24  N   UNL     1      -1.786  15.244  20.293  0.00  0.00    +0.000 N 
ATOM     25  C   UNL     1      -1.186  14.120  19.773  0.00  0.00    +0.000 C 
ATOM     26  O   UNL     1      -0.163  14.150  19.113  0.00  0.00    +0.000 OA
ATOM     27  H   UNL     1      -1.402  16.164  20.114  0.00  0.00    +0.000 HD
ENDBRANCH  19  20
ENDBRANCH   5  19
TORSDOF 4
ENDMDL
