MODEL 1
REMARK VINA RESULT:      -7.4      0.000      0.000
REMARK  Name = 
REMARK  10 active torsions:
REMARK  status: ('A' for Active; 'I' for Inactive)
REMARK    1  A    between atoms: C_1  and  C_2
REMARK    2  A    between atoms: C_2  and  N_3
REMARK    3  A    between atoms: C_2  and  C_9
REMARK    4  A    between atoms: C_4  and  C_6
REMARK    5  A    between atoms: C_12  and  O_13
REMARK    6  A    between atoms: O_13  and  C_14
REMARK    7  A    between atoms: N_17  and  C_18
REMARK    8  A    between atoms: C_22  and  O_23
REMARK    9  A    between atoms: O_23  and  C_24
REMARK   10  A    between atoms: C_24  and  C_25
REMARK                            x       y       z     vdW  Elec       q    Type
REMARK                         _______ _______ _______ _____ _____    ______ ____
ROOT
ATOM      1  O   UNL     1       0.777   7.438  21.223  0.00  0.00    +0.000 OA
ENDROOT
BRANCH   1   5
ATOM      2  C   UNL     1       3.155   4.625  19.175  0.00  0.00    +0.000 A 
ATOM      3  C   UNL     1       2.241   4.255  20.173  0.00  0.00    +0.000 A 
ATOM      4  C   UNL     1       1.460   5.223  20.828  0.00  0.00    +0.000 A 
ATOM      5  C   UNL     1       1.578   6.578  20.508  0.00  0.00    +0.000 A 
ATOM      6  C   UNL     1       2.471   6.947  19.503  0.00  0.00    +0.000 A 
ATOM      7  C   UNL     1       3.237   5.983  18.839  0.00  0.00    +0.000 A 
BRANCH   2   9
ATOM      8  C   UNL     1       3.890   2.192  19.094  0.00  0.00    +0.000 C 
ATOM      9  C   UNL     1       3.966   3.573  18.424  0.00  0.00    +0.000 C 
BRANCH   9  10
ATOM     10  N   UNL     1       5.336   4.052  18.311  0.00  0.00    +0.000 N 
ATOM     11  C   UNL     1       5.951   4.349  17.123  0.00  0.00    +0.000 C 
ATOM     12  O   UNL     1       5.463   4.188  16.014  0.00  0.00    +0.000 OA
ATOM     13  H   UNL     1       5.814   4.289  19.170  0.00  0.00    +0.000 HD
BRANCH  11  14
ATOM     14  C   UNL     1       7.332   4.886  17.297  0.00  0.00    +0.000 C 
ATOM     15  C   UNL     1       7.545   6.380  17.386  0.00  0.00    +0.000 C 
ATOM     16  C   UNL     1       7.778   5.520  18.594  0.00  0.00    +0.000 C 
ENDBRANCH  11  14
ENDBRANCH   9  10
ENDBRANCH   2   9
ENDBRANCH   1   5
BRANCH   1  17
ATOM     17  C   UNL     1       1.278   8.768  21.439  0.00  0.00    +0.000 C 
ATOM     18  C   UNL     1       1.236   9.117  22.924  0.00  0.00    +0.000 C 
ATOM     19  C   UNL     1      -0.135   9.746  23.133  0.00  0.00    +0.000 C 
ATOM     20  N   UNL     1      -0.444  10.390  21.863  0.00  0.00    +0.000 N 
ATOM     21  C   UNL     1       0.370   9.834  20.779  0.00  0.00    +0.000 C 
BRANCH  20  22
ATOM     22  C   UNL     1      -1.369  11.399  21.715  0.00  0.00    +0.000 A 
ATOM     23  C   UNL     1      -1.577  12.021  20.478  0.00  0.00    +0.000 A 
ATOM     24  C   UNL     1      -2.544  13.005  20.339  0.00  0.00    +0.000 A 
ATOM     25  N   UNL     1      -3.340  13.417  21.339  0.00  0.00    +0.000 NA
ATOM     26  C   UNL     1      -3.141  12.830  22.534  0.00  0.00    +0.000 A 
ATOM     27  C   UNL     1      -2.173  11.855  22.768  0.00  0.00    +0.000 A 
BRANCH  26  28
ATOM     28  O   UNL     1      -3.927  13.215  23.608  0.00  0.00    +0.000 OA
BRANCH  28  29
ATOM     29  C   UNL     1      -5.208  13.698  23.186  0.00  0.00    +0.000 C 
BRANCH  29  30
ATOM     30  C   UNL     1      -6.282  12.818  23.763  0.00  0.00    +0.000 C 
ATOM     31  C   UNL     1      -7.538  13.459  24.320  0.00  0.00    +0.000 C 
ATOM     32  C   UNL     1      -7.607  12.625  23.067  0.00  0.00    +0.000 C 
ENDBRANCH  29  30
ENDBRANCH  28  29
ENDBRANCH  26  28
ENDBRANCH  20  22
ENDBRANCH   1  17
TORSDOF 9
ENDMDL
MODEL 2
REMARK VINA RESULT:      -7.4      0.671      1.140
REMARK  Name = 
REMARK  10 active torsions:
REMARK  status: ('A' for Active; 'I' for Inactive)
REMARK    1  A    between atoms: C_1  and  C_2
REMARK    2  A    between atoms: C_2  and  N_3
REMARK    3  A    between atoms: C_2  and  C_9
REMARK    4  A    between atoms: C_4  and  C_6
REMARK    5  A    between atoms: C_12  and  O_13
REMARK    6  A    between atoms: O_13  and  C_14
REMARK    7  A    between atoms: N_17  and  C_18
REMARK    8  A    between atoms: C_22  and  O_23
REMARK    9  A    between atoms: O_23  and  C_24
REMARK   10  A    between atoms: C_24  and  C_25
REMARK                            x       y       z     vdW  Elec       q    Type
REMARK                         _______ _______ _______ _____ _____    ______ ____
ROOT
ATOM      1  O   UNL     1       0.743   7.409  20.974  0.00  0.00    +0.000 OA
ENDROOT
BRANCH   1   5
ATOM      2  C   UNL     1       3.374   4.465  19.501  0.00  0.00    +0.000 A 
ATOM      3  C   UNL     1       3.440   5.807  19.094  0.00  0.00    +0.000 A 
ATOM      4  C   UNL     1       2.549   6.761  19.616  0.00  0.00    +0.000 A 
ATOM      5  C   UNL     1       1.570   6.398  20.544  0.00  0.00    +0.000 A 
ATOM      6  C   UNL     1       1.514   5.069  20.964  0.00  0.00    +0.000 A 
ATOM      7  C   UNL     1       2.411   4.122  20.459  0.00  0.00    +0.000 A 
BRANCH   2   9
ATOM      8  C   UNL     1       4.406   2.166  19.844  0.00  0.00    +0.000 C 
ATOM      9  C   UNL     1       4.372   3.436  18.978  0.00  0.00    +0.000 C 
BRANCH   9  10
ATOM     10  N   UNL     1       5.678   4.074  18.892  0.00  0.00    +0.000 N 
ATOM     11  C   UNL     1       6.271   4.453  17.716  0.00  0.00    +0.000 C 
ATOM     12  O   UNL     1       5.822   4.247  16.598  0.00  0.00    +0.000 OA
ATOM     13  H   UNL     1       6.111   4.357  19.760  0.00  0.00    +0.000 HD
BRANCH  11  14
ATOM     14  C   UNL     1       7.577   5.148  17.918  0.00  0.00    +0.000 C 
ATOM     15  C   UNL     1       7.625   6.659  17.913  0.00  0.00    +0.000 C 
ATOM     16  C   UNL     1       7.883   5.907  19.187  0.00  0.00    +0.000 C 
ENDBRANCH  11  14
ENDBRANCH   9  10
ENDBRANCH   2   9
ENDBRANCH   1   5
BRANCH   1  17
ATOM     17  C   UNL     1       1.351   8.688  21.225  0.00  0.00    +0.000 C 
ATOM     18  C   UNL     1       1.313   9.011  22.715  0.00  0.00    +0.000 C 
ATOM     19  C   UNL     1      -0.004   9.752  22.914  0.00  0.00    +0.000 C 
ATOM     20  N   UNL     1      -0.232  10.443  21.652  0.00  0.00    +0.000 N 
ATOM     21  C   UNL     1       0.551   9.840  20.571  0.00  0.00    +0.000 C 
BRANCH  20  22
ATOM     22  C   UNL     1      -1.064  11.531  21.508  0.00  0.00    +0.000 A 
ATOM     23  C   UNL     1      -1.093  12.274  20.323  0.00  0.00    +0.000 A 
ATOM     24  C   UNL     1      -1.970  13.340  20.182  0.00  0.00    +0.000 A 
ATOM     25  N   UNL     1      -2.840  13.722  21.130  0.00  0.00    +0.000 NA
ATOM     26  C   UNL     1      -2.813  13.017  22.277  0.00  0.00    +0.000 A 
ATOM     27  C   UNL     1      -1.945  11.953  22.513  0.00  0.00    +0.000 A 
BRANCH  26  28
ATOM     28  O   UNL     1      -3.683  13.365  23.297  0.00  0.00    +0.000 OA
BRANCH  28  29
ATOM     29  C   UNL     1      -4.905  13.918  22.791  0.00  0.00    +0.000 C 
BRANCH  29  30
ATOM     30  C   UNL     1      -5.927  12.823  22.662  0.00  0.00    +0.000 C 
ATOM     31  C   UNL     1      -7.346  13.183  22.269  0.00  0.00    +0.000 C 
ATOM     32  C   UNL     1      -6.473  12.404  21.319  0.00  0.00    +0.000 C 
ENDBRANCH  29  30
ENDBRANCH  28  29
ENDBRANCH  26  28
ENDBRANCH  20  22
ENDBRANCH   1  17
TORSDOF 9
ENDMDL
MODEL 3
REMARK VINA RESULT:      -7.3      3.552     11.006
REMARK  Name = 
REMARK  10 active torsions:
REMARK  status: ('A' for Active; 'I' for Inactive)
REMARK    1  A    between atoms: C_1  and  C_2
REMARK    2  A    between atoms: C_2  and  N_3
REMARK    3  A    between atoms: C_2  and  C_9
REMARK    4  A    between atoms: C_4  and  C_6
REMARK    5  A    between atoms: C_12  and  O_13
REMARK    6  A    between atoms: O_13  and  C_14
REMARK    7  A    between atoms: N_17  and  C_18
REMARK    8  A    between atoms: C_22  and  O_23
REMARK    9  A    between atoms: O_23  and  C_24
REMARK   10  A    between atoms: C_24  and  C_25
REMARK                            x       y       z     vdW  Elec       q    Type
REMARK                         _______ _______ _______ _____ _____    ______ ____
ROOT
ATOM      1  O   UNL     1       2.134   2.713  19.516  0.00  0.00    +0.000 OA
ENDROOT
BRANCH   1   5
ATOM      2  C   UNL     1       1.633   6.852  18.901  0.00  0.00    +0.000 A 
ATOM      3  C   UNL     1       1.839   6.298  20.174  0.00  0.00    +0.000 A 
ATOM      4  C   UNL     1       2.010   4.912  20.337  0.00  0.00    +0.000 A 
ATOM      5  C   UNL     1       1.971   4.050  19.238  0.00  0.00    +0.000 A 
ATOM      6  C   UNL     1       1.787   4.599  17.969  0.00  0.00    +0.000 A 
ATOM      7  C   UNL     1       1.633   5.980  17.804  0.00  0.00    +0.000 A 
BRANCH   2   9
ATOM      8  C   UNL     1       2.698   8.960  17.961  0.00  0.00    +0.000 C 
ATOM      9  C   UNL     1       1.500   8.360  18.713  0.00  0.00    +0.000 C 
BRANCH   9  10
ATOM     10  N   UNL     1       1.317   8.967  20.024  0.00  0.00    +0.000 N 
ATOM     11  C   UNL     1       0.269   9.786  20.351  0.00  0.00    +0.000 C 
ATOM     12  O   UNL     1      -0.599  10.168  19.580  0.00  0.00    +0.000 OA
ATOM     13  H   UNL     1       1.938   8.665  20.762  0.00  0.00    +0.000 HD
BRANCH  11  14
ATOM     14  C   UNL     1       0.286  10.214  21.781  0.00  0.00    +0.000 C 
ATOM     15  C   UNL     1      -0.555   9.467  22.792  0.00  0.00    +0.000 C 
ATOM     16  C   UNL     1       0.943   9.375  22.852  0.00  0.00    +0.000 C 
ENDBRANCH  11  14
ENDBRANCH   9  10
ENDBRANCH   2   9
ENDBRANCH   1   5
BRANCH   1  17
ATOM     17  C   UNL     1       3.343   2.091  19.048  0.00  0.00    +0.000 C 
ATOM     18  C   UNL     1       4.458   2.256  20.077  0.00  0.00    +0.000 C 
ATOM     19  C   UNL     1       5.143   3.562  19.695  0.00  0.00    +0.000 C 
ATOM     20  N   UNL     1       4.985   3.652  18.249  0.00  0.00    +0.000 N 
ATOM     21  C   UNL     1       3.894   2.792  17.783  0.00  0.00    +0.000 C 
BRANCH  20  22
ATOM     22  C   UNL     1       5.773   4.434  17.435  0.00  0.00    +0.000 A 
ATOM     23  C   UNL     1       6.551   5.474  17.955  0.00  0.00    +0.000 A 
ATOM     24  C   UNL     1       7.372   6.223  17.124  0.00  0.00    +0.000 A 
ATOM     25  N   UNL     1       7.494   6.010  15.804  0.00  0.00    +0.000 NA
ATOM     26  C   UNL     1       6.742   5.016  15.294  0.00  0.00    +0.000 A 
ATOM     27  C   UNL     1       5.869   4.236  16.050  0.00  0.00    +0.000 A 
BRANCH  26  28
ATOM     28  O   UNL     1       6.817   4.749  13.937  0.00  0.00    +0.000 OA
BRANCH  28  29
ATOM     29  C   UNL     1       6.232   3.483  13.607  0.00  0.00    +0.000 C 
BRANCH  29  30
ATOM     30  C   UNL     1       5.960   3.433  12.130  0.00  0.00    +0.000 C 
ATOM     31  C   UNL     1       5.468   2.138  11.515  0.00  0.00    +0.000 C 
ATOM     32  C   UNL     1       4.556   3.336  11.586  0.00  0.00    +0.000 C 
ENDBRANCH  29  30
ENDBRANCH  28  29
ENDBRANCH  26  28
ENDBRANCH  20  22
ENDBRANCH   1  17
TORSDOF 9
ENDMDL
MODEL 4
REMARK VINA RESULT:      -7.3      1.714      3.311
REMARK  Name = 
REMARK  10 active torsions:
REMARK  status: ('A' for Active; 'I' for Inactive)
REMARK    1  A    between atoms: C_1  and  C_2
REMARK    2  A    between atoms: C_2  and  N_3
REMARK    3  A    between atoms: C_2  and  C_9
REMARK    4  A    between atoms: C_4  and  C_6
REMARK    5  A    between atoms: C_12  and  O_13
REMARK    6  A    between atoms: O_13  and  C_14
REMARK    7  A    between atoms: N_17  and  C_18
REMARK    8  A    between atoms: C_22  and  O_23
REMARK    9  A    between atoms: O_23  and  C_24
REMARK   10  A    between atoms: C_24  and  C_25
REMARK                            x       y       z     vdW  Elec       q    Type
REMARK                         _______ _______ _______ _____ _____    ______ ____
ROOT
ATOM      1  O   UNL     1       0.682   7.394  20.851  0.00  0.00    +0.000 OA
ENDROOT
BRANCH   1   5
ATOM      2  C   UNL     1       3.369   4.452  19.479  0.00  0.00    +0.000 A 
ATOM      3  C   UNL     1       3.452   5.794  19.078  0.00  0.00    +0.000 A 
ATOM      4  C   UNL     1       2.541   6.747  19.565  0.00  0.00    +0.000 A 
ATOM      5  C   UNL     1       1.526   6.383  20.453  0.00  0.00    +0.000 A 
ATOM      6  C   UNL     1       1.453   5.054  20.869  0.00  0.00    +0.000 A 
ATOM      7  C   UNL     1       2.369   4.107  20.398  0.00  0.00    +0.000 A 
BRANCH   2   9
ATOM      8  C   UNL     1       4.427   2.176  19.893  0.00  0.00    +0.000 C 
ATOM      9  C   UNL     1       4.387   3.423  18.995  0.00  0.00    +0.000 C 
BRANCH   9  10
ATOM     10  N   UNL     1       5.686   4.076  18.909  0.00  0.00    +0.000 N 
ATOM     11  C   UNL     1       6.289   4.433  17.731  0.00  0.00    +0.000 C 
ATOM     12  O   UNL     1       5.858   4.191  16.613  0.00  0.00    +0.000 OA
ATOM     13  H   UNL     1       6.104   4.387  19.775  0.00  0.00    +0.000 HD
BRANCH  11  14
ATOM     14  C   UNL     1       7.583   5.150  17.931  0.00  0.00    +0.000 C 
ATOM     15  C   UNL     1       7.594   6.659  18.002  0.00  0.00    +0.000 C 
ATOM     16  C   UNL     1       7.908   5.851  19.228  0.00  0.00    +0.000 C 
ENDBRANCH  11  14
ENDBRANCH   9  10
ENDBRANCH   2   9
ENDBRANCH   1   5
BRANCH   1  17
ATOM     17  C   UNL     1       1.262   8.699  21.020  0.00  0.00    +0.000 C 
ATOM     18  C   UNL     1       1.602   8.944  22.487  0.00  0.00    +0.000 C 
ATOM     19  C   UNL     1       0.346   9.575  23.073  0.00  0.00    +0.000 C 
ATOM     20  N   UNL     1      -0.248  10.311  21.964  0.00  0.00    +0.000 N 
ATOM     21  C   UNL     1       0.253   9.821  20.678  0.00  0.00    +0.000 C 
BRANCH  20  22
ATOM     22  C   UNL     1      -1.149  11.341  22.118  0.00  0.00    +0.000 A 
ATOM     23  C   UNL     1      -1.983  11.419  23.239  0.00  0.00    +0.000 A 
ATOM     24  C   UNL     1      -2.853  12.488  23.396  0.00  0.00    +0.000 A 
ATOM     25  N   UNL     1      -2.953  13.505  22.525  0.00  0.00    +0.000 NA
ATOM     26  C   UNL     1      -2.160  13.433  21.439  0.00  0.00    +0.000 A 
ATOM     27  C   UNL     1      -1.280  12.382  21.188  0.00  0.00    +0.000 A 
BRANCH  26  28
ATOM     28  O   UNL     1      -2.220  14.449  20.499  0.00  0.00    +0.000 OA
BRANCH  28  29
ATOM     29  C   UNL     1      -1.116  15.354  20.619  0.00  0.00    +0.000 C 
BRANCH  29  30
ATOM     30  C   UNL     1      -0.438  15.486  19.283  0.00  0.00    +0.000 C 
ATOM     31  C   UNL     1       1.021  15.097  19.156  0.00  0.00    +0.000 C 
ATOM     32  C   UNL     1      -0.043  14.277  18.473  0.00  0.00    +0.000 C 
ENDBRANCH  29  30
ENDBRANCH  28  29
ENDBRANCH  26  28
ENDBRANCH  20  22
ENDBRANCH   1  17
TORSDOF 9
ENDMDL
MODEL 5
REMARK VINA RESULT:      -7.2      3.718     11.092
REMARK  Name = 
REMARK  10 active torsions:
REMARK  status: ('A' for Active; 'I' for Inactive)
REMARK    1  A    between atoms: C_1  and  C_2
REMARK    2  A    between atoms: C_2  and  N_3
REMARK    3  A    between atoms: C_2  and  C_9
REMARK    4  A    between atoms: C_4  and  C_6
REMARK    5  A    between atoms: C_12  and  O_13
REMARK    6  A    between atoms: O_13  and  C_14
REMARK    7  A    between atoms: N_17  and  C_18
REMARK    8  A    between atoms: C_22  and  O_23
REMARK    9  A    between atoms: O_23  and  C_24
REMARK   10  A    between atoms: C_24  and  C_25
REMARK                            x       y       z     vdW  Elec       q    Type
REMARK                         _______ _______ _______ _____ _____    ______ ____
ROOT
ATOM      1  O   UNL     1       1.811   2.709  19.086  0.00  0.00    +0.000 OA
ENDROOT
BRANCH   1   5
ATOM      2  C   UNL     1       1.763   6.814  20.039  0.00  0.00    +0.000 A 
ATOM      3  C   UNL     1       1.947   6.347  18.729  0.00  0.00    +0.000 A 
ATOM      4  C   UNL     1       1.948   4.969  18.451  0.00  0.00    +0.000 A 
ATOM      5  C   UNL     1       1.775   4.029  19.471  0.00  0.00    +0.000 A 
ATOM      6  C   UNL     1       1.573   4.491  20.771  0.00  0.00    +0.000 A 
ATOM      7  C   UNL     1       1.555   5.863  21.047  0.00  0.00    +0.000 A 
BRANCH   2   9
ATOM      8  C   UNL     1       1.353   8.596  21.807  0.00  0.00    +0.000 C 
ATOM      9  C   UNL     1       1.707   8.309  20.339  0.00  0.00    +0.000 C 
BRANCH   9  10
ATOM     10  N   UNL     1       0.760   8.922  19.418  0.00  0.00    +0.000 N 
ATOM     11  C   UNL     1       0.602  10.274  19.266  0.00  0.00    +0.000 C 
ATOM     12  O   UNL     1       1.175  11.132  19.922  0.00  0.00    +0.000 OA
ATOM     13  H   UNL     1       0.281   8.308  18.774  0.00  0.00    +0.000 HD
BRANCH  11  14
ATOM     14  C   UNL     1      -0.385  10.632  18.206  0.00  0.00    +0.000 C 
ATOM     15  C   UNL     1      -1.859  10.667  18.542  0.00  0.00    +0.000 C 
ATOM     16  C   UNL     1      -1.134  11.944  18.231  0.00  0.00    +0.000 C 
ENDBRANCH  11  14
ENDBRANCH   9  10
ENDBRANCH   2   9
ENDBRANCH   1   5
BRANCH   1  17
ATOM     17  C   UNL     1       3.108   2.126  18.874  0.00  0.00    +0.000 C 
ATOM     18  C   UNL     1       4.048   2.487  20.021  0.00  0.00    +0.000 C 
ATOM     19  C   UNL     1       4.710   3.786  19.580  0.00  0.00    +0.000 C 
ATOM     20  N   UNL     1       4.763   3.699  18.127  0.00  0.00    +0.000 N 
ATOM     21  C   UNL     1       3.802   2.715  17.622  0.00  0.00    +0.000 C 
BRANCH  20  22
ATOM     22  C   UNL     1       5.620   4.437  17.341  0.00  0.00    +0.000 A 
ATOM     23  C   UNL     1       6.404   5.461  17.882  0.00  0.00    +0.000 A 
ATOM     24  C   UNL     1       7.294   6.165  17.082  0.00  0.00    +0.000 A 
ATOM     25  N   UNL     1       7.478   5.919  15.775  0.00  0.00    +0.000 NA
ATOM     26  C   UNL     1       6.721   4.940  15.244  0.00  0.00    +0.000 A 
ATOM     27  C   UNL     1       5.783   4.205  15.968  0.00  0.00    +0.000 A 
BRANCH  26  28
ATOM     28  O   UNL     1       6.860   4.642  13.899  0.00  0.00    +0.000 OA
BRANCH  28  29
ATOM     29  C   UNL     1       6.140   3.457  13.537  0.00  0.00    +0.000 C 
BRANCH  29  30
ATOM     30  C   UNL     1       5.909   3.452  12.052  0.00  0.00    +0.000 C 
ATOM     31  C   UNL     1       5.607   2.139  11.357  0.00  0.00    +0.000 C 
ATOM     32  C   UNL     1       4.543   3.200  11.464  0.00  0.00    +0.000 C 
ENDBRANCH  29  30
ENDBRANCH  28  29
ENDBRANCH  26  28
ENDBRANCH  20  22
ENDBRANCH   1  17
TORSDOF 9
ENDMDL
MODEL 6
REMARK VINA RESULT:      -7.2      2.487     11.936
REMARK  Name = 
REMARK  10 active torsions:
REMARK  status: ('A' for Active; 'I' for Inactive)
REMARK    1  A    between atoms: C_1  and  C_2
REMARK    2  A    between atoms: C_2  and  N_3
REMARK    3  A    between atoms: C_2  and  C_9
REMARK    4  A    between atoms: C_4  and  C_6
REMARK    5  A    between atoms: C_12  and  O_13
REMARK    6  A    between atoms: O_13  and  C_14
REMARK    7  A    between atoms: N_17  and  C_18
REMARK    8  A    between atoms: C_22  and  O_23
REMARK    9  A    between atoms: O_23  and  C_24
REMARK   10  A    between atoms: C_24  and  C_25
REMARK                            x       y       z     vdW  Elec       q    Type
REMARK                         _______ _______ _______ _____ _____    ______ ____
ROOT
ATOM      1  O   UNL     1       2.101   6.745  20.294  0.00  0.00    +0.000 OA
ENDROOT
BRANCH   1   5
ATOM      2  C   UNL     1       0.328  10.562  20.076  0.00  0.00    +0.000 A 
ATOM      3  C   UNL     1       0.250   9.759  21.224  0.00  0.00    +0.000 A 
ATOM      4  C   UNL     1       0.862   8.494  21.260  0.00  0.00    +0.000 A 
ATOM      5  C   UNL     1       1.556   8.000  20.153  0.00  0.00    +0.000 A 
ATOM      6  C   UNL     1       1.652   8.803  19.017  0.00  0.00    +0.000 A 
ATOM      7  C   UNL     1       1.057  10.069  18.985  0.00  0.00    +0.000 A 
BRANCH   2   9
ATOM      8  C   UNL     1       0.530  12.940  19.199  0.00  0.00    +0.000 C 
ATOM      9  C   UNL     1      -0.289  11.957  20.050  0.00  0.00    +0.000 C 
BRANCH   9  10
ATOM     10  N   UNL     1      -0.436  12.414  21.424  0.00  0.00    +0.000 N 
ATOM     11  C   UNL     1      -1.554  13.039  21.911  0.00  0.00    +0.000 C 
ATOM     12  O   UNL     1      -2.533  13.354  21.249  0.00  0.00    +0.000 OA
ATOM     13  H   UNL     1       0.285  12.144  22.079  0.00  0.00    +0.000 HD
BRANCH  11  14
ATOM     14  C   UNL     1      -1.469  13.339  23.370  0.00  0.00    +0.000 C 
ATOM     15  C   UNL     1      -1.094  14.732  23.823  0.00  0.00    +0.000 C 
ATOM     16  C   UNL     1      -2.485  14.219  24.059  0.00  0.00    +0.000 C 
ENDBRANCH  11  14
ENDBRANCH   9  10
ENDBRANCH   2   9
ENDBRANCH   1   5
BRANCH   1  17
ATOM     17  C   UNL     1       2.027   5.870  19.156  0.00  0.00    +0.000 C 
ATOM     18  C   UNL     1       2.253   4.422  19.583  0.00  0.00    +0.000 C 
ATOM     19  C   UNL     1       3.758   4.219  19.470  0.00  0.00    +0.000 C 
ATOM     20  N   UNL     1       4.171   5.103  18.388  0.00  0.00    +0.000 N 
ATOM     21  C   UNL     1       3.170   6.145  18.149  0.00  0.00    +0.000 C 
BRANCH  20  22
ATOM     22  C   UNL     1       5.342   4.959  17.679  0.00  0.00    +0.000 A 
ATOM     23  C   UNL     1       6.571   4.794  18.328  0.00  0.00    +0.000 A 
ATOM     24  C   UNL     1       7.735   4.607  17.595  0.00  0.00    +0.000 A 
ATOM     25  N   UNL     1       7.773   4.556  16.254  0.00  0.00    +0.000 NA
ATOM     26  C   UNL     1       6.596   4.722  15.622  0.00  0.00    +0.000 A 
ATOM     27  C   UNL     1       5.387   4.945  16.278  0.00  0.00    +0.000 A 
BRANCH  26  28
ATOM     28  O   UNL     1       6.570   4.686  14.237  0.00  0.00    +0.000 OA
BRANCH  28  29
ATOM     29  C   UNL     1       5.953   3.489  13.746  0.00  0.00    +0.000 C 
BRANCH  29  30
ATOM     30  C   UNL     1       6.054   3.461  12.246  0.00  0.00    +0.000 C 
ATOM     31  C   UNL     1       6.852   2.356  11.583  0.00  0.00    +0.000 C 
ATOM     32  C   UNL     1       5.353   2.406  11.426  0.00  0.00    +0.000 C 
ENDBRANCH  29  30
ENDBRANCH  28  29
ENDBRANCH  26  28
ENDBRANCH  20  22
ENDBRANCH   1  17
TORSDOF 9
ENDMDL
MODEL 7
REMARK VINA RESULT:      -7.2      1.659      2.093
REMARK  Name = 
REMARK  10 active torsions:
REMARK  status: ('A' for Active; 'I' for Inactive)
REMARK    1  A    between atoms: C_1  and  C_2
REMARK    2  A    between atoms: C_2  and  N_3
REMARK    3  A    between atoms: C_2  and  C_9
REMARK    4  A    between atoms: C_4  and  C_6
REMARK    5  A    between atoms: C_12  and  O_13
REMARK    6  A    between atoms: O_13  and  C_14
REMARK    7  A    between atoms: N_17  and  C_18
REMARK    8  A    between atoms: C_22  and  O_23
REMARK    9  A    between atoms: O_23  and  C_24
REMARK   10  A    between atoms: C_24  and  C_25
REMARK                            x       y       z     vdW  Elec       q    Type
REMARK                         _______ _______ _______ _____ _____    ______ ____
ROOT
ATOM      1  O   UNL     1       0.755   7.404  20.960  0.00  0.00    +0.000 OA
ENDROOT
BRANCH   1   5
ATOM      2  C   UNL     1       3.391   4.476  19.465  0.00  0.00    +0.000 A 
ATOM      3  C   UNL     1       3.345   5.782  18.951  0.00  0.00    +0.000 A 
ATOM      4  C   UNL     1       2.456   6.732  19.484  0.00  0.00    +0.000 A 
ATOM      5  C   UNL     1       1.592   6.401  20.530  0.00  0.00    +0.000 A 
ATOM      6  C   UNL     1       1.649   5.110  21.055  0.00  0.00    +0.000 A 
ATOM      7  C   UNL     1       2.544   4.168  20.538  0.00  0.00    +0.000 A 
BRANCH   2   9
ATOM      8  C   UNL     1       4.431   2.177  19.778  0.00  0.00    +0.000 C 
ATOM      9  C   UNL     1       4.390   3.456  18.927  0.00  0.00    +0.000 C 
BRANCH   9  10
ATOM     10  N   UNL     1       5.693   4.098  18.842  0.00  0.00    +0.000 N 
ATOM     11  C   UNL     1       6.263   4.529  17.672  0.00  0.00    +0.000 C 
ATOM     12  O   UNL     1       5.791   4.370  16.555  0.00  0.00    +0.000 OA
ATOM     13  H   UNL     1       6.144   4.344  19.713  0.00  0.00    +0.000 HD
BRANCH  11  14
ATOM     14  C   UNL     1       7.572   5.216  17.876  0.00  0.00    +0.000 C 
ATOM     15  C   UNL     1       7.615   6.724  17.968  0.00  0.00    +0.000 C 
ATOM     16  C   UNL     1       7.916   5.893  19.182  0.00  0.00    +0.000 C 
ENDBRANCH  11  14
ENDBRANCH   9  10
ENDBRANCH   2   9
ENDBRANCH   1   5
BRANCH   1  17
ATOM     17  C   UNL     1       1.328   8.715  21.105  0.00  0.00    +0.000 C 
ATOM     18  C   UNL     1       1.261   9.167  22.561  0.00  0.00    +0.000 C 
ATOM     19  C   UNL     1      -0.076   9.888  22.678  0.00  0.00    +0.000 C 
ATOM     20  N   UNL     1      -0.304  10.460  21.357  0.00  0.00    +0.000 N 
ATOM     21  C   UNL     1       0.509   9.784  20.343  0.00  0.00    +0.000 C 
BRANCH  20  22
ATOM     22  C   UNL     1      -1.160  11.509  21.109  0.00  0.00    +0.000 A 
ATOM     23  C   UNL     1      -1.570  11.822  19.808  0.00  0.00    +0.000 A 
ATOM     24  C   UNL     1      -2.467  12.856  19.582  0.00  0.00    +0.000 A 
ATOM     25  N   UNL     1      -3.008  13.603  20.558  0.00  0.00    +0.000 NA
ATOM     26  C   UNL     1      -2.612  13.313  21.812  0.00  0.00    +0.000 A 
ATOM     27  C   UNL     1      -1.694  12.313  22.125  0.00  0.00    +0.000 A 
BRANCH  26  28
ATOM     28  O   UNL     1      -3.130  14.052  22.864  0.00  0.00    +0.000 OA
BRANCH  28  29
ATOM     29  C   UNL     1      -2.518  13.704  24.113  0.00  0.00    +0.000 C 
BRANCH  29  30
ATOM     30  C   UNL     1      -2.931  14.701  25.159  0.00  0.00    +0.000 C 
ATOM     31  C   UNL     1      -1.877  15.600  25.776  0.00  0.00    +0.000 C 
ATOM     32  C   UNL     1      -2.939  16.184  24.880  0.00  0.00    +0.000 C 
ENDBRANCH  29  30
ENDBRANCH  28  29
ENDBRANCH  26  28
ENDBRANCH  20  22
ENDBRANCH   1  17
TORSDOF 9
ENDMDL
MODEL 8
REMARK VINA RESULT:      -7.2      4.870      7.215
REMARK  Name = 
REMARK  10 active torsions:
REMARK  status: ('A' for Active; 'I' for Inactive)
REMARK    1  A    between atoms: C_1  and  C_2
REMARK    2  A    between atoms: C_2  and  N_3
REMARK    3  A    between atoms: C_2  and  C_9
REMARK    4  A    between atoms: C_4  and  C_6
REMARK    5  A    between atoms: C_12  and  O_13
REMARK    6  A    between atoms: O_13  and  C_14
REMARK    7  A    between atoms: N_17  and  C_18
REMARK    8  A    between atoms: C_22  and  O_23
REMARK    9  A    between atoms: O_23  and  C_24
REMARK   10  A    between atoms: C_24  and  C_25
REMARK                            x       y       z     vdW  Elec       q    Type
REMARK                         _______ _______ _______ _____ _____    ______ ____
ROOT
ATOM      1  O   UNL     1       0.313  10.551  18.960  0.00  0.00    +0.000 OA
ENDROOT
BRANCH   1   5
ATOM      2  C   UNL     1       2.772   7.134  18.776  0.00  0.00    +0.000 A 
ATOM      3  C   UNL     1       2.622   8.014  17.693  0.00  0.00    +0.000 A 
ATOM      4  C   UNL     1       1.798   9.148  17.797  0.00  0.00    +0.000 A 
ATOM      5  C   UNL     1       1.102   9.425  18.976  0.00  0.00    +0.000 A 
ATOM      6  C   UNL     1       1.264   8.563  20.061  0.00  0.00    +0.000 A 
ATOM      7  C   UNL     1       2.096   7.443  19.964  0.00  0.00    +0.000 A 
BRANCH   2   9
ATOM      8  C   UNL     1       4.238   5.712  17.261  0.00  0.00    +0.000 C 
ATOM      9  C   UNL     1       3.706   5.931  18.686  0.00  0.00    +0.000 C 
BRANCH   9  10
ATOM     10  N   UNL     1       2.995   4.765  19.190  0.00  0.00    +0.000 N 
ATOM     11  C   UNL     1       3.609   3.643  19.681  0.00  0.00    +0.000 C 
ATOM     12  O   UNL     1       4.816   3.446  19.695  0.00  0.00    +0.000 OA
ATOM     13  H   UNL     1       1.992   4.845  19.290  0.00  0.00    +0.000 HD
BRANCH  11  14
ATOM     14  C   UNL     1       2.646   2.626  20.196  0.00  0.00    +0.000 C 
ATOM     15  C   UNL     1       2.107   2.757  21.602  0.00  0.00    +0.000 C 
ATOM     16  C   UNL     1       1.191   2.960  20.430  0.00  0.00    +0.000 C 
ENDBRANCH  11  14
ENDBRANCH   9  10
ENDBRANCH   2   9
ENDBRANCH   1   5
BRANCH   1  17
ATOM     17  C   UNL     1       0.481  11.482  20.043  0.00  0.00    +0.000 C 
ATOM     18  C   UNL     1      -0.818  12.241  20.299  0.00  0.00    +0.000 C 
ATOM     19  C   UNL     1      -0.726  13.472  19.407  0.00  0.00    +0.000 C 
ATOM     20  N   UNL     1       0.700  13.765  19.329  0.00  0.00    +0.000 N 
ATOM     21  C   UNL     1       1.500  12.592  19.690  0.00  0.00    +0.000 C 
BRANCH  20  22
ATOM     22  C   UNL     1       1.216  14.992  18.977  0.00  0.00    +0.000 A 
ATOM     23  C   UNL     1       0.387  16.101  18.776  0.00  0.00    +0.000 A 
ATOM     24  C   UNL     1       0.929  17.339  18.464  0.00  0.00    +0.000 A 
ATOM     25  N   UNL     1       2.247  17.570  18.349  0.00  0.00    +0.000 NA
ATOM     26  C   UNL     1       3.052  16.506  18.533  0.00  0.00    +0.000 A 
ATOM     27  C   UNL     1       2.590  15.223  18.819  0.00  0.00    +0.000 A 
BRANCH  26  28
ATOM     28  O   UNL     1       4.422  16.677  18.422  0.00  0.00    +0.000 OA
BRANCH  28  29
ATOM     29  C   UNL     1       5.078  15.475  18.000  0.00  0.00    +0.000 C 
BRANCH  29  30
ATOM     30  C   UNL     1       6.422  15.385  18.668  0.00  0.00    +0.000 C 
ATOM     31  C   UNL     1       7.672  15.384  17.809  0.00  0.00    +0.000 C 
ATOM     32  C   UNL     1       7.369  16.559  18.703  0.00  0.00    +0.000 C 
ENDBRANCH  29  30
ENDBRANCH  28  29
ENDBRANCH  26  28
ENDBRANCH  20  22
ENDBRANCH   1  17
TORSDOF 9
ENDMDL
MODEL 9
REMARK VINA RESULT:      -7.1      2.383      3.928
REMARK  Name = 
REMARK  10 active torsions:
REMARK  status: ('A' for Active; 'I' for Inactive)
REMARK    1  A    between atoms: C_1  and  C_2
REMARK    2  A    between atoms: C_2  and  N_3
REMARK    3  A    between atoms: C_2  and  C_9
REMARK    4  A    between atoms: C_4  and  C_6
REMARK    5  A    between atoms: C_12  and  O_13
REMARK    6  A    between atoms: O_13  and  C_14
REMARK    7  A    between atoms: N_17  and  C_18
REMARK    8  A    between atoms: C_22  and  O_23
REMARK    9  A    between atoms: O_23  and  C_24
REMARK   10  A    between atoms: C_24  and  C_25
REMARK                            x       y       z     vdW  Elec       q    Type
REMARK                         _______ _______ _______ _____ _____    ______ ____
ROOT
ATOM      1  O   UNL     1       0.795   7.636  20.830  0.00  0.00    +0.000 OA
ENDROOT
BRANCH   1   5
ATOM      2  C   UNL     1       3.384   4.584  19.511  0.00  0.00    +0.000 A 
ATOM      3  C   UNL     1       3.426   5.887  18.989  0.00  0.00    +0.000 A 
ATOM      4  C   UNL     1       2.550   6.879  19.462  0.00  0.00    +0.000 A 
ATOM      5  C   UNL     1       1.611   6.594  20.457  0.00  0.00    +0.000 A 
ATOM      6  C   UNL     1       1.580   5.307  20.991  0.00  0.00    +0.000 A 
ATOM      7  C   UNL     1       2.462   4.322  20.533  0.00  0.00    +0.000 A 
BRANCH   2   9
ATOM      8  C   UNL     1       4.402   2.302  19.979  0.00  0.00    +0.000 C 
ATOM      9  C   UNL     1       4.368   3.518  19.040  0.00  0.00    +0.000 C 
BRANCH   9  10
ATOM     10  N   UNL     1       5.678   4.138  18.900  0.00  0.00    +0.000 N 
ATOM     11  C   UNL     1       6.243   4.476  17.698  0.00  0.00    +0.000 C 
ATOM     12  O   UNL     1       5.763   4.241  16.599  0.00  0.00    +0.000 OA
ATOM     13  H   UNL     1       6.137   4.442  19.747  0.00  0.00    +0.000 HD
BRANCH  11  14
ATOM     14  C   UNL     1       7.561   5.161  17.844  0.00  0.00    +0.000 C 
ATOM     15  C   UNL     1       7.617   6.671  17.862  0.00  0.00    +0.000 C 
ATOM     16  C   UNL     1       7.935   5.898  19.108  0.00  0.00    +0.000 C 
ENDBRANCH  11  14
ENDBRANCH   9  10
ENDBRANCH   2   9
ENDBRANCH   1   5
BRANCH   1  17
ATOM     17  C   UNL     1       1.437   8.821  21.332  0.00  0.00    +0.000 C 
ATOM     18  C   UNL     1       0.989   9.102  22.764  0.00  0.00    +0.000 C 
ATOM     19  C   UNL     1      -0.236   9.995  22.614  0.00  0.00    +0.000 C 
ATOM     20  N   UNL     1       0.002  10.747  21.389  0.00  0.00    +0.000 N 
ATOM     21  C   UNL     1       1.001  10.082  20.549  0.00  0.00    +0.000 C 
BRANCH  20  22
ATOM     22  C   UNL     1      -0.624  11.933  21.079  0.00  0.00    +0.000 A 
ATOM     23  C   UNL     1      -1.616  12.471  21.905  0.00  0.00    +0.000 A 
ATOM     24  C   UNL     1      -2.205  13.690  21.598  0.00  0.00    +0.000 A 
ATOM     25  N   UNL     1      -1.872  14.432  20.530  0.00  0.00    +0.000 NA
ATOM     26  C   UNL     1      -0.923  13.917  19.724  0.00  0.00    +0.000 A 
ATOM     27  C   UNL     1      -0.303  12.688  19.942  0.00  0.00    +0.000 A 
BRANCH  26  28
ATOM     28  O   UNL     1      -0.539  14.632  18.602  0.00  0.00    +0.000 OA
BRANCH  28  29
ATOM     29  C   UNL     1       0.606  15.455  18.858  0.00  0.00    +0.000 C 
BRANCH  29  30
ATOM     30  C   UNL     1       0.193  16.900  18.823  0.00  0.00    +0.000 C 
ATOM     31  C   UNL     1       0.942  17.857  17.918  0.00  0.00    +0.000 C 
ATOM     32  C   UNL     1      -0.491  17.499  17.619  0.00  0.00    +0.000 C 
ENDBRANCH  29  30
ENDBRANCH  28  29
ENDBRANCH  26  28
ENDBRANCH  20  22
ENDBRANCH   1  17
TORSDOF 9
ENDMDL
