MODEL 1
REMARK VINA RESULT:      -7.7      0.000      0.000
REMARK  Name = 
REMARK  9 active torsions:
REMARK  status: ('A' for Active; 'I' for Inactive)
REMARK    1  A    between atoms: C_1  and  O_2
REMARK    2  A    between atoms: O_2  and  C_3
REMARK    3  A    between atoms: C_10  and  C_11
REMARK    4  A    between atoms: N_13  and  C_14
REMARK    5  A    between atoms: C_17  and  C_18
REMARK    6  A    between atoms: C_24  and  O_25
REMARK    7  A    between atoms: O_25  and  C_26
REMARK    8  A    between atoms: C_26  and  C_27
REMARK    9  A    between atoms: C_27  and  O_28
REMARK                            x       y       z     vdW  Elec       q    Type
REMARK                         _______ _______ _______ _____ _____    ______ ____
ROOT
ATOM      1  C   UNL     1       3.978   5.902  18.367  0.00  0.00    +0.000 C 
ATOM      2  O   UNL     1       4.503   5.930  19.474  0.00  0.00    +0.000 OA
ATOM      3  N   UNL     1       2.846   6.646  18.025  0.00  0.00    +0.000 N 
ATOM      4  H   UNL     1       2.225   6.190  17.366  0.00  0.00    +0.000 HD
ENDROOT
BRANCH   1  12
ATOM      5  C   UNL     1       7.875   8.191  17.884  0.00  0.00    +0.000 A 
ATOM      6  C   UNL     1       8.395   7.321  18.846  0.00  0.00    +0.000 A 
ATOM      7  C   UNL     1       8.032   5.973  18.864  0.00  0.00    +0.000 A 
ATOM      8  C   UNL     1       7.106   5.491  17.942  0.00  0.00    +0.000 A 
ATOM      9  C   UNL     1       6.554   6.369  16.995  0.00  0.00    +0.000 A 
ATOM     10  C   UNL     1       6.966   7.704  16.940  0.00  0.00    +0.000 A 
ATOM     11  C   UNL     1       5.400   5.829  16.194  0.00  0.00    +0.000 C 
ATOM     12  C   UNL     1       4.509   5.019  17.168  0.00  0.00    +0.000 C 
ATOM     13  N   UNL     1       5.224   3.831  17.697  0.00  0.00    +0.000 NA
ATOM     14  C   UNL     1       6.663   4.046  17.930  0.00  0.00    +0.000 C 
ATOM     15  H   UNL     1       5.116   3.046  17.061  0.00  0.00    +0.000 HD
BRANCH   5  17
ATOM     16  C   UNL     1       9.005  10.051  18.808  0.00  0.00    +0.000 C 
ATOM     17  O   UNL     1       8.157   9.528  17.790  0.00  0.00    +0.000 OA
ENDBRANCH   5  17
ENDBRANCH   1  12
BRANCH   3  18
ATOM     18  C   UNL     1       2.173   7.455  18.968  0.00  0.00    +0.000 A 
ATOM     19  C   UNL     1       1.858   8.772  18.599  0.00  0.00    +0.000 A 
ATOM     20  C   UNL     1       1.174   9.621  19.475  0.00  0.00    +0.000 A 
ATOM     21  C   UNL     1       0.772   9.163  20.731  0.00  0.00    +0.000 A 
ATOM     22  C   UNL     1       1.087   7.848  21.094  0.00  0.00    +0.000 A 
ATOM     23  C   UNL     1       1.813   6.995  20.244  0.00  0.00    +0.000 A 
BRANCH  21  24
ATOM     24  C   UNL     1       0.059  10.042  21.642  0.00  0.00    +0.000 A 
ATOM     25  C   UNL     1      -0.543   9.782  22.895  0.00  0.00    +0.000 A 
ATOM     26  N   UNL     1      -1.122  10.862  23.427  0.00  0.00    +0.000 NA
ATOM     27  N   UNL     1      -0.884  11.822  22.521  0.00  0.00    +0.000 N 
ATOM     28  C   UNL     1      -0.181  11.385  21.435  0.00  0.00    +0.000 A 
ATOM     29  H   UNL     1      -1.231  12.756  22.708  0.00  0.00    +0.000 HD
ENDBRANCH  21  24
BRANCH  23  30
ATOM     30  O   UNL     1       1.959   5.744  20.779  0.00  0.00    +0.000 OA
BRANCH  30  31
ATOM     31  C   UNL     1       1.092   4.694  20.391  0.00  0.00    +0.000 C 
BRANCH  31  32
ATOM     32  C   UNL     1       1.728   3.315  20.542  0.00  0.00    +0.000 C 
BRANCH  32  33
ATOM     33  O   UNL     1       3.117   3.374  20.226  0.00  0.00    +0.000 OA
ATOM     34  H   UNL     1       3.432   4.263  20.468  0.00  0.00    +0.000 HD
ENDBRANCH  32  33
ENDBRANCH  31  32
ENDBRANCH  30  31
ENDBRANCH  23  30
ENDBRANCH   3  18
TORSDOF 8
ENDMDL
MODEL 2
REMARK VINA RESULT:      -7.5      0.936      1.163
REMARK  Name = 
REMARK  9 active torsions:
REMARK  status: ('A' for Active; 'I' for Inactive)
REMARK    1  A    between atoms: C_1  and  O_2
REMARK    2  A    between atoms: O_2  and  C_3
REMARK    3  A    between atoms: C_10  and  C_11
REMARK    4  A    between atoms: N_13  and  C_14
REMARK    5  A    between atoms: C_17  and  C_18
REMARK    6  A    between atoms: C_24  and  O_25
REMARK    7  A    between atoms: O_25  and  C_26
REMARK    8  A    between atoms: C_26  and  C_27
REMARK    9  A    between atoms: C_27  and  O_28
REMARK                            x       y       z     vdW  Elec       q    Type
REMARK                         _______ _______ _______ _____ _____    ______ ____
ROOT
ATOM      1  C   UNL     1       3.905   6.164  17.276  0.00  0.00    +0.000 C 
ATOM      2  O   UNL     1       4.006   7.355  17.010  0.00  0.00    +0.000 OA
ATOM      3  N   UNL     1       3.138   5.664  18.332  0.00  0.00    +0.000 N 
ATOM      4  H   UNL     1       3.518   4.835  18.774  0.00  0.00    +0.000 HD
ENDROOT
BRANCH   1  12
ATOM      5  C   UNL     1       8.080   7.870  17.832  0.00  0.00    +0.000 A 
ATOM      6  C   UNL     1       8.117   7.140  19.023  0.00  0.00    +0.000 A 
ATOM      7  C   UNL     1       7.547   5.868  19.101  0.00  0.00    +0.000 A 
ATOM      8  C   UNL     1       6.892   5.331  17.996  0.00  0.00    +0.000 A 
ATOM      9  C   UNL     1       6.822   6.077  16.807  0.00  0.00    +0.000 A 
ATOM     10  C   UNL     1       7.447   7.323  16.712  0.00  0.00    +0.000 A 
ATOM     11  C   UNL     1       5.905   5.532  15.744  0.00  0.00    +0.000 C 
ATOM     12  C   UNL     1       4.631   5.020  16.460  0.00  0.00    +0.000 C 
ATOM     13  N   UNL     1       4.934   3.877  17.358  0.00  0.00    +0.000 NA
ATOM     14  C   UNL     1       6.240   3.968  18.031  0.00  0.00    +0.000 C 
ATOM     15  H   UNL     1       4.901   3.005  16.836  0.00  0.00    +0.000 HD
BRANCH   5  17
ATOM     16  C   UNL     1       8.980   9.805  18.849  0.00  0.00    +0.000 C 
ATOM     17  O   UNL     1       8.597   9.127  17.658  0.00  0.00    +0.000 OA
ENDBRANCH   5  17
ENDBRANCH   1  12
BRANCH   3  18
ATOM     18  C   UNL     1       2.456   6.519  19.227  0.00  0.00    +0.000 A 
ATOM     19  C   UNL     1       2.287   7.861  18.856  0.00  0.00    +0.000 A 
ATOM     20  C   UNL     1       1.603   8.757  19.684  0.00  0.00    +0.000 A 
ATOM     21  C   UNL     1       1.056   8.323  20.893  0.00  0.00    +0.000 A 
ATOM     22  C   UNL     1       1.226   6.982  21.259  0.00  0.00    +0.000 A 
ATOM     23  C   UNL     1       1.949   6.079  20.460  0.00  0.00    +0.000 A 
BRANCH  21  24
ATOM     24  C   UNL     1       0.343   9.251  21.754  0.00  0.00    +0.000 A 
ATOM     25  C   UNL     1       0.324  10.665  21.774  0.00  0.00    +0.000 A 
ATOM     26  N   UNL     1      -0.455  11.161  22.739  0.00  0.00    +0.000 NA
ATOM     27  N   UNL     1      -0.948  10.064  23.336  0.00  0.00    +0.000 N 
ATOM     28  C   UNL     1      -0.503   8.897  22.785  0.00  0.00    +0.000 A 
ATOM     29  H   UNL     1      -1.585  10.187  24.115  0.00  0.00    +0.000 HD
ENDBRANCH  21  24
BRANCH  23  30
ATOM     30  O   UNL     1       1.942   4.815  20.984  0.00  0.00    +0.000 OA
BRANCH  30  31
ATOM     31  C   UNL     1       1.034   3.843  20.497  0.00  0.00    +0.000 C 
BRANCH  31  32
ATOM     32  C   UNL     1       1.724   2.555  20.061  0.00  0.00    +0.000 C 
BRANCH  32  33
ATOM     33  O   UNL     1       2.585   2.805  18.951  0.00  0.00    +0.000 OA
ATOM     34  H   UNL     1       2.749   1.951  18.513  0.00  0.00    +0.000 HD
ENDBRANCH  32  33
ENDBRANCH  31  32
ENDBRANCH  30  31
ENDBRANCH  23  30
ENDBRANCH   3  18
TORSDOF 8
ENDMDL
MODEL 3
REMARK VINA RESULT:      -7.3      2.734      4.117
REMARK  Name = 
REMARK  9 active torsions:
REMARK  status: ('A' for Active; 'I' for Inactive)
REMARK    1  A    between atoms: C_1  and  O_2
REMARK    2  A    between atoms: O_2  and  C_3
REMARK    3  A    between atoms: C_10  and  C_11
REMARK    4  A    between atoms: N_13  and  C_14
REMARK    5  A    between atoms: C_17  and  C_18
REMARK    6  A    between atoms: C_24  and  O_25
REMARK    7  A    between atoms: O_25  and  C_26
REMARK    8  A    between atoms: C_26  and  C_27
REMARK    9  A    between atoms: C_27  and  O_28
REMARK                            x       y       z     vdW  Elec       q    Type
REMARK                         _______ _______ _______ _____ _____    ______ ____
ROOT
ATOM      1  C   UNL     1       2.007   5.013  18.541  0.00  0.00    +0.000 C 
ATOM      2  O   UNL     1       1.427   5.287  17.496  0.00  0.00    +0.000 OA
ATOM      3  N   UNL     1       2.345   5.958  19.513  0.00  0.00    +0.000 N 
ATOM      4  H   UNL     1       3.211   5.766  20.005  0.00  0.00    +0.000 HD
ENDROOT
BRANCH   1  12
ATOM      5  C   UNL     1       5.806   5.078  16.046  0.00  0.00    +0.000 A 
ATOM      6  C   UNL     1       6.419   5.644  17.167  0.00  0.00    +0.000 A 
ATOM      7  C   UNL     1       6.086   5.222  18.455  0.00  0.00    +0.000 A 
ATOM      8  C   UNL     1       5.098   4.257  18.636  0.00  0.00    +0.000 A 
ATOM      9  C   UNL     1       4.454   3.711  17.513  0.00  0.00    +0.000 A 
ATOM     10  C   UNL     1       4.833   4.090  16.223  0.00  0.00    +0.000 A 
ATOM     11  C   UNL     1       3.249   2.855  17.800  0.00  0.00    +0.000 C 
ATOM     12  C   UNL     1       2.456   3.550  18.935  0.00  0.00    +0.000 C 
ATOM     13  N   UNL     1       3.236   3.586  20.198  0.00  0.00    +0.000 NA
ATOM     14  C   UNL     1       4.684   3.778  20.008  0.00  0.00    +0.000 C 
ATOM     15  H   UNL     1       3.092   2.728  20.723  0.00  0.00    +0.000 HD
BRANCH   5  17
ATOM     16  C   UNL     1       6.604   4.408  13.924  0.00  0.00    +0.000 C 
ATOM     17  O   UNL     1       6.052   5.431  14.746  0.00  0.00    +0.000 OA
ENDBRANCH   5  17
ENDBRANCH   1  12
BRANCH   3  18
ATOM     18  C   UNL     1       2.091   7.336  19.332  0.00  0.00    +0.000 A 
ATOM     19  C   UNL     1       2.509   7.931  18.132  0.00  0.00    +0.000 A 
ATOM     20  C   UNL     1       2.271   9.285  17.878  0.00  0.00    +0.000 A 
ATOM     21  C   UNL     1       1.592  10.070  18.813  0.00  0.00    +0.000 A 
ATOM     22  C   UNL     1       1.176   9.472  20.009  0.00  0.00    +0.000 A 
ATOM     23  C   UNL     1       1.446   8.123  20.299  0.00  0.00    +0.000 A 
BRANCH  21  24
ATOM     24  C   UNL     1       1.341  11.477  18.551  0.00  0.00    +0.000 A 
ATOM     25  C   UNL     1       2.235  12.541  18.293  0.00  0.00    +0.000 A 
ATOM     26  N   UNL     1       1.613  13.710  18.113  0.00  0.00    +0.000 NA
ATOM     27  N   UNL     1       0.315  13.396  18.245  0.00  0.00    +0.000 N 
ATOM     28  C   UNL     1       0.098  12.073  18.507  0.00  0.00    +0.000 A 
ATOM     29  H   UNL     1      -0.371  14.135  18.143  0.00  0.00    +0.000 HD
ENDBRANCH  21  24
BRANCH  23  30
ATOM     30  O   UNL     1       0.903   7.739  21.496  0.00  0.00    +0.000 OA
BRANCH  30  31
ATOM     31  C   UNL     1      -0.156   8.482  22.072  0.00  0.00    +0.000 C 
BRANCH  31  32
ATOM     32  C   UNL     1       0.280   9.281  23.296  0.00  0.00    +0.000 C 
BRANCH  32  33
ATOM     33  O   UNL     1      -0.408  10.530  23.343  0.00  0.00    +0.000 OA
ATOM     34  H   UNL     1       0.266  11.232  23.327  0.00  0.00    +0.000 HD
ENDBRANCH  32  33
ENDBRANCH  31  32
ENDBRANCH  30  31
ENDBRANCH  23  30
ENDBRANCH   3  18
TORSDOF 8
ENDMDL
MODEL 4
REMARK VINA RESULT:      -7.2      3.800      8.699
REMARK  Name = 
REMARK  9 active torsions:
REMARK  status: ('A' for Active; 'I' for Inactive)
REMARK    1  A    between atoms: C_1  and  O_2
REMARK    2  A    between atoms: O_2  and  C_3
REMARK    3  A    between atoms: C_10  and  C_11
REMARK    4  A    between atoms: N_13  and  C_14
REMARK    5  A    between atoms: C_17  and  C_18
REMARK    6  A    between atoms: C_24  and  O_25
REMARK    7  A    between atoms: O_25  and  C_26
REMARK    8  A    between atoms: C_26  and  C_27
REMARK    9  A    between atoms: C_27  and  O_28
REMARK                            x       y       z     vdW  Elec       q    Type
REMARK                         _______ _______ _______ _____ _____    ______ ____
ROOT
ATOM      1  C   UNL     1       1.509  12.640  19.033  0.00  0.00    +0.000 C 
ATOM      2  O   UNL     1       2.342  12.558  19.928  0.00  0.00    +0.000 OA
ATOM      3  N   UNL     1       0.922  11.535  18.414  0.00  0.00    +0.000 N 
ATOM      4  H   UNL     1       0.708  11.665  17.431  0.00  0.00    +0.000 HD
ENDROOT
BRANCH   1  12
ATOM      5  C   UNL     1      -1.926  13.022  21.984  0.00  0.00    +0.000 A 
ATOM      6  C   UNL     1      -1.007  13.653  22.827  0.00  0.00    +0.000 A 
ATOM      7  C   UNL     1      -0.041  14.519  22.312  0.00  0.00    +0.000 A 
ATOM      8  C   UNL     1       0.044  14.728  20.938  0.00  0.00    +0.000 A 
ATOM      9  C   UNL     1      -0.856  14.069  20.084  0.00  0.00    +0.000 A 
ATOM     10  C   UNL     1      -1.862  13.251  20.606  0.00  0.00    +0.000 A 
ATOM     11  C   UNL     1      -0.553  14.163  18.612  0.00  0.00    +0.000 C 
ATOM     12  C   UNL     1       0.981  14.012  18.452  0.00  0.00    +0.000 C 
ATOM     13  N   UNL     1       1.706  15.141  19.088  0.00  0.00    +0.000 NA
ATOM     14  C   UNL     1       1.082  15.639  20.326  0.00  0.00    +0.000 C 
ATOM     15  H   UNL     1       1.789  15.915  18.435  0.00  0.00    +0.000 HD
BRANCH   5  17
ATOM     16  C   UNL     1      -3.349  12.304  23.730  0.00  0.00    +0.000 C 
ATOM     17  O   UNL     1      -2.900  12.148  22.388  0.00  0.00    +0.000 OA
ENDBRANCH   5  17
ENDBRANCH   1  12
BRANCH   3  18
ATOM     18  C   UNL     1       1.298  10.211  18.738  0.00  0.00    +0.000 A 
ATOM     19  C   UNL     1       2.124   9.522  17.838  0.00  0.00    +0.000 A 
ATOM     20  C   UNL     1       2.552   8.218  18.106  0.00  0.00    +0.000 A 
ATOM     21  C   UNL     1       2.179   7.583  19.292  0.00  0.00    +0.000 A 
ATOM     22  C   UNL     1       1.355   8.275  20.189  0.00  0.00    +0.000 A 
ATOM     23  C   UNL     1       0.879   9.569  19.915  0.00  0.00    +0.000 A 
BRANCH  21  24
ATOM     24  C   UNL     1       2.624   6.229  19.575  0.00  0.00    +0.000 A 
ATOM     25  C   UNL     1       3.724   5.495  19.075  0.00  0.00    +0.000 A 
ATOM     26  N   UNL     1       3.791   4.257  19.572  0.00  0.00    +0.000 NA
ATOM     27  N   UNL     1       2.739   4.197  20.403  0.00  0.00    +0.000 N 
ATOM     28  C   UNL     1       2.009   5.350  20.442  0.00  0.00    +0.000 A 
ATOM     29  H   UNL     1       2.579   3.336  20.913  0.00  0.00    +0.000 HD
ENDBRANCH  21  24
BRANCH  23  30
ATOM     30  O   UNL     1       0.138  10.072  20.950  0.00  0.00    +0.000 OA
BRANCH  30  31
ATOM     31  C   UNL     1      -0.395   9.205  21.935  0.00  0.00    +0.000 C 
BRANCH  31  32
ATOM     32  C   UNL     1      -0.504   9.865  23.306  0.00  0.00    +0.000 C 
BRANCH  32  33
ATOM     33  O   UNL     1       0.651   9.570  24.090  0.00  0.00    +0.000 OA
ATOM     34  H   UNL     1       1.180  10.386  24.145  0.00  0.00    +0.000 HD
ENDBRANCH  32  33
ENDBRANCH  31  32
ENDBRANCH  30  31
ENDBRANCH  23  30
ENDBRANCH   3  18
TORSDOF 8
ENDMDL
MODEL 5
REMARK VINA RESULT:      -7.1      2.923      5.188
REMARK  Name = 
REMARK  9 active torsions:
REMARK  status: ('A' for Active; 'I' for Inactive)
REMARK    1  A    between atoms: C_1  and  O_2
REMARK    2  A    between atoms: O_2  and  C_3
REMARK    3  A    between atoms: C_10  and  C_11
REMARK    4  A    between atoms: N_13  and  C_14
REMARK    5  A    between atoms: C_17  and  C_18
REMARK    6  A    between atoms: C_24  and  O_25
REMARK    7  A    between atoms: O_25  and  C_26
REMARK    8  A    between atoms: C_26  and  C_27
REMARK    9  A    between atoms: C_27  and  O_28
REMARK                            x       y       z     vdW  Elec       q    Type
REMARK                         _______ _______ _______ _____ _____    ______ ____
ROOT
ATOM      1  C   UNL     1       3.078   6.793  18.216  0.00  0.00    +0.000 C 
ATOM      2  O   UNL     1       2.099   6.153  17.848  0.00  0.00    +0.000 OA
ATOM      3  N   UNL     1       3.011   8.091  18.726  0.00  0.00    +0.000 N 
ATOM      4  H   UNL     1       3.807   8.677  18.496  0.00  0.00    +0.000 HD
ENDROOT
BRANCH   1  12
ATOM      5  C   UNL     1       1.979   2.611  19.619  0.00  0.00    +0.000 A 
ATOM      6  C   UNL     1       1.748   2.323  18.271  0.00  0.00    +0.000 A 
ATOM      7  C   UNL     1       2.572   2.850  17.275  0.00  0.00    +0.000 A 
ATOM      8  C   UNL     1       3.611   3.712  17.617  0.00  0.00    +0.000 A 
ATOM      9  C   UNL     1       3.824   4.033  18.968  0.00  0.00    +0.000 A 
ATOM     10  C   UNL     1       3.038   3.455  19.968  0.00  0.00    +0.000 A 
ATOM     11  C   UNL     1       4.808   5.142  19.231  0.00  0.00    +0.000 C 
ATOM     12  C   UNL     1       4.557   6.237  18.164  0.00  0.00    +0.000 C 
ATOM     13  N   UNL     1       4.861   5.743  16.797  0.00  0.00    +0.000 NA
ATOM     14  C   UNL     1       4.520   4.327  16.578  0.00  0.00    +0.000 C 
ATOM     15  H   UNL     1       5.848   5.872  16.591  0.00  0.00    +0.000 HD
BRANCH   5  17
ATOM     16  C   UNL     1       1.428   2.822  21.908  0.00  0.00    +0.000 C 
ATOM     17  O   UNL     1       1.223   2.156  20.666  0.00  0.00    +0.000 OA
ENDBRANCH   5  17
ENDBRANCH   1  12
BRANCH   3  18
ATOM     18  C   UNL     1       1.791   8.801  18.800  0.00  0.00    +0.000 A 
ATOM     19  C   UNL     1       1.267   9.335  17.614  0.00  0.00    +0.000 A 
ATOM     20  C   UNL     1       0.053  10.030  17.612  0.00  0.00    +0.000 A 
ATOM     21  C   UNL     1      -0.672  10.188  18.794  0.00  0.00    +0.000 A 
ATOM     22  C   UNL     1      -0.145   9.652  19.976  0.00  0.00    +0.000 A 
ATOM     23  C   UNL     1       1.094   8.990  20.004  0.00  0.00    +0.000 A 
BRANCH  21  24
ATOM     24  C   UNL     1      -1.934  10.907  18.794  0.00  0.00    +0.000 A 
ATOM     25  C   UNL     1      -3.123  10.688  18.061  0.00  0.00    +0.000 A 
ATOM     26  N   UNL     1      -4.074  11.585  18.332  0.00  0.00    +0.000 NA
ATOM     27  N   UNL     1      -3.502  12.378  19.250  0.00  0.00    +0.000 N 
ATOM     28  C   UNL     1      -2.223  12.016  19.563  0.00  0.00    +0.000 A 
ATOM     29  H   UNL     1      -4.044  13.150  19.623  0.00  0.00    +0.000 HD
ENDBRANCH  21  24
BRANCH  23  30
ATOM     30  O   UNL     1       1.385   8.503  21.250  0.00  0.00    +0.000 OA
BRANCH  30  31
ATOM     31  C   UNL     1       1.419   9.372  22.368  0.00  0.00    +0.000 C 
BRANCH  31  32
ATOM     32  C   UNL     1       0.131   9.337  23.184  0.00  0.00    +0.000 C 
BRANCH  32  33
ATOM     33  O   UNL     1      -0.366  10.659  23.382  0.00  0.00    +0.000 OA
ATOM     34  H   UNL     1      -1.313  10.585  23.594  0.00  0.00    +0.000 HD
ENDBRANCH  32  33
ENDBRANCH  31  32
ENDBRANCH  30  31
ENDBRANCH  23  30
ENDBRANCH   3  18
TORSDOF 8
ENDMDL
MODEL 6
REMARK VINA RESULT:      -7.1      3.458      7.796
REMARK  Name = 
REMARK  9 active torsions:
REMARK  status: ('A' for Active; 'I' for Inactive)
REMARK    1  A    between atoms: C_1  and  O_2
REMARK    2  A    between atoms: O_2  and  C_3
REMARK    3  A    between atoms: C_10  and  C_11
REMARK    4  A    between atoms: N_13  and  C_14
REMARK    5  A    between atoms: C_17  and  C_18
REMARK    6  A    between atoms: C_24  and  O_25
REMARK    7  A    between atoms: O_25  and  C_26
REMARK    8  A    between atoms: C_26  and  C_27
REMARK    9  A    between atoms: C_27  and  O_28
REMARK                            x       y       z     vdW  Elec       q    Type
REMARK                         _______ _______ _______ _____ _____    ______ ____
ROOT
ATOM      1  C   UNL     1       0.685  11.700  20.758  0.00  0.00    +0.000 C 
ATOM      2  O   UNL     1       1.726  11.560  21.389  0.00  0.00    +0.000 OA
ATOM      3  N   UNL     1       0.248  10.811  19.773  0.00  0.00    +0.000 N 
ATOM      4  H   UNL     1      -0.256  11.243  19.007  0.00  0.00    +0.000 HD
ENDROOT
BRANCH   1  12
ATOM      5  C   UNL     1       3.853  14.918  20.248  0.00  0.00    +0.000 A 
ATOM      6  C   UNL     1       3.578  14.839  18.881  0.00  0.00    +0.000 A 
ATOM      7  C   UNL     1       2.273  14.651  18.422  0.00  0.00    +0.000 A 
ATOM      8  C   UNL     1       1.232  14.494  19.334  0.00  0.00    +0.000 A 
ATOM      9  C   UNL     1       1.510  14.538  20.711  0.00  0.00    +0.000 A 
ATOM     10  C   UNL     1       2.807  14.789  21.167  0.00  0.00    +0.000 A 
ATOM     11  C   UNL     1       0.381  14.131  21.621  0.00  0.00    +0.000 C 
ATOM     12  C   UNL     1      -0.312  12.909  20.969  0.00  0.00    +0.000 C 
ATOM     13  N   UNL     1      -0.945  13.270  19.675  0.00  0.00    +0.000 NA
ATOM     14  C   UNL     1      -0.195  14.267  18.894  0.00  0.00    +0.000 C 
ATOM     15  H   UNL     1      -1.884  13.625  19.833  0.00  0.00    +0.000 HD
BRANCH   5  17
ATOM     16  C   UNL     1       5.378  14.287  21.941  0.00  0.00    +0.000 C 
ATOM     17  O   UNL     1       5.097  15.087  20.798  0.00  0.00    +0.000 OA
ENDBRANCH   5  17
ENDBRANCH   1  12
BRANCH   3  18
ATOM     18  C   UNL     1       1.020   9.693  19.382  0.00  0.00    +0.000 A 
ATOM     19  C   UNL     1       1.569   9.692  18.092  0.00  0.00    +0.000 A 
ATOM     20  C   UNL     1       2.362   8.629  17.647  0.00  0.00    +0.000 A 
ATOM     21  C   UNL     1       2.637   7.553  18.492  0.00  0.00    +0.000 A 
ATOM     22  C   UNL     1       2.087   7.559  19.780  0.00  0.00    +0.000 A 
ATOM     23  C   UNL     1       1.253   8.597  20.228  0.00  0.00    +0.000 A 
BRANCH  21  24
ATOM     24  C   UNL     1       3.462   6.448  18.034  0.00  0.00    +0.000 A 
ATOM     25  C   UNL     1       3.497   5.093  18.436  0.00  0.00    +0.000 A 
ATOM     26  N   UNL     1       4.416   4.379  17.779  0.00  0.00    +0.000 NA
ATOM     27  N   UNL     1       4.966   5.274  16.944  0.00  0.00    +0.000 N 
ATOM     28  C   UNL     1       4.431   6.525  17.055  0.00  0.00    +0.000 A 
ATOM     29  H   UNL     1       5.704   4.960  16.322  0.00  0.00    +0.000 HD
ENDBRANCH  21  24
BRANCH  23  30
ATOM     30  O   UNL     1       0.875   8.423  21.532  0.00  0.00    +0.000 OA
BRANCH  30  31
ATOM     31  C   UNL     1      -0.491   8.501  21.898  0.00  0.00    +0.000 C 
BRANCH  31  32
ATOM     32  C   UNL     1      -0.744   9.491  23.030  0.00  0.00    +0.000 C 
BRANCH  32  33
ATOM     33  O   UNL     1       0.470   9.768  23.726  0.00  0.00    +0.000 OA
ATOM     34  H   UNL     1       0.848   8.913  23.999  0.00  0.00    +0.000 HD
ENDBRANCH  32  33
ENDBRANCH  31  32
ENDBRANCH  30  31
ENDBRANCH  23  30
ENDBRANCH   3  18
TORSDOF 8
ENDMDL
MODEL 7
REMARK VINA RESULT:      -7.0      2.725      7.259
REMARK  Name = 
REMARK  9 active torsions:
REMARK  status: ('A' for Active; 'I' for Inactive)
REMARK    1  A    between atoms: C_1  and  O_2
REMARK    2  A    between atoms: O_2  and  C_3
REMARK    3  A    between atoms: C_10  and  C_11
REMARK    4  A    between atoms: N_13  and  C_14
REMARK    5  A    between atoms: C_17  and  C_18
REMARK    6  A    between atoms: C_24  and  O_25
REMARK    7  A    between atoms: O_25  and  C_26
REMARK    8  A    between atoms: C_26  and  C_27
REMARK    9  A    between atoms: C_27  and  O_28
REMARK                            x       y       z     vdW  Elec       q    Type
REMARK                         _______ _______ _______ _____ _____    ______ ____
ROOT
ATOM      1  C   UNL     1       0.875   9.290  20.272  0.00  0.00    +0.000 C 
ATOM      2  O   UNL     1       1.802   9.422  21.062  0.00  0.00    +0.000 OA
ATOM      3  N   UNL     1       0.909   8.433  19.170  0.00  0.00    +0.000 N 
ATOM      4  H   UNL     1       0.400   8.768  18.359  0.00  0.00    +0.000 HD
ENDROOT
BRANCH   1  12
ATOM      5  C   UNL     1       2.758  13.419  20.032  0.00  0.00    +0.000 A 
ATOM      6  C   UNL     1       2.643  13.287  18.646  0.00  0.00    +0.000 A 
ATOM      7  C   UNL     1       1.528  12.671  18.075  0.00  0.00    +0.000 A 
ATOM      8  C   UNL     1       0.534  12.138  18.893  0.00  0.00    +0.000 A 
ATOM      9  C   UNL     1       0.662  12.238  20.288  0.00  0.00    +0.000 A 
ATOM     10  C   UNL     1       1.749  12.910  20.855  0.00  0.00    +0.000 A 
ATOM     11  C   UNL     1      -0.326  11.441  21.096  0.00  0.00    +0.000 C 
ATOM     12  C   UNL     1      -0.494  10.072  20.390  0.00  0.00    +0.000 C 
ATOM     13  N   UNL     1      -1.103  10.227  19.045  0.00  0.00    +0.000 NA
ATOM     14  C   UNL     1      -0.683  11.443  18.329  0.00  0.00    +0.000 C 
ATOM     15  H   UNL     1      -2.116  10.230  19.118  0.00  0.00    +0.000 HD
BRANCH   5  17
ATOM     16  C   UNL     1       4.576  14.926  19.929  0.00  0.00    +0.000 C 
ATOM     17  O   UNL     1       3.814  13.994  20.688  0.00  0.00    +0.000 OA
ENDBRANCH   5  17
ENDBRANCH   1  12
BRANCH   3  18
ATOM     18  C   UNL     1       2.063   7.685  18.842  0.00  0.00    +0.000 A 
ATOM     19  C   UNL     1       2.904   8.180  17.835  0.00  0.00    +0.000 A 
ATOM     20  C   UNL     1       4.073   7.503  17.476  0.00  0.00    +0.000 A 
ATOM     21  C   UNL     1       4.436   6.325  18.131  0.00  0.00    +0.000 A 
ATOM     22  C   UNL     1       3.593   5.835  19.136  0.00  0.00    +0.000 A 
ATOM     23  C   UNL     1       2.392   6.479  19.480  0.00  0.00    +0.000 A 
BRANCH  21  24
ATOM     24  C   UNL     1       5.651   5.620  17.761  0.00  0.00    +0.000 A 
ATOM     25  C   UNL     1       6.262   5.430  16.500  0.00  0.00    +0.000 A 
ATOM     26  N   UNL     1       7.380   4.702  16.568  0.00  0.00    +0.000 NA
ATOM     27  N   UNL     1       7.496   4.431  17.877  0.00  0.00    +0.000 N 
ATOM     28  C   UNL     1       6.489   4.957  18.635  0.00  0.00    +0.000 A 
ATOM     29  H   UNL     1       8.290   3.880  18.185  0.00  0.00    +0.000 HD
ENDBRANCH  21  24
BRANCH  23  30
ATOM     30  O   UNL     1       1.758   5.856  20.521  0.00  0.00    +0.000 OA
BRANCH  30  31
ATOM     31  C   UNL     1       2.314   4.692  21.105  0.00  0.00    +0.000 C 
BRANCH  31  32
ATOM     32  C   UNL     1       1.353   3.507  21.090  0.00  0.00    +0.000 C 
BRANCH  32  33
ATOM     33  O   UNL     1       1.765   2.525  22.040  0.00  0.00    +0.000 OA
ATOM     34  H   UNL     1       2.661   2.238  21.790  0.00  0.00    +0.000 HD
ENDBRANCH  32  33
ENDBRANCH  31  32
ENDBRANCH  30  31
ENDBRANCH  23  30
ENDBRANCH   3  18
TORSDOF 8
ENDMDL
MODEL 8
REMARK VINA RESULT:      -7.0      2.745      4.278
REMARK  Name = 
REMARK  9 active torsions:
REMARK  status: ('A' for Active; 'I' for Inactive)
REMARK    1  A    between atoms: C_1  and  O_2
REMARK    2  A    between atoms: O_2  and  C_3
REMARK    3  A    between atoms: C_10  and  C_11
REMARK    4  A    between atoms: N_13  and  C_14
REMARK    5  A    between atoms: C_17  and  C_18
REMARK    6  A    between atoms: C_24  and  O_25
REMARK    7  A    between atoms: O_25  and  C_26
REMARK    8  A    between atoms: C_26  and  C_27
REMARK    9  A    between atoms: C_27  and  O_28
REMARK                            x       y       z     vdW  Elec       q    Type
REMARK                         _______ _______ _______ _____ _____    ______ ____
ROOT
ATOM      1  C   UNL     1       3.343   5.359  19.030  0.00  0.00    +0.000 C 
ATOM      2  O   UNL     1       2.676   5.110  18.033  0.00  0.00    +0.000 OA
ATOM      3  N   UNL     1       3.209   6.526  19.785  0.00  0.00    +0.000 N 
ATOM      4  H   UNL     1       4.073   6.867  20.193  0.00  0.00    +0.000 HD
ENDROOT
BRANCH   1  12
ATOM      5  C   UNL     1       5.408   4.713  15.033  0.00  0.00    +0.000 A 
ATOM      6  C   UNL     1       6.149   5.857  15.339  0.00  0.00    +0.000 A 
ATOM      7  C   UNL     1       6.573   6.108  16.645  0.00  0.00    +0.000 A 
ATOM      8  C   UNL     1       6.219   5.235  17.671  0.00  0.00    +0.000 A 
ATOM      9  C   UNL     1       5.444   4.102  17.373  0.00  0.00    +0.000 A 
ATOM     10  C   UNL     1       5.074   3.820  16.055  0.00  0.00    +0.000 A 
ATOM     11  C   UNL     1       4.912   3.342  18.559  0.00  0.00    +0.000 C 
ATOM     12  C   UNL     1       4.454   4.390  19.604  0.00  0.00    +0.000 C 
ATOM     13  N   UNL     1       5.600   5.185  20.114  0.00  0.00    +0.000 NA
ATOM     14  C   UNL     1       6.634   5.469  19.104  0.00  0.00    +0.000 C 
ATOM     15  H   UNL     1       6.037   4.705  20.896  0.00  0.00    +0.000 HD
BRANCH   5  17
ATOM     16  C   UNL     1       5.841   3.668  12.957  0.00  0.00    +0.000 C 
ATOM     17  O   UNL     1       4.935   4.384  13.790  0.00  0.00    +0.000 OA
ENDBRANCH   5  17
ENDBRANCH   1  12
BRANCH   3  18
ATOM     18  C   UNL     1       2.317   7.557  19.412  0.00  0.00    +0.000 A 
ATOM     19  C   UNL     1       2.220   7.883  18.051  0.00  0.00    +0.000 A 
ATOM     20  C   UNL     1       1.342   8.877  17.609  0.00  0.00    +0.000 A 
ATOM     21  C   UNL     1       0.526   9.553  18.518  0.00  0.00    +0.000 A 
ATOM     22  C   UNL     1       0.625   9.223  19.876  0.00  0.00    +0.000 A 
ATOM     23  C   UNL     1       1.534   8.258  20.342  0.00  0.00    +0.000 A 
BRANCH  21  24
ATOM     24  C   UNL     1      -0.389  10.585  18.062  0.00  0.00    +0.000 A 
ATOM     25  C   UNL     1      -1.634  10.488  17.399  0.00  0.00    +0.000 A 
ATOM     26  N   UNL     1      -2.174  11.679  17.130  0.00  0.00    +0.000 NA
ATOM     27  N   UNL     1      -1.281  12.546  17.631  0.00  0.00    +0.000 N 
ATOM     28  C   UNL     1      -0.196  11.944  18.200  0.00  0.00    +0.000 A 
ATOM     29  H   UNL     1      -1.477  13.538  17.550  0.00  0.00    +0.000 HD
ENDBRANCH  21  24
BRANCH  23  30
ATOM     30  O   UNL     1       1.422   8.061  21.692  0.00  0.00    +0.000 OA
BRANCH  30  31
ATOM     31  C   UNL     1       1.298   9.165  22.569  0.00  0.00    +0.000 C 
BRANCH  31  32
ATOM     32  C   UNL     1      -0.123   9.347  23.094  0.00  0.00    +0.000 C 
BRANCH  32  33
ATOM     33  O   UNL     1      -0.388  10.727  23.338  0.00  0.00    +0.000 OA
ATOM     34  H   UNL     1      -0.684  10.806  24.262  0.00  0.00    +0.000 HD
ENDBRANCH  32  33
ENDBRANCH  31  32
ENDBRANCH  30  31
ENDBRANCH  23  30
ENDBRANCH   3  18
TORSDOF 8
ENDMDL
MODEL 9
REMARK VINA RESULT:      -7.0      3.775      8.740
REMARK  Name = 
REMARK  9 active torsions:
REMARK  status: ('A' for Active; 'I' for Inactive)
REMARK    1  A    between atoms: C_1  and  O_2
REMARK    2  A    between atoms: O_2  and  C_3
REMARK    3  A    between atoms: C_10  and  C_11
REMARK    4  A    between atoms: N_13  and  C_14
REMARK    5  A    between atoms: C_17  and  C_18
REMARK    6  A    between atoms: C_24  and  O_25
REMARK    7  A    between atoms: O_25  and  C_26
REMARK    8  A    between atoms: C_26  and  C_27
REMARK    9  A    between atoms: C_27  and  O_28
REMARK                            x       y       z     vdW  Elec       q    Type
REMARK                         _______ _______ _______ _____ _____    ______ ____
ROOT
ATOM      1  C   UNL     1      -0.033  10.634  19.233  0.00  0.00    +0.000 C 
ATOM      2  O   UNL     1      -0.992   9.873  19.173  0.00  0.00    +0.000 OA
ATOM      3  N   UNL     1       1.295  10.208  19.298  0.00  0.00    +0.000 N 
ATOM      4  H   UNL     1       1.903  10.803  19.851  0.00  0.00    +0.000 HD
ENDROOT
BRANCH   1  12
ATOM      5  C   UNL     1      -3.699  10.745  16.548  0.00  0.00    +0.000 A 
ATOM      6  C   UNL     1      -4.445  10.603  17.721  0.00  0.00    +0.000 A 
ATOM      7  C   UNL     1      -4.058  11.246  18.898  0.00  0.00    +0.000 A 
ATOM      8  C   UNL     1      -2.890  12.004  18.924  0.00  0.00    +0.000 A 
ATOM      9  C   UNL     1      -2.118  12.121  17.756  0.00  0.00    +0.000 A 
ATOM     10  C   UNL     1      -2.540  11.528  16.563  0.00  0.00    +0.000 A 
ATOM     11  C   UNL     1      -0.764  12.757  17.926  0.00  0.00    +0.000 C 
ATOM     12  C   UNL     1      -0.166  12.210  19.246  0.00  0.00    +0.000 C 
ATOM     13  N   UNL     1      -0.964  12.638  20.422  0.00  0.00    +0.000 NA
ATOM     14  C   UNL     1      -2.414  12.704  20.175  0.00  0.00    +0.000 C 
ATOM     15  H   UNL     1      -0.650  13.549  20.744  0.00  0.00    +0.000 HD
BRANCH   5  17
ATOM     16  C   UNL     1      -2.905  10.071  14.426  0.00  0.00    +0.000 C 
ATOM     17  O   UNL     1      -3.986  10.147  15.350  0.00  0.00    +0.000 OA
ENDBRANCH   5  17
ENDBRANCH   1  12
BRANCH   3  18
ATOM     18  C   UNL     1       1.636   8.838  19.362  0.00  0.00    +0.000 A 
ATOM     19  C   UNL     1       2.090   8.217  18.189  0.00  0.00    +0.000 A 
ATOM     20  C   UNL     1       2.465   6.870  18.186  0.00  0.00    +0.000 A 
ATOM     21  C   UNL     1       2.412   6.120  19.363  0.00  0.00    +0.000 A 
ATOM     22  C   UNL     1       1.959   6.744  20.532  0.00  0.00    +0.000 A 
ATOM     23  C   UNL     1       1.537   8.085  20.543  0.00  0.00    +0.000 A 
BRANCH  21  24
ATOM     24  C   UNL     1       2.803   4.721  19.363  0.00  0.00    +0.000 A 
ATOM     25  C   UNL     1       2.642   3.717  20.346  0.00  0.00    +0.000 A 
ATOM     26  N   UNL     1       3.154   2.540  19.975  0.00  0.00    +0.000 NA
ATOM     27  N   UNL     1       3.635   2.782  18.747  0.00  0.00    +0.000 N 
ATOM     28  C   UNL     1       3.450   4.071  18.333  0.00  0.00    +0.000 A 
ATOM     29  H   UNL     1       4.078   2.020  18.245  0.00  0.00    +0.000 HD
ENDBRANCH  21  24
BRANCH  23  30
ATOM     30  O   UNL     1       1.187   8.500  21.799  0.00  0.00    +0.000 OA
BRANCH  30  31
ATOM     31  C   UNL     1      -0.177   8.577  22.174  0.00  0.00    +0.000 C 
BRANCH  31  32
ATOM     32  C   UNL     1      -0.440   9.644  23.232  0.00  0.00    +0.000 C 
BRANCH  32  33
ATOM     33  O   UNL     1      -0.017  10.923  22.761  0.00  0.00    +0.000 OA
ATOM     34  H   UNL     1      -0.353  11.022  21.852  0.00  0.00    +0.000 HD
ENDBRANCH  32  33
ENDBRANCH  31  32
ENDBRANCH  30  31
ENDBRANCH  23  30
ENDBRANCH   3  18
TORSDOF 8
ENDMDL
