MODEL 1
REMARK VINA RESULT:      -5.9      0.000      0.000
REMARK  Name = 
REMARK  4 active torsions:
REMARK  status: ('A' for Active; 'I' for Inactive)
REMARK    1  A    between atoms: C_1  and  C_2
REMARK    2  A    between atoms: C_2  and  O_3
REMARK    3  A    between atoms: O_3  and  C_4
REMARK    4  A    between atoms: C_4  and  C_6
REMARK                            x       y       z     vdW  Elec       q    Type
REMARK                         _______ _______ _______ _____ _____    ______ ____
ROOT
ATOM      1  C   UNL     1       5.370   4.761  17.093  0.00  0.00    +0.000 A 
ATOM      2  C   UNL     1       4.167   3.991  17.450  0.00  0.00    +0.000 A 
ATOM      3  N   UNL     1       3.951   2.723  17.430  0.00  0.00    +0.000 NA
ATOM      4  S   UNL     1       2.382   2.331  17.937  0.00  0.00    +0.000 S 
ATOM      5  S   UNL     1       1.681   4.233  18.325  0.00  0.00    +0.000 S 
ATOM      6  C   UNL     1       3.139   4.931  17.886  0.00  0.00    +0.000 A 
ATOM      7  C   UNL     1       3.670   6.145  17.803  0.00  0.00    +0.000 A 
ATOM      8 CL   UNL     1       2.883   7.605  18.175  0.00  0.00    +0.000 Cl
ATOM      9  C   UNL     1       5.026   6.040  17.315  0.00  0.00    +0.000 A 
ATOM     10 CL   UNL     1       5.982   7.417  16.985  0.00  0.00    +0.000 Cl
ENDROOT
BRANCH   1  11
ATOM     11  C   UNL     1       6.618   4.286  16.504  0.00  0.00    +0.000 C 
ATOM     12  O   UNL     1       7.725   4.522  16.960  0.00  0.00    +0.000 OA
BRANCH  11  13
ATOM     13  O   UNL     1       6.360   3.690  15.316  0.00  0.00    +0.000 OA
BRANCH  13  15
ATOM     14  C   UNL     1       6.248   3.672  12.936  0.00  0.00    +0.000 C 
ATOM     15  C   UNL     1       6.546   4.520  14.160  0.00  0.00    +0.000 C 
ENDBRANCH  13  15
ENDBRANCH  11  13
ENDBRANCH   1  11
TORSDOF 3
ENDMDL
MODEL 2
REMARK VINA RESULT:      -5.8      3.996      5.339
REMARK  Name = 
REMARK  4 active torsions:
REMARK  status: ('A' for Active; 'I' for Inactive)
REMARK    1  A    between atoms: C_1  and  C_2
REMARK    2  A    between atoms: C_2  and  O_3
REMARK    3  A    between atoms: O_3  and  C_4
REMARK    4  A    between atoms: C_4  and  C_6
REMARK                            x       y       z     vdW  Elec       q    Type
REMARK                         _______ _______ _______ _____ _____    ______ ____
ROOT
ATOM      1  C   UNL     1       4.570   3.824  18.842  0.00  0.00    +0.000 A 
ATOM      2  C   UNL     1       5.767   4.676  18.741  0.00  0.00    +0.000 A 
ATOM      3  N   UNL     1       6.555   5.121  19.655  0.00  0.00    +0.000 NA
ATOM      4  S   UNL     1       7.801   6.077  19.020  0.00  0.00    +0.000 S 
ATOM      5  S   UNL     1       7.310   5.964  17.018  0.00  0.00    +0.000 S 
ATOM      6  C   UNL     1       5.987   4.985  17.330  0.00  0.00    +0.000 A 
ATOM      7  C   UNL     1       5.022   4.377  16.651  0.00  0.00    +0.000 A 
ATOM      8 CL   UNL     1       4.803   4.432  14.966  0.00  0.00    +0.000 Cl
ATOM      9  C   UNL     1       4.158   3.676  17.572  0.00  0.00    +0.000 A 
ATOM     10 CL   UNL     1       2.745   2.865  17.056  0.00  0.00    +0.000 Cl
ENDROOT
BRANCH   1  11
ATOM     11  C   UNL     1       3.887   3.345  20.039  0.00  0.00    +0.000 C 
ATOM     12  O   UNL     1       4.043   2.235  20.520  0.00  0.00    +0.000 OA
BRANCH  11  13
ATOM     13  O   UNL     1       2.962   4.254  20.427  0.00  0.00    +0.000 OA
BRANCH  13  15
ATOM     14  C   UNL     1       0.764   3.388  20.110  0.00  0.00    +0.000 C 
ATOM     15  C   UNL     1       1.835   3.719  21.135  0.00  0.00    +0.000 C 
ENDBRANCH  13  15
ENDBRANCH  11  13
ENDBRANCH   1  11
TORSDOF 3
ENDMDL
MODEL 3
REMARK VINA RESULT:      -5.7      3.009      3.710
REMARK  Name = 
REMARK  4 active torsions:
REMARK  status: ('A' for Active; 'I' for Inactive)
REMARK    1  A    between atoms: C_1  and  C_2
REMARK    2  A    between atoms: C_2  and  O_3
REMARK    3  A    between atoms: O_3  and  C_4
REMARK    4  A    between atoms: C_4  and  C_6
REMARK                            x       y       z     vdW  Elec       q    Type
REMARK                         _______ _______ _______ _____ _____    ______ ____
ROOT
ATOM      1  C   UNL     1       4.447   5.570  17.113  0.00  0.00    +0.000 A 
ATOM      2  C   UNL     1       3.506   5.677  18.240  0.00  0.00    +0.000 A 
ATOM      3  N   UNL     1       3.042   6.712  18.846  0.00  0.00    +0.000 NA
ATOM      4  S   UNL     1       1.980   6.302  20.100  0.00  0.00    +0.000 S 
ATOM      5  S   UNL     1       2.040   4.247  19.918  0.00  0.00    +0.000 S 
ATOM      6  C   UNL     1       3.109   4.326  18.630  0.00  0.00    +0.000 A 
ATOM      7  C   UNL     1       3.744   3.491  17.817  0.00  0.00    +0.000 A 
ATOM      8 CL   UNL     1       3.648   1.795  17.858  0.00  0.00    +0.000 Cl
ATOM      9  C   UNL     1       4.562   4.249  16.898  0.00  0.00    +0.000 A 
ATOM     10 CL   UNL     1       5.601   3.494  15.771  0.00  0.00    +0.000 Cl
ENDROOT
BRANCH   1  11
ATOM     11  C   UNL     1       5.200   6.628  16.448  0.00  0.00    +0.000 C 
ATOM     12  O   UNL     1       5.158   6.851  15.249  0.00  0.00    +0.000 OA
BRANCH  11  13
ATOM     13  O   UNL     1       6.049   7.203  17.332  0.00  0.00    +0.000 OA
BRANCH  13  15
ATOM     14  C   UNL     1       7.722   6.194  18.696  0.00  0.00    +0.000 C 
ATOM     15  C   UNL     1       7.395   6.705  17.304  0.00  0.00    +0.000 C 
ENDBRANCH  13  15
ENDBRANCH  11  13
ENDBRANCH   1  11
TORSDOF 3
ENDMDL
MODEL 4
REMARK VINA RESULT:      -5.7      1.394      1.457
REMARK  Name = 
REMARK  4 active torsions:
REMARK  status: ('A' for Active; 'I' for Inactive)
REMARK    1  A    between atoms: C_1  and  C_2
REMARK    2  A    between atoms: C_2  and  O_3
REMARK    3  A    between atoms: O_3  and  C_4
REMARK    4  A    between atoms: C_4  and  C_6
REMARK                            x       y       z     vdW  Elec       q    Type
REMARK                         _______ _______ _______ _____ _____    ______ ____
ROOT
ATOM      1  C   UNL     1       5.659   4.973  18.064  0.00  0.00    +0.000 A 
ATOM      2  C   UNL     1       4.750   4.202  18.929  0.00  0.00    +0.000 A 
ATOM      3  N   UNL     1       4.912   3.064  19.506  0.00  0.00    +0.000 NA
ATOM      4  S   UNL     1       3.550   2.597  20.400  0.00  0.00    +0.000 S 
ATOM      5  S   UNL     1       2.343   4.229  20.029  0.00  0.00    +0.000 S 
ATOM      6  C   UNL     1       3.512   4.962  19.079  0.00  0.00    +0.000 A 
ATOM      7  C   UNL     1       3.661   6.079  18.379  0.00  0.00    +0.000 A 
ATOM      8 CL   UNL     1       2.500   7.308  18.203  0.00  0.00    +0.000 Cl
ATOM      9  C   UNL     1       4.966   6.083  17.757  0.00  0.00    +0.000 A 
ATOM     10 CL   UNL     1       5.463   7.324  16.693  0.00  0.00    +0.000 Cl
ENDROOT
BRANCH   1  11
ATOM     11  C   UNL     1       6.963   4.589  17.536  0.00  0.00    +0.000 C 
ATOM     12  O   UNL     1       7.946   4.372  18.225  0.00  0.00    +0.000 OA
BRANCH  11  13
ATOM     13  O   UNL     1       6.944   4.664  16.184  0.00  0.00    +0.000 OA
BRANCH  13  15
ATOM     14  C   UNL     1       5.976   4.102  14.080  0.00  0.00    +0.000 C 
ATOM     15  C   UNL     1       6.144   3.670  15.526  0.00  0.00    +0.000 C 
ENDBRANCH  13  15
ENDBRANCH  11  13
ENDBRANCH   1  11
TORSDOF 3
ENDMDL
MODEL 5
REMARK VINA RESULT:      -5.7      3.205      4.365
REMARK  Name = 
REMARK  4 active torsions:
REMARK  status: ('A' for Active; 'I' for Inactive)
REMARK    1  A    between atoms: C_1  and  C_2
REMARK    2  A    between atoms: C_2  and  O_3
REMARK    3  A    between atoms: O_3  and  C_4
REMARK    4  A    between atoms: C_4  and  C_6
REMARK                            x       y       z     vdW  Elec       q    Type
REMARK                         _______ _______ _______ _____ _____    ______ ____
ROOT
ATOM      1  C   UNL     1       4.017   4.102  18.445  0.00  0.00    +0.000 A 
ATOM      2  C   UNL     1       4.782   4.444  17.234  0.00  0.00    +0.000 A 
ATOM      3  N   UNL     1       5.561   3.723  16.508  0.00  0.00    +0.000 NA
ATOM      4  S   UNL     1       6.215   4.591  15.208  0.00  0.00    +0.000 S 
ATOM      5  S   UNL     1       5.323   6.419  15.557  0.00  0.00    +0.000 S 
ATOM      6  C   UNL     1       4.521   5.844  16.911  0.00  0.00    +0.000 A 
ATOM      7  C   UNL     1       3.681   6.299  17.832  0.00  0.00    +0.000 A 
ATOM      8 CL   UNL     1       3.072   7.882  17.930  0.00  0.00    +0.000 Cl
ATOM      9  C   UNL     1       3.379   5.240  18.768  0.00  0.00    +0.000 A 
ATOM     10 CL   UNL     1       2.407   5.497  20.150  0.00  0.00    +0.000 Cl
ENDROOT
BRANCH   1  11
ATOM     11  C   UNL     1       4.031   2.864  19.216  0.00  0.00    +0.000 C 
ATOM     12  O   UNL     1       4.899   2.567  20.020  0.00  0.00    +0.000 OA
BRANCH  11  13
ATOM     13  O   UNL     1       3.034   2.054  18.790  0.00  0.00    +0.000 OA
BRANCH  13  15
ATOM     14  C   UNL     1       0.684   2.453  18.790  0.00  0.00    +0.000 C 
ATOM     15  C   UNL     1       1.871   2.017  19.631  0.00  0.00    +0.000 C 
ENDBRANCH  13  15
ENDBRANCH  11  13
ENDBRANCH   1  11
TORSDOF 3
ENDMDL
MODEL 6
REMARK VINA RESULT:      -5.6      1.998      2.794
REMARK  Name = 
REMARK  4 active torsions:
REMARK  status: ('A' for Active; 'I' for Inactive)
REMARK    1  A    between atoms: C_1  and  C_2
REMARK    2  A    between atoms: C_2  and  O_3
REMARK    3  A    between atoms: O_3  and  C_4
REMARK    4  A    between atoms: C_4  and  C_6
REMARK                            x       y       z     vdW  Elec       q    Type
REMARK                         _______ _______ _______ _____ _____    ______ ____
ROOT
ATOM      1  C   UNL     1       5.650   4.846  17.917  0.00  0.00    +0.000 A 
ATOM      2  C   UNL     1       4.867   4.000  18.834  0.00  0.00    +0.000 A 
ATOM      3  N   UNL     1       5.213   2.970  19.521  0.00  0.00    +0.000 NA
ATOM      4  S   UNL     1       3.928   2.341  20.429  0.00  0.00    +0.000 S 
ATOM      5  S   UNL     1       2.456   3.680  19.879  0.00  0.00    +0.000 S 
ATOM      6  C   UNL     1       3.506   4.528  18.887  0.00  0.00    +0.000 A 
ATOM      7  C   UNL     1       3.474   5.586  18.085  0.00  0.00    +0.000 A 
ATOM      8 CL   UNL     1       2.115   6.556  17.770  0.00  0.00    +0.000 Cl
ATOM      9  C   UNL     1       4.778   5.774  17.492  0.00  0.00    +0.000 A 
ATOM     10 CL   UNL     1       5.079   6.985  16.323  0.00  0.00    +0.000 Cl
ENDROOT
BRANCH   1  11
ATOM     11  C   UNL     1       7.021   4.663  17.453  0.00  0.00    +0.000 C 
ATOM     12  O   UNL     1       7.327   4.405  16.300  0.00  0.00    +0.000 OA
BRANCH  11  13
ATOM     13  O   UNL     1       7.863   4.673  18.513  0.00  0.00    +0.000 OA
BRANCH  13  15
ATOM     14  C   UNL     1       8.128   7.041  18.463  0.00  0.00    +0.000 C 
ATOM     15  C   UNL     1       7.797   5.845  19.339  0.00  0.00    +0.000 C 
ENDBRANCH  13  15
ENDBRANCH  11  13
ENDBRANCH   1  11
TORSDOF 3
ENDMDL
MODEL 7
REMARK VINA RESULT:      -5.6      1.155      2.171
REMARK  Name = 
REMARK  4 active torsions:
REMARK  status: ('A' for Active; 'I' for Inactive)
REMARK    1  A    between atoms: C_1  and  C_2
REMARK    2  A    between atoms: C_2  and  O_3
REMARK    3  A    between atoms: O_3  and  C_4
REMARK    4  A    between atoms: C_4  and  C_6
REMARK                            x       y       z     vdW  Elec       q    Type
REMARK                         _______ _______ _______ _____ _____    ______ ____
ROOT
ATOM      1  C   UNL     1       4.973   4.682  16.890  0.00  0.00    +0.000 A 
ATOM      2  C   UNL     1       4.031   3.812  17.614  0.00  0.00    +0.000 A 
ATOM      3  N   UNL     1       4.048   2.541  17.807  0.00  0.00    +0.000 NA
ATOM      4  S   UNL     1       2.717   2.010  18.712  0.00  0.00    +0.000 S 
ATOM      5  S   UNL     1       1.781   3.826  19.008  0.00  0.00    +0.000 S 
ATOM      6  C   UNL     1       2.964   4.650  18.155  0.00  0.00    +0.000 A 
ATOM      7  C   UNL     1       3.237   5.898  17.796  0.00  0.00    +0.000 A 
ATOM      8 CL   UNL     1       2.296   7.267  18.153  0.00  0.00    +0.000 Cl
ATOM      9  C   UNL     1       4.458   5.916  17.022  0.00  0.00    +0.000 A 
ATOM     10 CL   UNL     1       5.059   7.345  16.305  0.00  0.00    +0.000 Cl
ENDROOT
BRANCH   1  11
ATOM     11  C   UNL     1       6.135   4.306  16.092  0.00  0.00    +0.000 C 
ATOM     12  O   UNL     1       6.128   3.432  15.240  0.00  0.00    +0.000 OA
BRANCH  11  13
ATOM     13  O   UNL     1       7.229   4.961  16.547  0.00  0.00    +0.000 OA
BRANCH  13  15
ATOM     14  C   UNL     1       7.780   5.882  18.675  0.00  0.00    +0.000 C 
ATOM     15  C   UNL     1       7.653   4.601  17.870  0.00  0.00    +0.000 C 
ENDBRANCH  13  15
ENDBRANCH  11  13
ENDBRANCH   1  11
TORSDOF 3
ENDMDL
MODEL 8
REMARK VINA RESULT:      -5.5      3.300      4.796
REMARK  Name = 
REMARK  4 active torsions:
REMARK  status: ('A' for Active; 'I' for Inactive)
REMARK    1  A    between atoms: C_1  and  C_2
REMARK    2  A    between atoms: C_2  and  O_3
REMARK    3  A    between atoms: O_3  and  C_4
REMARK    4  A    between atoms: C_4  and  C_6
REMARK                            x       y       z     vdW  Elec       q    Type
REMARK                         _______ _______ _______ _____ _____    ______ ____
ROOT
ATOM      1  C   UNL     1       2.904   5.959  18.133  0.00  0.00    +0.000 A 
ATOM      2  C   UNL     1       2.391   4.599  18.366  0.00  0.00    +0.000 A 
ATOM      3  N   UNL     1       1.360   4.196  19.021  0.00  0.00    +0.000 NA
ATOM      4  S   UNL     1       1.201   2.509  18.997  0.00  0.00    +0.000 S 
ATOM      5  S   UNL     1       2.852   2.044  17.850  0.00  0.00    +0.000 S 
ATOM      6  C   UNL     1       3.275   3.656  17.686  0.00  0.00    +0.000 A 
ATOM      7  C   UNL     1       4.224   4.376  17.100  0.00  0.00    +0.000 A 
ATOM      8 CL   UNL     1       5.523   3.763  16.192  0.00  0.00    +0.000 Cl
ATOM      9  C   UNL     1       4.001   5.777  17.378  0.00  0.00    +0.000 A 
ATOM     10 CL   UNL     1       5.089   6.990  16.866  0.00  0.00    +0.000 Cl
ENDROOT
BRANCH   1  11
ATOM     11  C   UNL     1       2.433   7.222  18.690  0.00  0.00    +0.000 C 
ATOM     12  O   UNL     1       2.354   7.458  19.885  0.00  0.00    +0.000 OA
BRANCH  11  13
ATOM     13  O   UNL     1       1.963   8.009  17.694  0.00  0.00    +0.000 OA
BRANCH  13  15
ATOM     14  C   UNL     1       0.504   9.842  18.131  0.00  0.00    +0.000 C 
ATOM     15  C   UNL     1       1.953   9.416  17.977  0.00  0.00    +0.000 C 
ENDBRANCH  13  15
ENDBRANCH  11  13
ENDBRANCH   1  11
TORSDOF 3
ENDMDL
MODEL 9
REMARK VINA RESULT:      -5.5      3.254      4.317
REMARK  Name = 
REMARK  4 active torsions:
REMARK  status: ('A' for Active; 'I' for Inactive)
REMARK    1  A    between atoms: C_1  and  C_2
REMARK    2  A    between atoms: C_2  and  O_3
REMARK    3  A    between atoms: O_3  and  C_4
REMARK    4  A    between atoms: C_4  and  C_6
REMARK                            x       y       z     vdW  Elec       q    Type
REMARK                         _______ _______ _______ _____ _____    ______ ____
ROOT
ATOM      1  C   UNL     1       4.187   4.315  18.471  0.00  0.00    +0.000 A 
ATOM      2  C   UNL     1       3.433   5.528  18.831  0.00  0.00    +0.000 A 
ATOM      3  N   UNL     1       2.689   5.777  19.850  0.00  0.00    +0.000 NA
ATOM      4  S   UNL     1       2.032   7.338  19.801  0.00  0.00    +0.000 S 
ATOM      5  S   UNL     1       2.862   7.983  18.024  0.00  0.00    +0.000 S 
ATOM      6  C   UNL     1       3.657   6.528  17.790  0.00  0.00    +0.000 A 
ATOM      7  C   UNL     1       4.466   5.974  16.895  0.00  0.00    +0.000 A 
ATOM      8 CL   UNL     1       5.024   6.707  15.468  0.00  0.00    +0.000 Cl
ATOM      9  C   UNL     1       4.783   4.626  17.308  0.00  0.00    +0.000 A 
ATOM     10 CL   UNL     1       5.722   3.576  16.341  0.00  0.00    +0.000 Cl
ENDROOT
BRANCH   1  11
ATOM     11  C   UNL     1       4.197   3.015  19.134  0.00  0.00    +0.000 C 
ATOM     12  O   UNL     1       5.070   2.643  19.901  0.00  0.00    +0.000 OA
BRANCH  11  13
ATOM     13  O   UNL     1       3.189   2.252  18.649  0.00  0.00    +0.000 OA
BRANCH  13  15
ATOM     14  C   UNL     1       0.829   2.565  18.748  0.00  0.00    +0.000 C 
ATOM     15  C   UNL     1       2.056   2.109  19.518  0.00  0.00    +0.000 C 
ENDBRANCH  13  15
ENDBRANCH  11  13
ENDBRANCH   1  11
TORSDOF 3
ENDMDL
