MODEL 1
REMARK VINA RESULT:      -7.1      0.000      0.000
REMARK  Name = 
REMARK  7 active torsions:
REMARK  status: ('A' for Active; 'I' for Inactive)
REMARK    1  A    between atoms: C_1  and  N_2
REMARK    2  A    between atoms: N_2  and  C_3
REMARK    3  A    between atoms: N_2  and  C_4
REMARK    4  A    between atoms: N_2  and  C_5
REMARK    5  A    between atoms: C_5  and  C_6
REMARK    6  A    between atoms: C_10  and  C_11
REMARK    7  A    between atoms: C_10  and  C_17
REMARK                            x       y       z     vdW  Elec       q    Type
REMARK                         _______ _______ _______ _____ _____    ______ ____
ROOT
ATOM      1  C   UNL     1       4.647   5.246  16.980  0.00  0.00    +0.000 C 
ATOM      2  C   UNL     1       5.799   5.293  18.016  0.00  0.00    +0.000 C 
ATOM      3  O   UNL     1       5.309   5.180  19.330  0.00  0.00    +0.000 OA
ATOM      4  C   UNL     1       4.446   6.273  19.571  0.00  0.00    +0.000 C 
ATOM      5  C   UNL     1       3.201   6.177  18.650  0.00  0.00    +0.000 C 
ATOM      6  O   UNL     1       3.643   6.191  17.296  0.00  0.00    +0.000 OA
ENDROOT
BRANCH   5   7
ATOM      7  C   UNL     1       2.355   7.440  18.869  0.00  0.00    +0.000 A 
ATOM      8  C   UNL     1       2.053   8.318  17.797  0.00  0.00    +0.000 A 
ATOM      9  C   UNL     1       1.306   9.477  18.002  0.00  0.00    +0.000 A 
ATOM     10  C   UNL     1       0.846   9.794  19.276  0.00  0.00    +0.000 A 
ATOM     11  C   UNL     1       1.126   8.944  20.348  0.00  0.00    +0.000 A 
ATOM     12  C   UNL     1       1.869   7.774  20.149  0.00  0.00    +0.000 A 
ENDBRANCH   5   7
BRANCH   5  13
ATOM     13  C   UNL     1       2.331   4.926  18.932  0.00  0.00    +0.000 A 
ATOM     14  C   UNL     1       1.763   4.137  17.899  0.00  0.00    +0.000 A 
ATOM     15  C   UNL     1       0.996   3.006  18.192  0.00  0.00    +0.000 A 
ATOM     16  C   UNL     1       0.777   2.633  19.515  0.00  0.00    +0.000 A 
ATOM     17  C   UNL     1       1.322   3.393  20.550  0.00  0.00    +0.000 A 
ATOM     18  C   UNL     1       2.092   4.531  20.265  0.00  0.00    +0.000 A 
ENDBRANCH   5  13
BRANCH   1  19
ATOM     19  C   UNL     1       5.259   5.605  15.589  0.00  0.00    +0.000 C 
BRANCH  19  21
ATOM     20  C   UNL     1       5.265   4.230  13.521  0.00  0.00    +0.000 C 
ATOM     21  N   UNL     1       5.932   4.512  14.817  0.00  0.00    +0.000 N 
ATOM     22  C   UNL     1       6.006   3.265  15.610  0.00  0.00    +0.000 C 
ATOM     23  C   UNL     1       7.313   4.964  14.510  0.00  0.00    +0.000 C 
ENDBRANCH  19  21
ENDBRANCH   1  19
TORSDOF 4
ENDMDL
MODEL 2
REMARK VINA RESULT:      -7.1      0.965      1.966
REMARK  Name = 
REMARK  7 active torsions:
REMARK  status: ('A' for Active; 'I' for Inactive)
REMARK    1  A    between atoms: C_1  and  N_2
REMARK    2  A    between atoms: N_2  and  C_3
REMARK    3  A    between atoms: N_2  and  C_4
REMARK    4  A    between atoms: N_2  and  C_5
REMARK    5  A    between atoms: C_5  and  C_6
REMARK    6  A    between atoms: C_10  and  C_11
REMARK    7  A    between atoms: C_10  and  C_17
REMARK                            x       y       z     vdW  Elec       q    Type
REMARK                         _______ _______ _______ _____ _____    ______ ____
ROOT
ATOM      1  C   UNL     1       4.544   3.983  17.351  0.00  0.00    +0.000 C 
ATOM      2  C   UNL     1       5.876   4.189  18.116  0.00  0.00    +0.000 C 
ATOM      3  O   UNL     1       5.645   4.512  19.466  0.00  0.00    +0.000 OA
ATOM      4  C   UNL     1       4.912   5.720  19.508  0.00  0.00    +0.000 C 
ATOM      5  C   UNL     1       3.508   5.509  18.881  0.00  0.00    +0.000 C 
ATOM      6  O   UNL     1       3.679   5.087  17.532  0.00  0.00    +0.000 OA
ENDROOT
BRANCH   5   7
ATOM      7  C   UNL     1       2.798   6.871  18.849  0.00  0.00    +0.000 A 
ATOM      8  C   UNL     1       2.087   7.356  19.976  0.00  0.00    +0.000 A 
ATOM      9  C   UNL     1       1.422   8.581  19.936  0.00  0.00    +0.000 A 
ATOM     10  C   UNL     1       1.444   9.350  18.777  0.00  0.00    +0.000 A 
ATOM     11  C   UNL     1       2.142   8.897  17.655  0.00  0.00    +0.000 A 
ATOM     12  C   UNL     1       2.818   7.671  17.689  0.00  0.00    +0.000 A 
ENDBRANCH   5   7
BRANCH   5  13
ATOM     13  C   UNL     1       2.636   4.499  19.668  0.00  0.00    +0.000 A 
ATOM     14  C   UNL     1       2.884   4.164  21.025  0.00  0.00    +0.000 A 
ATOM     15  C   UNL     1       2.065   3.259  21.706  0.00  0.00    +0.000 A 
ATOM     16  C   UNL     1       0.985   2.667  21.058  0.00  0.00    +0.000 A 
ATOM     17  C   UNL     1       0.722   2.976  19.724  0.00  0.00    +0.000 A 
ATOM     18  C   UNL     1       1.538   3.883  19.031  0.00  0.00    +0.000 A 
ENDBRANCH   5  13
BRANCH   1  19
ATOM     19  C   UNL     1       4.894   3.858  15.835  0.00  0.00    +0.000 C 
BRANCH  19  21
ATOM     20  C   UNL     1       7.187   4.791  16.041  0.00  0.00    +0.000 C 
ATOM     21  N   UNL     1       5.917   4.797  15.272  0.00  0.00    +0.000 N 
ATOM     22  C   UNL     1       5.394   6.179  15.205  0.00  0.00    +0.000 C 
ATOM     23  C   UNL     1       6.236   4.340  13.895  0.00  0.00    +0.000 C 
ENDBRANCH  19  21
ENDBRANCH   1  19
TORSDOF 4
ENDMDL
MODEL 3
REMARK VINA RESULT:      -7.1      0.051      1.426
REMARK  Name = 
REMARK  7 active torsions:
REMARK  status: ('A' for Active; 'I' for Inactive)
REMARK    1  A    between atoms: C_1  and  N_2
REMARK    2  A    between atoms: N_2  and  C_3
REMARK    3  A    between atoms: N_2  and  C_4
REMARK    4  A    between atoms: N_2  and  C_5
REMARK    5  A    between atoms: C_5  and  C_6
REMARK    6  A    between atoms: C_10  and  C_11
REMARK    7  A    between atoms: C_10  and  C_17
REMARK                            x       y       z     vdW  Elec       q    Type
REMARK                         _______ _______ _______ _____ _____    ______ ____
ROOT
ATOM      1  C   UNL     1       4.661   5.245  16.973  0.00  0.00    +0.000 C 
ATOM      2  C   UNL     1       5.829   5.303  17.990  0.00  0.00    +0.000 C 
ATOM      3  O   UNL     1       5.360   5.202  19.313  0.00  0.00    +0.000 OA
ATOM      4  C   UNL     1       4.499   6.295  19.557  0.00  0.00    +0.000 C 
ATOM      5  C   UNL     1       3.239   6.188  18.656  0.00  0.00    +0.000 C 
ATOM      6  O   UNL     1       3.660   6.190  17.295  0.00  0.00    +0.000 OA
ENDROOT
BRANCH   5   7
ATOM      7  C   UNL     1       2.394   7.451  18.877  0.00  0.00    +0.000 A 
ATOM      8  C   UNL     1       1.879   7.777  20.157  0.00  0.00    +0.000 A 
ATOM      9  C   UNL     1       1.092   8.911  20.350  0.00  0.00    +0.000 A 
ATOM     10  C   UNL     1       0.792   9.744  19.278  0.00  0.00    +0.000 A 
ATOM     11  C   UNL     1       1.291   9.448  18.007  0.00  0.00    +0.000 A 
ATOM     12  C   UNL     1       2.089   8.316  17.805  0.00  0.00    +0.000 A 
ENDBRANCH   5   7
BRANCH   5  13
ATOM     13  C   UNL     1       2.377   4.938  18.963  0.00  0.00    +0.000 A 
ATOM     14  C   UNL     1       2.140   4.473  20.283  0.00  0.00    +0.000 A 
ATOM     15  C   UNL     1       1.344   3.351  20.521  0.00  0.00    +0.000 A 
ATOM     16  C   UNL     1       0.764   2.664  19.458  0.00  0.00    +0.000 A 
ATOM     17  C   UNL     1       0.984   3.098  18.151  0.00  0.00    +0.000 A 
ATOM     18  C   UNL     1       1.783   4.224  17.901  0.00  0.00    +0.000 A 
ENDBRANCH   5  13
BRANCH   1  19
ATOM     19  C   UNL     1       5.250   5.591  15.569  0.00  0.00    +0.000 C 
BRANCH  19  21
ATOM     20  C   UNL     1       5.291   4.217  13.501  0.00  0.00    +0.000 C 
ATOM     21  N   UNL     1       5.937   4.499  14.808  0.00  0.00    +0.000 N 
ATOM     22  C   UNL     1       5.997   3.252  15.602  0.00  0.00    +0.000 C 
ATOM     23  C   UNL     1       7.322   4.951  14.524  0.00  0.00    +0.000 C 
ENDBRANCH  19  21
ENDBRANCH   1  19
TORSDOF 4
ENDMDL
MODEL 4
REMARK VINA RESULT:      -7.1      0.965      1.722
REMARK  Name = 
REMARK  7 active torsions:
REMARK  status: ('A' for Active; 'I' for Inactive)
REMARK    1  A    between atoms: C_1  and  N_2
REMARK    2  A    between atoms: N_2  and  C_3
REMARK    3  A    between atoms: N_2  and  C_4
REMARK    4  A    between atoms: N_2  and  C_5
REMARK    5  A    between atoms: C_5  and  C_6
REMARK    6  A    between atoms: C_10  and  C_11
REMARK    7  A    between atoms: C_10  and  C_17
REMARK                            x       y       z     vdW  Elec       q    Type
REMARK                         _______ _______ _______ _____ _____    ______ ____
ROOT
ATOM      1  C   UNL     1       4.529   3.983  17.353  0.00  0.00    +0.000 C 
ATOM      2  C   UNL     1       5.851   4.175  18.139  0.00  0.00    +0.000 C 
ATOM      3  O   UNL     1       5.603   4.495  19.487  0.00  0.00    +0.000 OA
ATOM      4  C   UNL     1       4.880   5.708  19.523  0.00  0.00    +0.000 C 
ATOM      5  C   UNL     1       3.483   5.512  18.874  0.00  0.00    +0.000 C 
ATOM      6  O   UNL     1       3.671   5.093  17.525  0.00  0.00    +0.000 OA
ENDROOT
BRANCH   5   7
ATOM      7  C   UNL     1       2.786   6.880  18.836  0.00  0.00    +0.000 A 
ATOM      8  C   UNL     1       2.071   7.372  19.958  0.00  0.00    +0.000 A 
ATOM      9  C   UNL     1       1.418   8.603  19.913  0.00  0.00    +0.000 A 
ATOM     10  C   UNL     1       1.454   9.371  18.754  0.00  0.00    +0.000 A 
ATOM     11  C   UNL     1       2.156   8.911  17.637  0.00  0.00    +0.000 A 
ATOM     12  C   UNL     1       2.821   7.680  17.676  0.00  0.00    +0.000 A 
ENDBRANCH   5   7
BRANCH   5  13
ATOM     13  C   UNL     1       2.591   4.506  19.643  0.00  0.00    +0.000 A 
ATOM     14  C   UNL     1       1.490   3.842  19.045  0.00  0.00    +0.000 A 
ATOM     15  C   UNL     1       0.717   2.929  19.767  0.00  0.00    +0.000 A 
ATOM     16  C   UNL     1       1.019   2.655  21.098  0.00  0.00    +0.000 A 
ATOM     17  C   UNL     1       2.095   3.297  21.711  0.00  0.00    +0.000 A 
ATOM     18  C   UNL     1       2.876   4.215  20.994  0.00  0.00    +0.000 A 
ENDBRANCH   5  13
BRANCH   1  19
ATOM     19  C   UNL     1       4.901   3.861  15.842  0.00  0.00    +0.000 C 
BRANCH  19  21
ATOM     20  C   UNL     1       7.198   4.783  16.054  0.00  0.00    +0.000 C 
ATOM     21  N   UNL     1       5.923   4.808  15.293  0.00  0.00    +0.000 N 
ATOM     22  C   UNL     1       5.402   6.193  15.257  0.00  0.00    +0.000 C 
ATOM     23  C   UNL     1       6.233   4.380  13.905  0.00  0.00    +0.000 C 
ENDBRANCH  19  21
ENDBRANCH   1  19
TORSDOF 4
ENDMDL
MODEL 5
REMARK VINA RESULT:      -7.1      0.961      1.703
REMARK  Name = 
REMARK  7 active torsions:
REMARK  status: ('A' for Active; 'I' for Inactive)
REMARK    1  A    between atoms: C_1  and  N_2
REMARK    2  A    between atoms: N_2  and  C_3
REMARK    3  A    between atoms: N_2  and  C_4
REMARK    4  A    between atoms: N_2  and  C_5
REMARK    5  A    between atoms: C_5  and  C_6
REMARK    6  A    between atoms: C_10  and  C_11
REMARK    7  A    between atoms: C_10  and  C_17
REMARK                            x       y       z     vdW  Elec       q    Type
REMARK                         _______ _______ _______ _____ _____    ______ ____
ROOT
ATOM      1  C   UNL     1       4.556   3.964  17.361  0.00  0.00    +0.000 C 
ATOM      2  C   UNL     1       5.885   4.196  18.124  0.00  0.00    +0.000 C 
ATOM      3  O   UNL     1       5.650   4.530  19.470  0.00  0.00    +0.000 OA
ATOM      4  C   UNL     1       4.902   5.728  19.501  0.00  0.00    +0.000 C 
ATOM      5  C   UNL     1       3.501   5.493  18.876  0.00  0.00    +0.000 C 
ATOM      6  O   UNL     1       3.676   5.059  17.531  0.00  0.00    +0.000 OA
ENDROOT
BRANCH   5   7
ATOM      7  C   UNL     1       2.773   6.845  18.830  0.00  0.00    +0.000 A 
ATOM      8  C   UNL     1       2.797   7.653  17.665  0.00  0.00    +0.000 A 
ATOM      9  C   UNL     1       2.157   8.892  17.634  0.00  0.00    +0.000 A 
ATOM     10  C   UNL     1       1.485   9.359  18.758  0.00  0.00    +0.000 A 
ATOM     11  C   UNL     1       1.442   8.579  19.917  0.00  0.00    +0.000 A 
ATOM     12  C   UNL     1       2.076   7.332  19.955  0.00  0.00    +0.000 A 
ENDBRANCH   5   7
BRANCH   5  13
ATOM     13  C   UNL     1       2.642   4.480  19.674  0.00  0.00    +0.000 A 
ATOM     14  C   UNL     1       2.893   4.162  21.034  0.00  0.00    +0.000 A 
ATOM     15  C   UNL     1       2.087   3.254  21.724  0.00  0.00    +0.000 A 
ATOM     16  C   UNL     1       1.015   2.641  21.083  0.00  0.00    +0.000 A 
ATOM     17  C   UNL     1       0.747   2.933  19.745  0.00  0.00    +0.000 A 
ATOM     18  C   UNL     1       1.552   3.843  19.043  0.00  0.00    +0.000 A 
ENDBRANCH   5  13
BRANCH   1  19
ATOM     19  C   UNL     1       4.907   3.829  15.847  0.00  0.00    +0.000 C 
BRANCH  19  21
ATOM     20  C   UNL     1       7.215   4.737  15.979  0.00  0.00    +0.000 C 
ATOM     21  N   UNL     1       5.911   4.781  15.271  0.00  0.00    +0.000 N 
ATOM     22  C   UNL     1       5.396   6.168  15.280  0.00  0.00    +0.000 C 
ATOM     23  C   UNL     1       6.161   4.374  13.865  0.00  0.00    +0.000 C 
ENDBRANCH  19  21
ENDBRANCH   1  19
TORSDOF 4
ENDMDL
MODEL 6
REMARK VINA RESULT:      -7.0      0.433      1.375
REMARK  Name = 
REMARK  7 active torsions:
REMARK  status: ('A' for Active; 'I' for Inactive)
REMARK    1  A    between atoms: C_1  and  N_2
REMARK    2  A    between atoms: N_2  and  C_3
REMARK    3  A    between atoms: N_2  and  C_4
REMARK    4  A    between atoms: N_2  and  C_5
REMARK    5  A    between atoms: C_5  and  C_6
REMARK    6  A    between atoms: C_10  and  C_11
REMARK    7  A    between atoms: C_10  and  C_17
REMARK                            x       y       z     vdW  Elec       q    Type
REMARK                         _______ _______ _______ _____ _____    ______ ____
ROOT
ATOM      1  C   UNL     1       4.826   5.196  16.756  0.00  0.00    +0.000 C 
ATOM      2  C   UNL     1       6.042   5.267  17.714  0.00  0.00    +0.000 C 
ATOM      3  O   UNL     1       5.646   5.119  19.056  0.00  0.00    +0.000 OA
ATOM      4  C   UNL     1       4.765   6.178  19.372  0.00  0.00    +0.000 C 
ATOM      5  C   UNL     1       3.465   6.052  18.534  0.00  0.00    +0.000 C 
ATOM      6  O   UNL     1       3.814   6.101  17.154  0.00  0.00    +0.000 OA
ENDROOT
BRANCH   5   7
ATOM      7  C   UNL     1       2.594   7.283  18.830  0.00  0.00    +0.000 A 
ATOM      8  C   UNL     1       2.018   7.484  20.110  0.00  0.00    +0.000 A 
ATOM      9  C   UNL     1       1.207   8.589  20.369  0.00  0.00    +0.000 A 
ATOM     10  C   UNL     1       0.945   9.514  19.364  0.00  0.00    +0.000 A 
ATOM     11  C   UNL     1       1.505   9.341  18.096  0.00  0.00    +0.000 A 
ATOM     12  C   UNL     1       2.326   8.239  17.829  0.00  0.00    +0.000 A 
ENDBRANCH   5   7
BRANCH   5  13
ATOM     13  C   UNL     1       2.658   4.769  18.852  0.00  0.00    +0.000 A 
ATOM     14  C   UNL     1       1.664   4.250  17.982  0.00  0.00    +0.000 A 
ATOM     15  C   UNL     1       0.968   3.080  18.297  0.00  0.00    +0.000 A 
ATOM     16  C   UNL     1       1.242   2.399  19.479  0.00  0.00    +0.000 A 
ATOM     17  C   UNL     1       2.212   2.889  20.354  0.00  0.00    +0.000 A 
ATOM     18  C   UNL     1       2.915   4.063  20.047  0.00  0.00    +0.000 A 
ENDBRANCH   5  13
BRANCH   1  19
ATOM     19  C   UNL     1       5.331   5.595  15.334  0.00  0.00    +0.000 C 
BRANCH  19  21
ATOM     20  C   UNL     1       7.372   4.992  14.055  0.00  0.00    +0.000 C 
ATOM     21  N   UNL     1       6.033   4.552  14.521  0.00  0.00    +0.000 N 
ATOM     22  C   UNL     1       5.219   4.148  13.354  0.00  0.00    +0.000 C 
ATOM     23  C   UNL     1       6.239   3.367  15.392  0.00  0.00    +0.000 C 
ENDBRANCH  19  21
ENDBRANCH   1  19
TORSDOF 4
ENDMDL
MODEL 7
REMARK VINA RESULT:      -7.0      0.506      1.344
REMARK  Name = 
REMARK  7 active torsions:
REMARK  status: ('A' for Active; 'I' for Inactive)
REMARK    1  A    between atoms: C_1  and  N_2
REMARK    2  A    between atoms: N_2  and  C_3
REMARK    3  A    between atoms: N_2  and  C_4
REMARK    4  A    between atoms: N_2  and  C_5
REMARK    5  A    between atoms: C_5  and  C_6
REMARK    6  A    between atoms: C_10  and  C_11
REMARK    7  A    between atoms: C_10  and  C_17
REMARK                            x       y       z     vdW  Elec       q    Type
REMARK                         _______ _______ _______ _____ _____    ______ ____
ROOT
ATOM      1  C   UNL     1       4.885   5.184  16.744  0.00  0.00    +0.000 C 
ATOM      2  C   UNL     1       6.103   5.293  17.696  0.00  0.00    +0.000 C 
ATOM      3  O   UNL     1       5.717   5.137  19.040  0.00  0.00    +0.000 OA
ATOM      4  C   UNL     1       4.808   6.171  19.357  0.00  0.00    +0.000 C 
ATOM      5  C   UNL     1       3.507   6.005  18.526  0.00  0.00    +0.000 C 
ATOM      6  O   UNL     1       3.849   6.060  17.144  0.00  0.00    +0.000 OA
ENDROOT
BRANCH   5   7
ATOM      7  C   UNL     1       2.603   7.211  18.823  0.00  0.00    +0.000 A 
ATOM      8  C   UNL     1       2.306   8.170  17.822  0.00  0.00    +0.000 A 
ATOM      9  C   UNL     1       1.504   9.277  18.100  0.00  0.00    +0.000 A 
ATOM     10  C   UNL     1       0.985   9.459  19.377  0.00  0.00    +0.000 A 
ATOM     11  C   UNL     1       1.259   8.525  20.379  0.00  0.00    +0.000 A 
ATOM     12  C   UNL     1       2.056   7.408  20.107  0.00  0.00    +0.000 A 
ENDBRANCH   5   7
BRANCH   5  13
ATOM     13  C   UNL     1       2.740   4.700  18.851  0.00  0.00    +0.000 A 
ATOM     14  C   UNL     1       3.025   3.905  19.991  0.00  0.00    +0.000 A 
ATOM     15  C   UNL     1       2.299   2.741  20.260  0.00  0.00    +0.000 A 
ATOM     16  C   UNL     1       1.277   2.340  19.405  0.00  0.00    +0.000 A 
ATOM     17  C   UNL     1       0.979   3.102  18.275  0.00  0.00    +0.000 A 
ATOM     18  C   UNL     1       1.702   4.271  17.997  0.00  0.00    +0.000 A 
ENDBRANCH   5  13
BRANCH   1  19
ATOM     19  C   UNL     1       5.372   5.594  15.319  0.00  0.00    +0.000 C 
BRANCH  19  21
ATOM     20  C   UNL     1       7.385   4.999  13.991  0.00  0.00    +0.000 C 
ATOM     21  N   UNL     1       6.058   4.554  14.487  0.00  0.00    +0.000 N 
ATOM     22  C   UNL     1       5.217   4.150  13.338  0.00  0.00    +0.000 C 
ATOM     23  C   UNL     1       6.288   3.368  15.349  0.00  0.00    +0.000 C 
ENDBRANCH  19  21
ENDBRANCH   1  19
TORSDOF 4
ENDMDL
MODEL 8
REMARK VINA RESULT:      -7.0      0.964      1.409
REMARK  Name = 
REMARK  7 active torsions:
REMARK  status: ('A' for Active; 'I' for Inactive)
REMARK    1  A    between atoms: C_1  and  N_2
REMARK    2  A    between atoms: N_2  and  C_3
REMARK    3  A    between atoms: N_2  and  C_4
REMARK    4  A    between atoms: N_2  and  C_5
REMARK    5  A    between atoms: C_5  and  C_6
REMARK    6  A    between atoms: C_10  and  C_11
REMARK    7  A    between atoms: C_10  and  C_17
REMARK                            x       y       z     vdW  Elec       q    Type
REMARK                         _______ _______ _______ _____ _____    ______ ____
ROOT
ATOM      1  C   UNL     1       4.534   3.979  17.358  0.00  0.00    +0.000 C 
ATOM      2  C   UNL     1       5.853   4.190  18.144  0.00  0.00    +0.000 C 
ATOM      3  O   UNL     1       5.599   4.515  19.490  0.00  0.00    +0.000 OA
ATOM      4  C   UNL     1       4.864   5.721  19.518  0.00  0.00    +0.000 C 
ATOM      5  C   UNL     1       3.470   5.506  18.869  0.00  0.00    +0.000 C 
ATOM      6  O   UNL     1       3.664   5.082  17.523  0.00  0.00    +0.000 OA
ENDROOT
BRANCH   5   7
ATOM      7  C   UNL     1       2.758   6.867  18.823  0.00  0.00    +0.000 A 
ATOM      8  C   UNL     1       2.798   7.678  17.661  0.00  0.00    +0.000 A 
ATOM      9  C   UNL     1       2.172   8.924  17.629  0.00  0.00    +0.000 A 
ATOM     10  C   UNL     1       1.498   9.394  18.751  0.00  0.00    +0.000 A 
ATOM     11  C   UNL     1       1.440   8.612  19.907  0.00  0.00    +0.000 A 
ATOM     12  C   UNL     1       2.059   7.357  19.945  0.00  0.00    +0.000 A 
ENDBRANCH   5   7
BRANCH   5  13
ATOM     13  C   UNL     1       2.588   4.495  19.643  0.00  0.00    +0.000 A 
ATOM     14  C   UNL     1       1.490   3.822  19.049  0.00  0.00    +0.000 A 
ATOM     15  C   UNL     1       0.726   2.905  19.776  0.00  0.00    +0.000 A 
ATOM     16  C   UNL     1       1.034   2.635  21.106  0.00  0.00    +0.000 A 
ATOM     17  C   UNL     1       2.107   3.286  21.715  0.00  0.00    +0.000 A 
ATOM     18  C   UNL     1       2.879   4.209  20.994  0.00  0.00    +0.000 A 
ENDBRANCH   5  13
BRANCH   1  19
ATOM     19  C   UNL     1       4.909   3.853  15.848  0.00  0.00    +0.000 C 
BRANCH  19  21
ATOM     20  C   UNL     1       7.210   4.767  16.043  0.00  0.00    +0.000 C 
ATOM     21  N   UNL     1       5.927   4.803  15.296  0.00  0.00    +0.000 N 
ATOM     22  C   UNL     1       5.410   6.189  15.281  0.00  0.00    +0.000 C 
ATOM     23  C   UNL     1       6.220   4.388  13.901  0.00  0.00    +0.000 C 
ENDBRANCH  19  21
ENDBRANCH   1  19
TORSDOF 4
ENDMDL
MODEL 9
REMARK VINA RESULT:      -7.0      0.050      1.325
REMARK  Name = 
REMARK  7 active torsions:
REMARK  status: ('A' for Active; 'I' for Inactive)
REMARK    1  A    between atoms: C_1  and  N_2
REMARK    2  A    between atoms: N_2  and  C_3
REMARK    3  A    between atoms: N_2  and  C_4
REMARK    4  A    between atoms: N_2  and  C_5
REMARK    5  A    between atoms: C_5  and  C_6
REMARK    6  A    between atoms: C_10  and  C_11
REMARK    7  A    between atoms: C_10  and  C_17
REMARK                            x       y       z     vdW  Elec       q    Type
REMARK                         _______ _______ _______ _____ _____    ______ ____
ROOT
ATOM      1  C   UNL     1       4.629   5.243  16.993  0.00  0.00    +0.000 C 
ATOM      2  C   UNL     1       5.800   5.320  18.005  0.00  0.00    +0.000 C 
ATOM      3  O   UNL     1       5.337   5.222  19.330  0.00  0.00    +0.000 OA
ATOM      4  C   UNL     1       4.466   6.307  19.571  0.00  0.00    +0.000 C 
ATOM      5  C   UNL     1       3.204   6.182  18.676  0.00  0.00    +0.000 C 
ATOM      6  O   UNL     1       3.620   6.180  17.313  0.00  0.00    +0.000 OA
ENDROOT
BRANCH   5   7
ATOM      7  C   UNL     1       2.347   7.438  18.892  0.00  0.00    +0.000 A 
ATOM      8  C   UNL     1       2.040   8.312  17.818  0.00  0.00    +0.000 A 
ATOM      9  C   UNL     1       1.283   9.465  18.022  0.00  0.00    +0.000 A 
ATOM     10  C   UNL     1       0.817   9.780  19.294  0.00  0.00    +0.000 A 
ATOM     11  C   UNL     1       1.102   8.932  20.367  0.00  0.00    +0.000 A 
ATOM     12  C   UNL     1       1.855   7.769  20.171  0.00  0.00    +0.000 A 
ENDBRANCH   5   7
BRANCH   5  13
ATOM     13  C   UNL     1       2.355   4.925  18.993  0.00  0.00    +0.000 A 
ATOM     14  C   UNL     1       2.126   4.468  20.317  0.00  0.00    +0.000 A 
ATOM     15  C   UNL     1       1.342   3.338  20.565  0.00  0.00    +0.000 A 
ATOM     16  C   UNL     1       0.768   2.638  19.508  0.00  0.00    +0.000 A 
ATOM     17  C   UNL     1       0.980   3.065  18.197  0.00  0.00    +0.000 A 
ATOM     18  C   UNL     1       1.767   4.197  17.938  0.00  0.00    +0.000 A 
ENDBRANCH   5  13
BRANCH   1  19
ATOM     19  C   UNL     1       5.210   5.587  15.585  0.00  0.00    +0.000 C 
BRANCH  19  21
ATOM     20  C   UNL     1       5.979   3.226  15.589  0.00  0.00    +0.000 C 
ATOM     21  N   UNL     1       5.963   4.517  14.856  0.00  0.00    +0.000 N 
ATOM     22  C   UNL     1       7.354   4.939  14.578  0.00  0.00    +0.000 C 
ATOM     23  C   UNL     1       5.270   4.280  13.565  0.00  0.00    +0.000 C 
ENDBRANCH  19  21
ENDBRANCH   1  19
TORSDOF 4
ENDMDL
