MODEL 1
REMARK VINA RESULT:      -7.9      0.000      0.000
REMARK  Name = 
REMARK  7 active torsions:
REMARK  status: ('A' for Active; 'I' for Inactive)
REMARK    1  A    between atoms: C_1  and  C_2
REMARK    2  A    between atoms: C_2  and  C_3
REMARK    3  A    between atoms: C_2  and  C_4
REMARK    4  A    between atoms: C_4  and  C_5
REMARK    5  A    between atoms: C_10  and  C_12
REMARK    6  A    between atoms: C_12  and  S_13
REMARK    7  A    between atoms: S_13  and  C_14
REMARK                            x       y       z     vdW  Elec       q    Type
REMARK                         _______ _______ _______ _____ _____    ______ ____
ROOT
ATOM      1  C   UNL     1       6.846   4.350  13.450  0.00  0.00    +0.000 A 
ATOM      2  N   UNL     1       7.743   5.249  13.796  0.00  0.00    +0.000 NA
ATOM      3  N   UNL     1       7.583   5.662  15.108  0.00  0.00    +0.000 NA
ATOM      4  C   UNL     1       6.553   5.086  15.688  0.00  0.00    +0.000 A 
ATOM      5  N   UNL     1       6.177   5.364  16.980  0.00  0.00    +0.000 N 
ATOM      6  C   UNL     1       4.974   5.029  17.565  0.00  0.00    +0.000 C 
ATOM      7  O   UNL     1       4.066   4.384  17.041  0.00  0.00    +0.000 OA
ATOM      8  S   UNL     1       5.767   3.926  14.716  0.00  0.00    +0.000 S 
ATOM      9  H   UNL     1       6.771   6.042  17.445  0.00  0.00    +0.000 HD
ENDROOT
BRANCH   1  10
ATOM     10  C   UNL     1       6.732   3.728  12.092  0.00  0.00    +0.000 C 
BRANCH  10  12
ATOM     11  C   UNL     1       4.347   3.310  11.297  0.00  0.00    +0.000 C 
ATOM     12  C   UNL     1       5.572   2.716  11.996  0.00  0.00    +0.000 C 
ATOM     13  C   UNL     1       6.023   1.458  11.248  0.00  0.00    +0.000 C 
ENDBRANCH  10  12
ENDBRANCH   1  10
BRANCH   6  14
ATOM     14  C   UNL     1       4.838   5.505  19.005  0.00  0.00    +0.000 C 
BRANCH  14  15
ATOM     15  S   UNL     1       3.172   6.193  19.288  0.00  0.00    +0.000 S 
BRANCH  15  16
ATOM     16  C   UNL     1       2.361   4.777  20.012  0.00  0.00    +0.000 A 
ATOM     17  C   UNL     1       1.448   4.061  19.242  0.00  0.00    +0.000 A 
ATOM     18  C   UNL     1       0.800   2.965  19.810  0.00  0.00    +0.000 A 
ATOM     19  C   UNL     1       1.089   2.614  21.122  0.00  0.00    +0.000 A 
ATOM     20  C   UNL     1       2.014   3.379  21.814  0.00  0.00    +0.000 A 
ATOM     21  N   UNL     1       2.647   4.452  21.291  0.00  0.00    +0.000 NA
ENDBRANCH  15  16
ENDBRANCH  14  15
ENDBRANCH   6  14
TORSDOF 5
ENDMDL
MODEL 2
REMARK VINA RESULT:      -7.6      0.758      1.140
REMARK  Name = 
REMARK  7 active torsions:
REMARK  status: ('A' for Active; 'I' for Inactive)
REMARK    1  A    between atoms: C_1  and  C_2
REMARK    2  A    between atoms: C_2  and  C_3
REMARK    3  A    between atoms: C_2  and  C_4
REMARK    4  A    between atoms: C_4  and  C_5
REMARK    5  A    between atoms: C_10  and  C_12
REMARK    6  A    between atoms: C_12  and  S_13
REMARK    7  A    between atoms: S_13  and  C_14
REMARK                            x       y       z     vdW  Elec       q    Type
REMARK                         _______ _______ _______ _____ _____    ______ ____
ROOT
ATOM      1  C   UNL     1       6.841   4.668  13.518  0.00  0.00    +0.000 A 
ATOM      2  N   UNL     1       7.828   5.400  13.990  0.00  0.00    +0.000 NA
ATOM      3  N   UNL     1       7.616   5.765  15.308  0.00  0.00    +0.000 NA
ATOM      4  C   UNL     1       6.465   5.327  15.768  0.00  0.00    +0.000 A 
ATOM      5  N   UNL     1       6.022   5.594  17.040  0.00  0.00    +0.000 N 
ATOM      6  C   UNL     1       4.736   5.418  17.506  0.00  0.00    +0.000 C 
ATOM      7  O   UNL     1       3.792   4.948  16.872  0.00  0.00    +0.000 OA
ATOM      8  S   UNL     1       5.603   4.352  14.665  0.00  0.00    +0.000 S 
ATOM      9  H   UNL     1       6.667   6.148  17.593  0.00  0.00    +0.000 HD
ENDROOT
BRANCH   1  10
ATOM     10  C   UNL     1       6.755   4.140  12.119  0.00  0.00    +0.000 C 
BRANCH  10  12
ATOM     11  C   UNL     1       4.581   3.044  11.365  0.00  0.00    +0.000 C 
ATOM     12  C   UNL     1       5.946   2.831  12.024  0.00  0.00    +0.000 C 
ATOM     13  C   UNL     1       6.730   1.775  11.238  0.00  0.00    +0.000 C 
ENDBRANCH  10  12
ENDBRANCH   1  10
BRANCH   6  14
ATOM     14  C   UNL     1       4.547   5.837  18.958  0.00  0.00    +0.000 C 
BRANCH  14  15
ATOM     15  S   UNL     1       2.815   6.331  19.252  0.00  0.00    +0.000 S 
BRANCH  15  16
ATOM     16  C   UNL     1       2.140   4.790  19.848  0.00  0.00    +0.000 A 
ATOM     17  C   UNL     1       2.401   4.407  21.161  0.00  0.00    +0.000 A 
ATOM     18  C   UNL     1       1.890   3.195  21.624  0.00  0.00    +0.000 A 
ATOM     19  C   UNL     1       1.129   2.412  20.768  0.00  0.00    +0.000 A 
ATOM     20  C   UNL     1       0.914   2.872  19.479  0.00  0.00    +0.000 A 
ATOM     21  N   UNL     1       1.407   4.035  19.002  0.00  0.00    +0.000 NA
ENDBRANCH  15  16
ENDBRANCH  14  15
ENDBRANCH   6  14
TORSDOF 5
ENDMDL
MODEL 3
REMARK VINA RESULT:      -7.3      1.075      1.262
REMARK  Name = 
REMARK  7 active torsions:
REMARK  status: ('A' for Active; 'I' for Inactive)
REMARK    1  A    between atoms: C_1  and  C_2
REMARK    2  A    between atoms: C_2  and  C_3
REMARK    3  A    between atoms: C_2  and  C_4
REMARK    4  A    between atoms: C_4  and  C_5
REMARK    5  A    between atoms: C_10  and  C_12
REMARK    6  A    between atoms: C_12  and  S_13
REMARK    7  A    between atoms: S_13  and  C_14
REMARK                            x       y       z     vdW  Elec       q    Type
REMARK                         _______ _______ _______ _____ _____    ______ ____
ROOT
ATOM      1  C   UNL     1       6.821   4.442  13.359  0.00  0.00    +0.000 A 
ATOM      2  N   UNL     1       7.812   5.210  13.760  0.00  0.00    +0.000 NA
ATOM      3  N   UNL     1       7.649   5.621  15.072  0.00  0.00    +0.000 NA
ATOM      4  C   UNL     1       6.529   5.178  15.597  0.00  0.00    +0.000 A 
ATOM      5  N   UNL     1       6.135   5.485  16.877  0.00  0.00    +0.000 N 
ATOM      6  C   UNL     1       4.874   5.302  17.405  0.00  0.00    +0.000 C 
ATOM      7  O   UNL     1       3.914   4.790  16.831  0.00  0.00    +0.000 OA
ATOM      8  S   UNL     1       5.641   4.146  14.570  0.00  0.00    +0.000 S 
ATOM      9  H   UNL     1       6.791   6.072  17.380  0.00  0.00    +0.000 HD
ENDROOT
BRANCH   1  10
ATOM     10  C   UNL     1       6.686   3.859  11.985  0.00  0.00    +0.000 C 
BRANCH  10  12
ATOM     11  C   UNL     1       4.341   3.191  11.246  0.00  0.00    +0.000 C 
ATOM     12  C   UNL     1       5.637   2.732  11.917  0.00  0.00    +0.000 C 
ATOM     13  C   UNL     1       6.201   1.525  11.159  0.00  0.00    +0.000 C 
ENDBRANCH  10  12
ENDBRANCH   1  10
BRANCH   6  14
ATOM     14  C   UNL     1       4.739   5.772  18.847  0.00  0.00    +0.000 C 
BRANCH  14  15
ATOM     15  S   UNL     1       4.843   4.350  19.986  0.00  0.00    +0.000 S 
BRANCH  15  16
ATOM     16  C   UNL     1       3.189   3.695  19.833  0.00  0.00    +0.000 A 
ATOM     17  C   UNL     1       2.126   4.434  20.343  0.00  0.00    +0.000 A 
ATOM     18  C   UNL     1       0.835   3.918  20.240  0.00  0.00    +0.000 A 
ATOM     19  C   UNL     1       0.646   2.688  19.625  0.00  0.00    +0.000 A 
ATOM     20  C   UNL     1       1.760   2.022  19.141  0.00  0.00    +0.000 A 
ATOM     21  N   UNL     1       3.023   2.495  19.238  0.00  0.00    +0.000 NA
ENDBRANCH  15  16
ENDBRANCH  14  15
ENDBRANCH   6  14
TORSDOF 5
ENDMDL
MODEL 4
REMARK VINA RESULT:      -7.1      0.959      1.056
REMARK  Name = 
REMARK  7 active torsions:
REMARK  status: ('A' for Active; 'I' for Inactive)
REMARK    1  A    between atoms: C_1  and  C_2
REMARK    2  A    between atoms: C_2  and  C_3
REMARK    3  A    between atoms: C_2  and  C_4
REMARK    4  A    between atoms: C_4  and  C_5
REMARK    5  A    between atoms: C_10  and  C_12
REMARK    6  A    between atoms: C_12  and  S_13
REMARK    7  A    between atoms: S_13  and  C_14
REMARK                            x       y       z     vdW  Elec       q    Type
REMARK                         _______ _______ _______ _____ _____    ______ ____
ROOT
ATOM      1  C   UNL     1       6.848   4.447  13.314  0.00  0.00    +0.000 A 
ATOM      2  N   UNL     1       7.829   5.231  13.710  0.00  0.00    +0.000 NA
ATOM      3  N   UNL     1       7.671   5.632  15.025  0.00  0.00    +0.000 NA
ATOM      4  C   UNL     1       6.563   5.166  15.558  0.00  0.00    +0.000 A 
ATOM      5  N   UNL     1       6.176   5.459  16.843  0.00  0.00    +0.000 N 
ATOM      6  C   UNL     1       4.923   5.251  17.382  0.00  0.00    +0.000 C 
ATOM      7  O   UNL     1       3.967   4.725  16.813  0.00  0.00    +0.000 OA
ATOM      8  S   UNL     1       5.685   4.124  14.533  0.00  0.00    +0.000 S 
ATOM      9  H   UNL     1       6.826   6.055  17.343  0.00  0.00    +0.000 HD
ENDROOT
BRANCH   1  10
ATOM     10  C   UNL     1       6.711   3.869  11.938  0.00  0.00    +0.000 C 
BRANCH  10  12
ATOM     11  C   UNL     1       4.374   3.099  11.274  0.00  0.00    +0.000 C 
ATOM     12  C   UNL     1       5.718   2.691  11.882  0.00  0.00    +0.000 C 
ATOM     13  C   UNL     1       6.311   1.533  11.074  0.00  0.00    +0.000 C 
ENDBRANCH  10  12
ENDBRANCH   1  10
BRANCH   6  14
ATOM     14  C   UNL     1       4.793   5.711  18.827  0.00  0.00    +0.000 C 
BRANCH  14  15
ATOM     15  S   UNL     1       4.893   4.281  19.956  0.00  0.00    +0.000 S 
BRANCH  15  16
ATOM     16  C   UNL     1       3.197   3.725  19.919  0.00  0.00    +0.000 A 
ATOM     17  C   UNL     1       2.905   2.500  19.325  0.00  0.00    +0.000 A 
ATOM     18  C   UNL     1       1.580   2.071  19.279  0.00  0.00    +0.000 A 
ATOM     19  C   UNL     1       0.591   2.872  19.833  0.00  0.00    +0.000 A 
ATOM     20  C   UNL     1       0.970   4.074  20.408  0.00  0.00    +0.000 A 
ATOM     21  N   UNL     1       2.245   4.518  20.456  0.00  0.00    +0.000 NA
ENDBRANCH  15  16
ENDBRANCH  14  15
ENDBRANCH   6  14
TORSDOF 5
ENDMDL
MODEL 5
REMARK VINA RESULT:      -6.7      1.912      2.640
REMARK  Name = 
REMARK  7 active torsions:
REMARK  status: ('A' for Active; 'I' for Inactive)
REMARK    1  A    between atoms: C_1  and  C_2
REMARK    2  A    between atoms: C_2  and  C_3
REMARK    3  A    between atoms: C_2  and  C_4
REMARK    4  A    between atoms: C_4  and  C_5
REMARK    5  A    between atoms: C_10  and  C_12
REMARK    6  A    between atoms: C_12  and  S_13
REMARK    7  A    between atoms: S_13  and  C_14
REMARK                            x       y       z     vdW  Elec       q    Type
REMARK                         _______ _______ _______ _____ _____    ______ ____
ROOT
ATOM      1  C   UNL     1       6.693   4.603  14.507  0.00  0.00    +0.000 A 
ATOM      2  N   UNL     1       7.217   5.573  15.228  0.00  0.00    +0.000 NA
ATOM      3  N   UNL     1       6.843   5.488  16.558  0.00  0.00    +0.000 NA
ATOM      4  C   UNL     1       6.025   4.484  16.782  0.00  0.00    +0.000 A 
ATOM      5  N   UNL     1       5.493   4.221  18.021  0.00  0.00    +0.000 N 
ATOM      6  C   UNL     1       4.432   3.381  18.288  0.00  0.00    +0.000 C 
ATOM      7  O   UNL     1       3.826   2.694  17.467  0.00  0.00    +0.000 OA
ATOM      8  S   UNL     1       5.733   3.508  15.414  0.00  0.00    +0.000 S 
ATOM      9  H   UNL     1       5.797   4.863  18.744  0.00  0.00    +0.000 HD
ENDROOT
BRANCH   1  10
ATOM     10  C   UNL     1       6.881   4.431  13.031  0.00  0.00    +0.000 C 
BRANCH  10  12
ATOM     11  C   UNL     1       4.779   3.620  11.841  0.00  0.00    +0.000 C 
ATOM     12  C   UNL     1       6.115   3.217  12.470  0.00  0.00    +0.000 C 
ATOM     13  C   UNL     1       6.966   2.484  11.428  0.00  0.00    +0.000 C 
ENDBRANCH  10  12
ENDBRANCH   1  10
BRANCH   6  14
ATOM     14  C   UNL     1       4.052   3.322  19.761  0.00  0.00    +0.000 C 
BRANCH  14  15
ATOM     15  S   UNL     1       2.265   3.630  19.964  0.00  0.00    +0.000 S 
BRANCH  15  16
ATOM     16  C   UNL     1       2.205   5.387  19.651  0.00  0.00    +0.000 A 
ATOM     17  C   UNL     1       1.791   6.236  20.674  0.00  0.00    +0.000 A 
ATOM     18  C   UNL     1       1.727   7.607  20.428  0.00  0.00    +0.000 A 
ATOM     19  C   UNL     1       2.086   8.086  19.176  0.00  0.00    +0.000 A 
ATOM     20  C   UNL     1       2.491   7.171  18.218  0.00  0.00    +0.000 A 
ATOM     21  N   UNL     1       2.551   5.837  18.426  0.00  0.00    +0.000 NA
ENDBRANCH  15  16
ENDBRANCH  14  15
ENDBRANCH   6  14
TORSDOF 5
ENDMDL
MODEL 6
REMARK VINA RESULT:      -6.6      4.311      8.181
REMARK  Name = 
REMARK  7 active torsions:
REMARK  status: ('A' for Active; 'I' for Inactive)
REMARK    1  A    between atoms: C_1  and  C_2
REMARK    2  A    between atoms: C_2  and  C_3
REMARK    3  A    between atoms: C_2  and  C_4
REMARK    4  A    between atoms: C_4  and  C_5
REMARK    5  A    between atoms: C_10  and  C_12
REMARK    6  A    between atoms: C_12  and  S_13
REMARK    7  A    between atoms: S_13  and  C_14
REMARK                            x       y       z     vdW  Elec       q    Type
REMARK                         _______ _______ _______ _____ _____    ______ ____
ROOT
ATOM      1  C   UNL     1       0.767   9.671  19.359  0.00  0.00    +0.000 A 
ATOM      2  N   UNL     1       0.775   9.492  20.664  0.00  0.00    +0.000 NA
ATOM      3  N   UNL     1       1.449   8.339  21.024  0.00  0.00    +0.000 NA
ATOM      4  C   UNL     1       1.892   7.674  19.980  0.00  0.00    +0.000 A 
ATOM      5  N   UNL     1       2.563   6.480  20.088  0.00  0.00    +0.000 N 
ATOM      6  C   UNL     1       2.812   5.592  19.062  0.00  0.00    +0.000 C 
ATOM      7  O   UNL     1       2.518   5.751  17.878  0.00  0.00    +0.000 OA
ATOM      8  S   UNL     1       1.610   8.455  18.490  0.00  0.00    +0.000 S 
ATOM      9  H   UNL     1       2.694   6.167  21.043  0.00  0.00    +0.000 HD
ENDROOT
BRANCH   1  10
ATOM     10  C   UNL     1       0.095  10.807  18.650  0.00  0.00    +0.000 C 
BRANCH  10  12
ATOM     11  C   UNL     1      -2.110  11.981  19.153  0.00  0.00    +0.000 C 
ATOM     12  C   UNL     1      -1.442  10.693  18.666  0.00  0.00    +0.000 C 
ATOM     13  C   UNL     1      -1.965  10.347  17.268  0.00  0.00    +0.000 C 
ENDBRANCH  10  12
ENDBRANCH   1  10
BRANCH   6  14
ATOM     14  C   UNL     1       3.551   4.337  19.504  0.00  0.00    +0.000 C 
BRANCH  14  15
ATOM     15  S   UNL     1       4.649   3.749  18.171  0.00  0.00    +0.000 S 
BRANCH  15  16
ATOM     16  C   UNL     1       5.933   4.988  18.245  0.00  0.00    +0.000 A 
ATOM     17  C   UNL     1       5.957   5.987  17.275  0.00  0.00    +0.000 A 
ATOM     18  C   UNL     1       6.969   6.945  17.320  0.00  0.00    +0.000 A 
ATOM     19  C   UNL     1       7.915   6.882  18.333  0.00  0.00    +0.000 A 
ATOM     20  C   UNL     1       7.814   5.857  19.259  0.00  0.00    +0.000 A 
ATOM     21  N   UNL     1       6.851   4.909  19.231  0.00  0.00    +0.000 NA
ENDBRANCH  15  16
ENDBRANCH  14  15
ENDBRANCH   6  14
TORSDOF 5
ENDMDL
MODEL 7
REMARK VINA RESULT:      -6.5      5.095      8.024
REMARK  Name = 
REMARK  7 active torsions:
REMARK  status: ('A' for Active; 'I' for Inactive)
REMARK    1  A    between atoms: C_1  and  C_2
REMARK    2  A    between atoms: C_2  and  C_3
REMARK    3  A    between atoms: C_2  and  C_4
REMARK    4  A    between atoms: C_4  and  C_5
REMARK    5  A    between atoms: C_10  and  C_12
REMARK    6  A    between atoms: C_12  and  S_13
REMARK    7  A    between atoms: S_13  and  C_14
REMARK                            x       y       z     vdW  Elec       q    Type
REMARK                         _______ _______ _______ _____ _____    ______ ____
ROOT
ATOM      1  C   UNL     1       4.264   3.833  17.979  0.00  0.00    +0.000 A 
ATOM      2  N   UNL     1       4.936   3.378  19.016  0.00  0.00    +0.000 NA
ATOM      3  N   UNL     1       5.955   4.236  19.389  0.00  0.00    +0.000 NA
ATOM      4  C   UNL     1       6.038   5.284  18.600  0.00  0.00    +0.000 A 
ATOM      5  N   UNL     1       6.995   6.257  18.754  0.00  0.00    +0.000 N 
ATOM      6  C   UNL     1       7.326   7.225  17.828  0.00  0.00    +0.000 C 
ATOM      7  O   UNL     1       6.783   7.402  16.738  0.00  0.00    +0.000 OA
ATOM      8  S   UNL     1       4.817   5.355  17.411  0.00  0.00    +0.000 S 
ATOM      9  H   UNL     1       7.621   6.098  19.535  0.00  0.00    +0.000 HD
ENDROOT
BRANCH   1  10
ATOM     10  C   UNL     1       3.122   3.126  17.316  0.00  0.00    +0.000 C 
BRANCH  10  12
ATOM     11  C   UNL     1       1.577   2.101  19.064  0.00  0.00    +0.000 C 
ATOM     12  C   UNL     1       1.800   3.265  18.096  0.00  0.00    +0.000 C 
ATOM     13  C   UNL     1       1.779   4.584  18.876  0.00  0.00    +0.000 C 
ENDBRANCH  10  12
ENDBRANCH   1  10
BRANCH   6  14
ATOM     14  C   UNL     1       8.454   8.143  18.277  0.00  0.00    +0.000 C 
BRANCH  14  15
ATOM     15  S   UNL     1       8.080   9.871  17.827  0.00  0.00    +0.000 S 
BRANCH  15  16
ATOM     16  C   UNL     1       9.420  10.714  18.652  0.00  0.00    +0.000 A 
ATOM     17  C   UNL     1      10.555  11.048  17.918  0.00  0.00    +0.000 A 
ATOM     18  C   UNL     1      11.610  11.692  18.564  0.00  0.00    +0.000 A 
ATOM     19  C   UNL     1      11.495  11.987  19.915  0.00  0.00    +0.000 A 
ATOM     20  C   UNL     1      10.329  11.623  20.567  0.00  0.00    +0.000 A 
ATOM     21  N   UNL     1       9.297  10.988  19.968  0.00  0.00    +0.000 NA
ENDBRANCH  15  16
ENDBRANCH  14  15
ENDBRANCH   6  14
TORSDOF 5
ENDMDL
MODEL 8
REMARK VINA RESULT:      -6.5      2.085      7.631
REMARK  Name = 
REMARK  7 active torsions:
REMARK  status: ('A' for Active; 'I' for Inactive)
REMARK    1  A    between atoms: C_1  and  C_2
REMARK    2  A    between atoms: C_2  and  C_3
REMARK    3  A    between atoms: C_2  and  C_4
REMARK    4  A    between atoms: C_4  and  C_5
REMARK    5  A    between atoms: C_10  and  C_12
REMARK    6  A    between atoms: C_12  and  S_13
REMARK    7  A    between atoms: S_13  and  C_14
REMARK                            x       y       z     vdW  Elec       q    Type
REMARK                         _______ _______ _______ _____ _____    ______ ____
ROOT
ATOM      1  C   UNL     1       2.046   2.685  18.718  0.00  0.00    +0.000 A 
ATOM      2  N   UNL     1       1.729   2.990  17.477  0.00  0.00    +0.000 NA
ATOM      3  N   UNL     1       2.826   3.426  16.755  0.00  0.00    +0.000 NA
ATOM      4  C   UNL     1       3.918   3.468  17.485  0.00  0.00    +0.000 A 
ATOM      5  N   UNL     1       5.126   3.901  16.993  0.00  0.00    +0.000 N 
ATOM      6  C   UNL     1       6.234   4.237  17.742  0.00  0.00    +0.000 C 
ATOM      7  O   UNL     1       6.336   4.156  18.965  0.00  0.00    +0.000 OA
ATOM      8  S   UNL     1       3.713   2.883  19.074  0.00  0.00    +0.000 S 
ATOM      9  H   UNL     1       5.099   4.173  16.017  0.00  0.00    +0.000 HD
ENDROOT
BRANCH   1  10
ATOM     10  C   UNL     1       1.080   2.212  19.761  0.00  0.00    +0.000 C 
BRANCH  10  12
ATOM     11  C   UNL     1       1.979   2.883  22.049  0.00  0.00    +0.000 C 
ATOM     12  C   UNL     1       0.960   3.188  20.948  0.00  0.00    +0.000 C 
ATOM     13  C   UNL     1       1.145   4.633  20.472  0.00  0.00    +0.000 C 
ENDBRANCH  10  12
ENDBRANCH   1  10
BRANCH   6  14
ATOM     14  C   UNL     1       7.415   4.716  16.909  0.00  0.00    +0.000 C 
BRANCH  14  15
ATOM     15  S   UNL     1       6.872   5.985  15.715  0.00  0.00    +0.000 S 
BRANCH  15  16
ATOM     16  C   UNL     1       6.729   4.993  14.237  0.00  0.00    +0.000 A 
ATOM     17  C   UNL     1       7.648   5.186  13.209  0.00  0.00    +0.000 A 
ATOM     18  C   UNL     1       7.529   4.426  12.047  0.00  0.00    +0.000 A 
ATOM     19  C   UNL     1       6.504   3.494  11.951  0.00  0.00    +0.000 A 
ATOM     20  C   UNL     1       5.637   3.364  13.024  0.00  0.00    +0.000 A 
ATOM     21  N   UNL     1       5.723   4.096  14.156  0.00  0.00    +0.000 NA
ENDBRANCH  15  16
ENDBRANCH  14  15
ENDBRANCH   6  14
TORSDOF 5
ENDMDL
MODEL 9
REMARK VINA RESULT:      -6.4      1.809      2.091
REMARK  Name = 
REMARK  7 active torsions:
REMARK  status: ('A' for Active; 'I' for Inactive)
REMARK    1  A    between atoms: C_1  and  C_2
REMARK    2  A    between atoms: C_2  and  C_3
REMARK    3  A    between atoms: C_2  and  C_4
REMARK    4  A    between atoms: C_4  and  C_5
REMARK    5  A    between atoms: C_10  and  C_12
REMARK    6  A    between atoms: C_12  and  S_13
REMARK    7  A    between atoms: S_13  and  C_14
REMARK                            x       y       z     vdW  Elec       q    Type
REMARK                         _______ _______ _______ _____ _____    ______ ____
ROOT
ATOM      1  C   UNL     1       6.718   4.748  14.952  0.00  0.00    +0.000 A 
ATOM      2  N   UNL     1       7.594   4.460  15.892  0.00  0.00    +0.000 NA
ATOM      3  N   UNL     1       7.079   4.666  17.160  0.00  0.00    +0.000 NA
ATOM      4  C   UNL     1       5.851   5.134  17.129  0.00  0.00    +0.000 A 
ATOM      5  N   UNL     1       5.146   5.447  18.265  0.00  0.00    +0.000 N 
ATOM      6  C   UNL     1       3.984   6.189  18.322  0.00  0.00    +0.000 C 
ATOM      7  O   UNL     1       3.368   6.647  17.360  0.00  0.00    +0.000 OA
ATOM      8  S   UNL     1       5.196   5.260  15.559  0.00  0.00    +0.000 S 
ATOM      9  H   UNL     1       5.653   5.274  19.125  0.00  0.00    +0.000 HD
ENDROOT
BRANCH   1  10
ATOM     10  C   UNL     1       6.976   4.659  13.479  0.00  0.00    +0.000 C 
BRANCH  10  12
ATOM     11  C   UNL     1       4.905   3.726  12.323  0.00  0.00    +0.000 C 
ATOM     12  C   UNL     1       6.317   3.425  12.832  0.00  0.00    +0.000 C 
ATOM     13  C   UNL     1       7.176   2.909  11.672  0.00  0.00    +0.000 C 
ENDBRANCH  10  12
ENDBRANCH   1  10
BRANCH   6  14
ATOM     14  C   UNL     1       3.456   6.395  19.735  0.00  0.00    +0.000 C 
BRANCH  14  15
ATOM     15  S   UNL     1       2.010   5.322  20.031  0.00  0.00    +0.000 S 
BRANCH  15  16
ATOM     16  C   UNL     1       2.621   3.776  19.380  0.00  0.00    +0.000 A 
ATOM     17  C   UNL     1       2.010   3.236  18.252  0.00  0.00    +0.000 A 
ATOM     18  C   UNL     1       2.473   2.019  17.751  0.00  0.00    +0.000 A 
ATOM     19  C   UNL     1       3.534   1.388  18.386  0.00  0.00    +0.000 A 
ATOM     20  C   UNL     1       4.086   1.998  19.500  0.00  0.00    +0.000 A 
ATOM     21  N   UNL     1       3.648   3.170  20.012  0.00  0.00    +0.000 NA
ENDBRANCH  15  16
ENDBRANCH  14  15
ENDBRANCH   6  14
TORSDOF 5
ENDMDL
