MODEL 1
REMARK VINA RESULT:      -9.0      0.000      0.000
REMARK  Name = 
REMARK  8 active torsions:
REMARK  status: ('A' for Active; 'I' for Inactive)
REMARK    1  A    between atoms: C_1  and  O_2
REMARK    2  A    between atoms: O_2  and  C_3
REMARK    3  A    between atoms: C_7  and  C_8
REMARK    4  A    between atoms: N_10  and  C_11
REMARK    5  A    between atoms: C_15  and  C_16
REMARK    6  A    between atoms: C_16  and  C_18
REMARK    7  A    between atoms: C_22  and  C_23
REMARK    8  A    between atoms: C_24  and  C_25
REMARK                            x       y       z     vdW  Elec       q    Type
REMARK                         _______ _______ _______ _____ _____    ______ ____
ROOT
ATOM      1  C   UNL     1       1.257   8.867  20.487  0.00  0.00    +0.000 C 
ATOM      2  O   UNL     1       1.116   8.739  21.703  0.00  0.00    +0.000 OA
ENDROOT
BRANCH   1   3
ATOM      3  C   UNL     1       1.960   7.790  19.743  0.00  0.00    +0.000 A 
ATOM      4  C   UNL     1       2.139   7.979  18.367  0.00  0.00    +0.000 A 
ATOM      5  C   UNL     1       2.792   7.024  17.580  0.00  0.00    +0.000 A 
ATOM      6  C   UNL     1       3.275   5.853  18.193  0.00  0.00    +0.000 A 
ATOM      7  C   UNL     1       4.013   4.703  17.776  0.00  0.00    +0.000 A 
ATOM      8  N   UNL     1       4.192   3.851  18.799  0.00  0.00    +0.000 NA
ATOM      9  N   UNL     1       3.589   4.444  19.838  0.00  0.00    +0.000 N 
ATOM     10  C   UNL     1       3.045   5.667  19.553  0.00  0.00    +0.000 A 
ATOM     11  C   UNL     1       2.381   6.602  20.362  0.00  0.00    +0.000 A 
ATOM     12  H   UNL     1       3.602   3.966  20.731  0.00  0.00    +0.000 HD
BRANCH   7  13
ATOM     13  C   UNL     1       4.537   4.491  16.457  0.00  0.00    +0.000 C 
ATOM     14  C   UNL     1       5.779   4.839  16.077  0.00  0.00    +0.000 C 
BRANCH  14  15
ATOM     15  C   UNL     1       6.327   4.696  14.723  0.00  0.00    +0.000 A 
ATOM     16  C   UNL     1       5.689   3.858  13.813  0.00  0.00    +0.000 A 
ATOM     17  C   UNL     1       6.228   3.707  12.537  0.00  0.00    +0.000 A 
ATOM     18  C   UNL     1       7.387   4.397  12.208  0.00  0.00    +0.000 A 
ATOM     19  C   UNL     1       7.959   5.212  13.170  0.00  0.00    +0.000 A 
ATOM     20  N   UNL     1       7.459   5.375  14.418  0.00  0.00    +0.000 NA
ENDBRANCH  14  15
ENDBRANCH   7  13
ENDBRANCH   1   3
BRANCH   1  25
ATOM     21  C   UNL     1      -1.088  11.539  19.095  0.00  0.00    +0.000 A 
ATOM     22  C   UNL     1      -0.134  12.414  18.563  0.00  0.00    +0.000 A 
ATOM     23  C   UNL     1       1.229  12.145  18.669  0.00  0.00    +0.000 A 
ATOM     24  C   UNL     1       1.655  10.983  19.299  0.00  0.00    +0.000 A 
ATOM     25  C   UNL     1       0.720  10.091  19.838  0.00  0.00    +0.000 A 
ATOM     26  C   UNL     1      -0.652  10.393  19.776  0.00  0.00    +0.000 A 
BRANCH  21  29
ATOM     27  C   UNL     1      -3.243  11.347  17.877  0.00  0.00    +0.000 C 
ATOM     28  O   UNL     1      -2.835  10.712  16.908  0.00  0.00    +0.000 OA
ATOM     29  N   UNL     1      -2.482  11.761  18.961  0.00  0.00    +0.000 N 
ATOM     30  H   UNL     1      -2.977  12.079  19.784  0.00  0.00    +0.000 HD
BRANCH  27  35
ATOM     31  C   UNL     1      -6.706  12.778  17.238  0.00  0.00    +0.000 A 
ATOM     32  C   UNL     1      -7.459  11.966  18.094  0.00  0.00    +0.000 A 
ATOM     33  C   UNL     1      -6.849  10.979  18.863  0.00  0.00    +0.000 A 
ATOM     34  C   UNL     1      -5.471  10.806  18.784  0.00  0.00    +0.000 A 
ATOM     35  C   UNL     1      -4.703  11.620  17.937  0.00  0.00    +0.000 A 
ATOM     36  C   UNL     1      -5.322  12.600  17.150  0.00  0.00    +0.000 A 
BRANCH  31  38
ATOM     37  C   UNL     1      -6.999  15.046  16.567  0.00  0.00    +0.000 C 
ATOM     38  O   UNL     1      -7.447  13.697  16.548  0.00  0.00    +0.000 OA
ENDBRANCH  31  38
ENDBRANCH  27  35
ENDBRANCH  21  29
ENDBRANCH   1  25
TORSDOF 7
ENDMDL
MODEL 2
REMARK VINA RESULT:      -8.6      1.169      1.707
REMARK  Name = 
REMARK  8 active torsions:
REMARK  status: ('A' for Active; 'I' for Inactive)
REMARK    1  A    between atoms: C_1  and  O_2
REMARK    2  A    between atoms: O_2  and  C_3
REMARK    3  A    between atoms: C_7  and  C_8
REMARK    4  A    between atoms: N_10  and  C_11
REMARK    5  A    between atoms: C_15  and  C_16
REMARK    6  A    between atoms: C_16  and  C_18
REMARK    7  A    between atoms: C_22  and  C_23
REMARK    8  A    between atoms: C_24  and  C_25
REMARK                            x       y       z     vdW  Elec       q    Type
REMARK                         _______ _______ _______ _____ _____    ______ ____
ROOT
ATOM      1  C   UNL     1       1.139   9.122  20.552  0.00  0.00    +0.000 C 
ATOM      2  O   UNL     1       1.050   9.062  21.779  0.00  0.00    +0.000 OA
ENDROOT
BRANCH   1   3
ATOM      3  C   UNL     1       1.767   7.981  19.836  0.00  0.00    +0.000 A 
ATOM      4  C   UNL     1       2.019   8.148  18.469  0.00  0.00    +0.000 A 
ATOM      5  C   UNL     1       2.610   7.133  17.709  0.00  0.00    +0.000 A 
ATOM      6  C   UNL     1       2.954   5.923  18.339  0.00  0.00    +0.000 A 
ATOM      7  C   UNL     1       3.595   4.708  17.951  0.00  0.00    +0.000 A 
ATOM      8  N   UNL     1       3.650   3.845  18.980  0.00  0.00    +0.000 NA
ATOM      9  N   UNL     1       3.063   4.495  19.993  0.00  0.00    +0.000 N 
ATOM     10  C   UNL     1       2.651   5.763  19.688  0.00  0.00    +0.000 A 
ATOM     11  C   UNL     1       2.046   6.760  20.470  0.00  0.00    +0.000 A 
ATOM     12  H   UNL     1       2.994   4.020  20.886  0.00  0.00    +0.000 HD
BRANCH   7  13
ATOM     13  C   UNL     1       4.151   4.443  16.655  0.00  0.00    +0.000 C 
ATOM     14  C   UNL     1       5.397   4.787  16.287  0.00  0.00    +0.000 C 
BRANCH  14  15
ATOM     15  C   UNL     1       5.977   4.590  14.954  0.00  0.00    +0.000 A 
ATOM     16  C   UNL     1       7.173   5.225  14.628  0.00  0.00    +0.000 A 
ATOM     17  C   UNL     1       7.705   5.054  13.352  0.00  0.00    +0.000 A 
ATOM     18  C   UNL     1       7.030   4.254  12.440  0.00  0.00    +0.000 A 
ATOM     19  C   UNL     1       5.848   3.656  12.844  0.00  0.00    +0.000 A 
ATOM     20  N   UNL     1       5.306   3.807  14.075  0.00  0.00    +0.000 NA
ENDBRANCH  14  15
ENDBRANCH   7  13
ENDBRANCH   1   3
BRANCH   1  25
ATOM     21  C   UNL     1      -1.164  11.825  19.151  0.00  0.00    +0.000 A 
ATOM     22  C   UNL     1      -0.208  12.614  18.502  0.00  0.00    +0.000 A 
ATOM     23  C   UNL     1       1.144  12.280  18.534  0.00  0.00    +0.000 A 
ATOM     24  C   UNL     1       1.556  11.138  19.207  0.00  0.00    +0.000 A 
ATOM     25  C   UNL     1       0.619  10.331  19.863  0.00  0.00    +0.000 A 
ATOM     26  C   UNL     1      -0.738  10.700  19.873  0.00  0.00    +0.000 A 
BRANCH  21  29
ATOM     27  C   UNL     1      -3.440  11.529  18.201  0.00  0.00    +0.000 C 
ATOM     28  O   UNL     1      -3.166  10.674  17.364  0.00  0.00    +0.000 OA
ATOM     29  N   UNL     1      -2.552  12.112  19.096  0.00  0.00    +0.000 N 
ATOM     30  H   UNL     1      -2.943  12.634  19.869  0.00  0.00    +0.000 HD
BRANCH  27  35
ATOM     31  C   UNL     1      -6.857  12.408  19.614  0.00  0.00    +0.000 A 
ATOM     32  C   UNL     1      -7.531  12.720  18.427  0.00  0.00    +0.000 A 
ATOM     33  C   UNL     1      -6.884  12.640  17.196  0.00  0.00    +0.000 A 
ATOM     34  C   UNL     1      -5.554  12.236  17.148  0.00  0.00    +0.000 A 
ATOM     35  C   UNL     1      -4.870  11.912  18.330  0.00  0.00    +0.000 A 
ATOM     36  C   UNL     1      -5.517  12.011  19.569  0.00  0.00    +0.000 A 
BRANCH  31  38
ATOM     37  C   UNL     1      -6.952  12.556  21.990  0.00  0.00    +0.000 C 
ATOM     38  O   UNL     1      -7.624  12.537  20.738  0.00  0.00    +0.000 OA
ENDBRANCH  31  38
ENDBRANCH  27  35
ENDBRANCH  21  29
ENDBRANCH   1  25
TORSDOF 7
ENDMDL
MODEL 3
REMARK VINA RESULT:      -8.6      3.450      5.889
REMARK  Name = 
REMARK  8 active torsions:
REMARK  status: ('A' for Active; 'I' for Inactive)
REMARK    1  A    between atoms: C_1  and  O_2
REMARK    2  A    between atoms: O_2  and  C_3
REMARK    3  A    between atoms: C_7  and  C_8
REMARK    4  A    between atoms: N_10  and  C_11
REMARK    5  A    between atoms: C_15  and  C_16
REMARK    6  A    between atoms: C_16  and  C_18
REMARK    7  A    between atoms: C_22  and  C_23
REMARK    8  A    between atoms: C_24  and  C_25
REMARK                            x       y       z     vdW  Elec       q    Type
REMARK                         _______ _______ _______ _____ _____    ______ ____
ROOT
ATOM      1  C   UNL     1       1.022   8.824  20.732  0.00  0.00    +0.000 C 
ATOM      2  O   UNL     1       0.783   8.457  21.883  0.00  0.00    +0.000 OA
ENDROOT
BRANCH   1   3
ATOM      3  C   UNL     1       1.841   7.937  19.866  0.00  0.00    +0.000 A 
ATOM      4  C   UNL     1       2.057   8.357  18.547  0.00  0.00    +0.000 A 
ATOM      5  C   UNL     1       2.819   7.592  17.656  0.00  0.00    +0.000 A 
ATOM      6  C   UNL     1       3.373   6.379  18.102  0.00  0.00    +0.000 A 
ATOM      7  C   UNL     1       4.220   5.371  17.550  0.00  0.00    +0.000 A 
ATOM      8  N   UNL     1       4.430   4.382  18.436  0.00  0.00    +0.000 NA
ATOM      9  N   UNL     1       3.738   4.753  19.521  0.00  0.00    +0.000 N 
ATOM     10  C   UNL     1       3.106   5.960  19.403  0.00  0.00    +0.000 A 
ATOM     11  C   UNL     1       2.335   6.701  20.313  0.00  0.00    +0.000 A 
ATOM     12  H   UNL     1       3.757   4.140  20.328  0.00  0.00    +0.000 HD
BRANCH   7  13
ATOM     13  C   UNL     1       4.812   5.413  16.243  0.00  0.00    +0.000 C 
ATOM     14  C   UNL     1       5.625   4.460  15.756  0.00  0.00    +0.000 C 
BRANCH  14  15
ATOM     15  C   UNL     1       6.298   4.499  14.452  0.00  0.00    +0.000 A 
ATOM     16  C   UNL     1       5.855   3.663  13.430  0.00  0.00    +0.000 A 
ATOM     17  C   UNL     1       6.514   3.687  12.202  0.00  0.00    +0.000 A 
ATOM     18  C   UNL     1       7.592   4.545  12.031  0.00  0.00    +0.000 A 
ATOM     19  C   UNL     1       7.967   5.346  13.097  0.00  0.00    +0.000 A 
ATOM     20  N   UNL     1       7.348   5.341  14.301  0.00  0.00    +0.000 NA
ENDBRANCH  14  15
ENDBRANCH   7  13
ENDBRANCH   1   3
BRANCH   1  25
ATOM     21  C   UNL     1       0.559  12.553  20.057  0.00  0.00    +0.000 A 
ATOM     22  C   UNL     1      -0.676  12.508  19.402  0.00  0.00    +0.000 A 
ATOM     23  C   UNL     1      -1.328  11.297  19.176  0.00  0.00    +0.000 A 
ATOM     24  C   UNL     1      -0.754  10.112  19.621  0.00  0.00    +0.000 A 
ATOM     25  C   UNL     1       0.481  10.132  20.280  0.00  0.00    +0.000 A 
ATOM     26  C   UNL     1       1.159  11.351  20.458  0.00  0.00    +0.000 A 
BRANCH  21  29
ATOM     27  C   UNL     1       2.139  14.387  19.500  0.00  0.00    +0.000 C 
ATOM     28  O   UNL     1       2.477  13.988  18.389  0.00  0.00    +0.000 OA
ATOM     29  N   UNL     1       1.223  13.773  20.344  0.00  0.00    +0.000 N 
ATOM     30  H   UNL     1       0.874  14.313  21.125  0.00  0.00    +0.000 HD
BRANCH  27  35
ATOM     31  C   UNL     1       4.424  17.377  20.036  0.00  0.00    +0.000 A 
ATOM     32  C   UNL     1       3.567  18.199  20.777  0.00  0.00    +0.000 A 
ATOM     33  C   UNL     1       2.277  17.784  21.097  0.00  0.00    +0.000 A 
ATOM     34  C   UNL     1       1.840  16.531  20.680  0.00  0.00    +0.000 A 
ATOM     35  C   UNL     1       2.692  15.693  19.944  0.00  0.00    +0.000 A 
ATOM     36  C   UNL     1       3.983  16.120  19.608  0.00  0.00    +0.000 A 
BRANCH  31  38
ATOM     37  C   UNL     1       6.496  17.264  18.865  0.00  0.00    +0.000 C 
ATOM     38  O   UNL     1       5.654  17.924  19.801  0.00  0.00    +0.000 OA
ENDBRANCH  31  38
ENDBRANCH  27  35
ENDBRANCH  21  29
ENDBRANCH   1  25
TORSDOF 7
ENDMDL
MODEL 4
REMARK VINA RESULT:      -8.5      4.170     11.659
REMARK  Name = 
REMARK  8 active torsions:
REMARK  status: ('A' for Active; 'I' for Inactive)
REMARK    1  A    between atoms: C_1  and  O_2
REMARK    2  A    between atoms: O_2  and  C_3
REMARK    3  A    between atoms: C_7  and  C_8
REMARK    4  A    between atoms: N_10  and  C_11
REMARK    5  A    between atoms: C_15  and  C_16
REMARK    6  A    between atoms: C_16  and  C_18
REMARK    7  A    between atoms: C_22  and  C_23
REMARK    8  A    between atoms: C_24  and  C_25
REMARK                            x       y       z     vdW  Elec       q    Type
REMARK                         _______ _______ _______ _____ _____    ______ ____
ROOT
ATOM      1  C   UNL     1       3.089   5.546  19.684  0.00  0.00    +0.000 C 
ATOM      2  O   UNL     1       2.631   4.635  20.373  0.00  0.00    +0.000 OA
ENDROOT
BRANCH   1   3
ATOM      3  C   UNL     1       2.409   6.867  19.720  0.00  0.00    +0.000 A 
ATOM      4  C   UNL     1       1.763   7.219  20.912  0.00  0.00    +0.000 A 
ATOM      5  C   UNL     1       1.098   8.442  21.045  0.00  0.00    +0.000 A 
ATOM      6  C   UNL     1       1.081   9.330  19.954  0.00  0.00    +0.000 A 
ATOM      7  C   UNL     1       0.581  10.644  19.704  0.00  0.00    +0.000 A 
ATOM      8  N   UNL     1       0.831  11.021  18.439  0.00  0.00    +0.000 NA
ATOM      9  N   UNL     1       1.475   9.977  17.901  0.00  0.00    +0.000 N 
ATOM     10  C   UNL     1       1.690   8.939  18.764  0.00  0.00    +0.000 A 
ATOM     11  C   UNL     1       2.353   7.712  18.600  0.00  0.00    +0.000 A 
ATOM     12  H   UNL     1       1.765  10.047  16.932  0.00  0.00    +0.000 HD
BRANCH   7  13
ATOM     13  C   UNL     1      -0.066  11.481  20.675  0.00  0.00    +0.000 C 
ATOM     14  C   UNL     1      -1.389  11.715  20.702  0.00  0.00    +0.000 C 
BRANCH  14  15
ATOM     15  C   UNL     1      -2.076  12.613  21.638  0.00  0.00    +0.000 A 
ATOM     16  C   UNL     1      -2.546  12.108  22.848  0.00  0.00    +0.000 A 
ATOM     17  C   UNL     1      -3.219  12.960  23.721  0.00  0.00    +0.000 A 
ATOM     18  C   UNL     1      -3.403  14.288  23.362  0.00  0.00    +0.000 A 
ATOM     19  C   UNL     1      -2.903  14.711  22.142  0.00  0.00    +0.000 A 
ATOM     20  N   UNL     1      -2.248  13.906  21.272  0.00  0.00    +0.000 NA
ENDBRANCH  14  15
ENDBRANCH   7  13
ENDBRANCH   1   3
BRANCH   1  25
ATOM     21  C   UNL     1       5.403   4.515  16.829  0.00  0.00    +0.000 A 
ATOM     22  C   UNL     1       6.635   4.773  17.439  0.00  0.00    +0.000 A 
ATOM     23  C   UNL     1       6.706   5.280  18.735  0.00  0.00    +0.000 A 
ATOM     24  C   UNL     1       5.537   5.522  19.444  0.00  0.00    +0.000 A 
ATOM     25  C   UNL     1       4.291   5.270  18.856  0.00  0.00    +0.000 A 
ATOM     26  C   UNL     1       4.224   4.809  17.529  0.00  0.00    +0.000 A 
BRANCH  21  29
ATOM     27  C   UNL     1       5.928   4.463  14.401  0.00  0.00    +0.000 C 
ATOM     28  O   UNL     1       6.675   5.437  14.368  0.00  0.00    +0.000 OA
ATOM     29  N   UNL     1       5.300   3.954  15.530  0.00  0.00    +0.000 N 
ATOM     30  H   UNL     1       4.893   3.030  15.460  0.00  0.00    +0.000 HD
BRANCH  27  35
ATOM     31  C   UNL     1       4.461   2.999  11.215  0.00  0.00    +0.000 A 
ATOM     32  C   UNL     1       5.582   2.313  10.733  0.00  0.00    +0.000 A 
ATOM     33  C   UNL     1       6.785   2.325  11.435  0.00  0.00    +0.000 A 
ATOM     34  C   UNL     1       6.868   3.023  12.635  0.00  0.00    +0.000 A 
ATOM     35  C   UNL     1       5.749   3.707  13.134  0.00  0.00    +0.000 A 
ATOM     36  C   UNL     1       4.545   3.709  12.417  0.00  0.00    +0.000 A 
BRANCH  31  38
ATOM     37  C   UNL     1       2.941   4.061   9.719  0.00  0.00    +0.000 C 
ATOM     38  O   UNL     1       3.358   2.894  10.415  0.00  0.00    +0.000 OA
ENDBRANCH  31  38
ENDBRANCH  27  35
ENDBRANCH  21  29
ENDBRANCH   1  25
TORSDOF 7
ENDMDL
MODEL 5
REMARK VINA RESULT:      -8.4      4.195     11.992
REMARK  Name = 
REMARK  8 active torsions:
REMARK  status: ('A' for Active; 'I' for Inactive)
REMARK    1  A    between atoms: C_1  and  O_2
REMARK    2  A    between atoms: O_2  and  C_3
REMARK    3  A    between atoms: C_7  and  C_8
REMARK    4  A    between atoms: N_10  and  C_11
REMARK    5  A    between atoms: C_15  and  C_16
REMARK    6  A    between atoms: C_16  and  C_18
REMARK    7  A    between atoms: C_22  and  C_23
REMARK    8  A    between atoms: C_24  and  C_25
REMARK                            x       y       z     vdW  Elec       q    Type
REMARK                         _______ _______ _______ _____ _____    ______ ____
ROOT
ATOM      1  C   UNL     1       2.999   5.535  19.572  0.00  0.00    +0.000 C 
ATOM      2  O   UNL     1       2.524   4.628  20.255  0.00  0.00    +0.000 OA
ENDROOT
BRANCH   1   3
ATOM      3  C   UNL     1       2.372   6.880  19.653  0.00  0.00    +0.000 A 
ATOM      4  C   UNL     1       1.749   7.221  20.859  0.00  0.00    +0.000 A 
ATOM      5  C   UNL     1       1.134   8.466  21.034  0.00  0.00    +0.000 A 
ATOM      6  C   UNL     1       1.146   9.386  19.970  0.00  0.00    +0.000 A 
ATOM      7  C   UNL     1       0.697  10.726  19.764  0.00  0.00    +0.000 A 
ATOM      8  N   UNL     1       0.954  11.130  18.508  0.00  0.00    +0.000 NA
ATOM      9  N   UNL     1       1.552  10.078  17.934  0.00  0.00    +0.000 N 
ATOM     10  C   UNL     1       1.731   9.007  18.765  0.00  0.00    +0.000 A 
ATOM     11  C   UNL     1       2.342   7.760  18.559  0.00  0.00    +0.000 A 
ATOM     12  H   UNL     1       1.837  10.165  16.965  0.00  0.00    +0.000 HD
BRANCH   7  13
ATOM     13  C   UNL     1       0.091  11.558  20.764  0.00  0.00    +0.000 C 
ATOM     14  C   UNL     1      -1.236  11.653  20.958  0.00  0.00    +0.000 C 
BRANCH  14  15
ATOM     15  C   UNL     1      -1.893  12.539  21.926  0.00  0.00    +0.000 A 
ATOM     16  C   UNL     1      -1.117  13.248  22.840  0.00  0.00    +0.000 A 
ATOM     17  C   UNL     1      -1.749  14.068  23.772  0.00  0.00    +0.000 A 
ATOM     18  C   UNL     1      -3.134  14.158  23.765  0.00  0.00    +0.000 A 
ATOM     19  C   UNL     1      -3.832  13.421  22.822  0.00  0.00    +0.000 A 
ATOM     20  N   UNL     1      -3.246  12.614  21.906  0.00  0.00    +0.000 NA
ENDBRANCH  14  15
ENDBRANCH   7  13
ENDBRANCH   1   3
BRANCH   1  25
ATOM     21  C   UNL     1       5.194   4.450  16.643  0.00  0.00    +0.000 A 
ATOM     22  C   UNL     1       6.451   4.675  17.214  0.00  0.00    +0.000 A 
ATOM     23  C   UNL     1       6.575   5.178  18.507  0.00  0.00    +0.000 A 
ATOM     24  C   UNL     1       5.436   5.448  19.254  0.00  0.00    +0.000 A 
ATOM     25  C   UNL     1       4.167   5.229  18.705  0.00  0.00    +0.000 A 
ATOM     26  C   UNL     1       4.045   4.773  17.381  0.00  0.00    +0.000 A 
BRANCH  21  29
ATOM     27  C   UNL     1       5.747   4.298  14.226  0.00  0.00    +0.000 C 
ATOM     28  O   UNL     1       6.623   5.157  14.198  0.00  0.00    +0.000 OA
ATOM     29  N   UNL     1       5.035   3.894  15.348  0.00  0.00    +0.000 N 
ATOM     30  H   UNL     1       4.504   3.036  15.278  0.00  0.00    +0.000 HD
BRANCH  27  35
ATOM     31  C   UNL     1       5.920   1.789  11.377  0.00  0.00    +0.000 A 
ATOM     32  C   UNL     1       4.832   2.223  10.612  0.00  0.00    +0.000 A 
ATOM     33  C   UNL     1       4.063   3.313  11.016  0.00  0.00    +0.000 A 
ATOM     34  C   UNL     1       4.390   3.980  12.192  0.00  0.00    +0.000 A 
ATOM     35  C   UNL     1       5.485   3.560  12.963  0.00  0.00    +0.000 A 
ATOM     36  C   UNL     1       6.245   2.453  12.564  0.00  0.00    +0.000 A 
BRANCH  31  38
ATOM     37  C   UNL     1       6.175  -0.579  11.301  0.00  0.00    +0.000 C 
ATOM     38  O   UNL     1       6.573   0.709  10.851  0.00  0.00    +0.000 OA
ENDBRANCH  31  38
ENDBRANCH  27  35
ENDBRANCH  21  29
ENDBRANCH   1  25
TORSDOF 7
ENDMDL
MODEL 6
REMARK VINA RESULT:      -8.4      3.431      5.971
REMARK  Name = 
REMARK  8 active torsions:
REMARK  status: ('A' for Active; 'I' for Inactive)
REMARK    1  A    between atoms: C_1  and  O_2
REMARK    2  A    between atoms: O_2  and  C_3
REMARK    3  A    between atoms: C_7  and  C_8
REMARK    4  A    between atoms: N_10  and  C_11
REMARK    5  A    between atoms: C_15  and  C_16
REMARK    6  A    between atoms: C_16  and  C_18
REMARK    7  A    between atoms: C_22  and  C_23
REMARK    8  A    between atoms: C_24  and  C_25
REMARK                            x       y       z     vdW  Elec       q    Type
REMARK                         _______ _______ _______ _____ _____    ______ ____
ROOT
ATOM      1  C   UNL     1       0.793   8.931  20.503  0.00  0.00    +0.000 C 
ATOM      2  O   UNL     1       0.296   8.489  21.539  0.00  0.00    +0.000 OA
ENDROOT
BRANCH   1   3
ATOM      3  C   UNL     1       1.722   8.058  19.740  0.00  0.00    +0.000 A 
ATOM      4  C   UNL     1       2.026   8.443  18.428  0.00  0.00    +0.000 A 
ATOM      5  C   UNL     1       2.893   7.688  17.630  0.00  0.00    +0.000 A 
ATOM      6  C   UNL     1       3.465   6.519  18.165  0.00  0.00    +0.000 A 
ATOM      7  C   UNL     1       4.401   5.536  17.720  0.00  0.00    +0.000 A 
ATOM      8  N   UNL     1       4.583   4.590  18.656  0.00  0.00    +0.000 NA
ATOM      9  N   UNL     1       3.788   4.962  19.668  0.00  0.00    +0.000 N 
ATOM     10  C   UNL     1       3.112   6.132  19.455  0.00  0.00    +0.000 A 
ATOM     11  C   UNL     1       2.235   6.863  20.271  0.00  0.00    +0.000 A 
ATOM     12  H   UNL     1       3.769   4.378  20.496  0.00  0.00    +0.000 HD
BRANCH   7  13
ATOM     13  C   UNL     1       5.095   5.564  16.465  0.00  0.00    +0.000 C 
ATOM     14  C   UNL     1       5.237   4.496  15.661  0.00  0.00    +0.000 C 
BRANCH  14  15
ATOM     15  C   UNL     1       5.992   4.471  14.403  0.00  0.00    +0.000 A 
ATOM     16  C   UNL     1       5.606   3.595  13.391  0.00  0.00    +0.000 A 
ATOM     17  C   UNL     1       6.342   3.558  12.210  0.00  0.00    +0.000 A 
ATOM     18  C   UNL     1       7.441   4.396  12.071  0.00  0.00    +0.000 A 
ATOM     19  C   UNL     1       7.757   5.239  13.123  0.00  0.00    +0.000 A 
ATOM     20  N   UNL     1       7.061   5.294  14.284  0.00  0.00    +0.000 NA
ENDBRANCH  14  15
ENDBRANCH   7  13
ENDBRANCH   1   3
BRANCH   1  25
ATOM     21  C   UNL     1       0.911  12.679  19.788  0.00  0.00    +0.000 A 
ATOM     22  C   UNL     1      -0.381  12.847  19.278  0.00  0.00    +0.000 A 
ATOM     23  C   UNL     1      -1.255  11.768  19.160  0.00  0.00    +0.000 A 
ATOM     24  C   UNL     1      -0.848  10.505  19.567  0.00  0.00    +0.000 A 
ATOM     25  C   UNL     1       0.439  10.311  20.082  0.00  0.00    +0.000 A 
ATOM     26  C   UNL     1       1.336  11.392  20.149  0.00  0.00    +0.000 A 
BRANCH  21  29
ATOM     27  C   UNL     1       2.791  14.129  19.056  0.00  0.00    +0.000 C 
ATOM     28  O   UNL     1       3.006  13.594  17.972  0.00  0.00    +0.000 OA
ATOM     29  N   UNL     1       1.806  13.765  19.965  0.00  0.00    +0.000 N 
ATOM     30  H   UNL     1       1.595  14.417  20.710  0.00  0.00    +0.000 HD
BRANCH  27  35
ATOM     31  C   UNL     1       3.997  17.393  20.585  0.00  0.00    +0.000 A 
ATOM     32  C   UNL     1       5.252  17.492  19.972  0.00  0.00    +0.000 A 
ATOM     33  C   UNL     1       5.689  16.517  19.078  0.00  0.00    +0.000 A 
ATOM     34  C   UNL     1       4.863  15.438  18.786  0.00  0.00    +0.000 A 
ATOM     35  C   UNL     1       3.599  15.332  19.387  0.00  0.00    +0.000 A 
ATOM     36  C   UNL     1       3.168  16.303  20.300  0.00  0.00    +0.000 A 
BRANCH  31  38
ATOM     37  C   UNL     1       2.368  18.555  21.879  0.00  0.00    +0.000 C 
ATOM     38  O   UNL     1       3.712  18.423  21.437  0.00  0.00    +0.000 OA
ENDBRANCH  31  38
ENDBRANCH  27  35
ENDBRANCH  21  29
ENDBRANCH   1  25
TORSDOF 7
ENDMDL
MODEL 7
REMARK VINA RESULT:      -8.3      4.542      7.509
REMARK  Name = 
REMARK  8 active torsions:
REMARK  status: ('A' for Active; 'I' for Inactive)
REMARK    1  A    between atoms: C_1  and  O_2
REMARK    2  A    between atoms: O_2  and  C_3
REMARK    3  A    between atoms: C_7  and  C_8
REMARK    4  A    between atoms: N_10  and  C_11
REMARK    5  A    between atoms: C_15  and  C_16
REMARK    6  A    between atoms: C_16  and  C_18
REMARK    7  A    between atoms: C_22  and  C_23
REMARK    8  A    between atoms: C_24  and  C_25
REMARK                            x       y       z     vdW  Elec       q    Type
REMARK                         _______ _______ _______ _____ _____    ______ ____
ROOT
ATOM      1  C   UNL     1       0.268  11.097  19.243  0.00  0.00    +0.000 C 
ATOM      2  O   UNL     1      -0.885  11.160  18.815  0.00  0.00    +0.000 OA
ENDROOT
BRANCH   1   3
ATOM      3  C   UNL     1       0.998   9.810  19.112  0.00  0.00    +0.000 A 
ATOM      4  C   UNL     1       1.550   9.515  17.859  0.00  0.00    +0.000 A 
ATOM      5  C   UNL     1       2.259   8.329  17.638  0.00  0.00    +0.000 A 
ATOM      6  C   UNL     1       2.415   7.420  18.700  0.00  0.00    +0.000 A 
ATOM      7  C   UNL     1       3.084   6.175  18.898  0.00  0.00    +0.000 A 
ATOM      8  N   UNL     1       2.882   5.715  20.145  0.00  0.00    +0.000 NA
ATOM      9  N   UNL     1       2.109   6.643  20.723  0.00  0.00    +0.000 N 
ATOM     10  C   UNL     1       1.818   7.714  19.923  0.00  0.00    +0.000 A 
ATOM     11  C   UNL     1       1.090   8.889  20.168  0.00  0.00    +0.000 A 
ATOM     12  H   UNL     1       1.830   6.496  21.686  0.00  0.00    +0.000 HD
BRANCH   7  13
ATOM     13  C   UNL     1       3.901   5.511  17.924  0.00  0.00    +0.000 C 
ATOM     14  C   UNL     1       4.619   6.151  16.984  0.00  0.00    +0.000 C 
BRANCH  14  15
ATOM     15  C   UNL     1       5.415   5.506  15.933  0.00  0.00    +0.000 A 
ATOM     16  C   UNL     1       4.788   4.649  15.031  0.00  0.00    +0.000 A 
ATOM     17  C   UNL     1       5.553   4.021  14.051  0.00  0.00    +0.000 A 
ATOM     18  C   UNL     1       6.919   4.265  14.000  0.00  0.00    +0.000 A 
ATOM     19  C   UNL     1       7.464   5.132  14.932  0.00  0.00    +0.000 A 
ATOM     20  N   UNL     1       6.746   5.754  15.897  0.00  0.00    +0.000 NA
ENDBRANCH  14  15
ENDBRANCH   7  13
ENDBRANCH   1   3
BRANCH   1  25
ATOM     21  C   UNL     1       2.608  13.975  20.146  0.00  0.00    +0.000 A 
ATOM     22  C   UNL     1       1.844  14.573  21.154  0.00  0.00    +0.000 A 
ATOM     23  C   UNL     1       0.599  14.061  21.514  0.00  0.00    +0.000 A 
ATOM     24  C   UNL     1       0.110  12.928  20.878  0.00  0.00    +0.000 A 
ATOM     25  C   UNL     1       0.857  12.310  19.868  0.00  0.00    +0.000 A 
ATOM     26  C   UNL     1       2.087  12.861  19.470  0.00  0.00    +0.000 A 
BRANCH  21  29
ATOM     27  C   UNL     1       4.181  15.169  18.641  0.00  0.00    +0.000 C 
ATOM     28  O   UNL     1       3.367  15.531  17.796  0.00  0.00    +0.000 OA
ATOM     29  N   UNL     1       3.898  14.444  19.790  0.00  0.00    +0.000 N 
ATOM     30  H   UNL     1       4.615  14.401  20.503  0.00  0.00    +0.000 HD
BRANCH  27  35
ATOM     31  C   UNL     1       7.378  17.223  18.734  0.00  0.00    +0.000 A 
ATOM     32  C   UNL     1       8.260  16.316  18.137  0.00  0.00    +0.000 A 
ATOM     33  C   UNL     1       7.819  15.065  17.710  0.00  0.00    +0.000 A 
ATOM     34  C   UNL     1       6.481  14.721  17.874  0.00  0.00    +0.000 A 
ATOM     35  C   UNL     1       5.585  15.625  18.463  0.00  0.00    +0.000 A 
ATOM     36  C   UNL     1       6.035  16.875  18.908  0.00  0.00    +0.000 A 
BRANCH  31  38
ATOM     37  C   UNL     1       8.190  18.620  20.486  0.00  0.00    +0.000 C 
ATOM     38  O   UNL     1       7.960  18.405  19.100  0.00  0.00    +0.000 OA
ENDBRANCH  31  38
ENDBRANCH  27  35
ENDBRANCH  21  29
ENDBRANCH   1  25
TORSDOF 7
ENDMDL
MODEL 8
REMARK VINA RESULT:      -8.3      4.895     10.616
REMARK  Name = 
REMARK  8 active torsions:
REMARK  status: ('A' for Active; 'I' for Inactive)
REMARK    1  A    between atoms: C_1  and  O_2
REMARK    2  A    between atoms: O_2  and  C_3
REMARK    3  A    between atoms: C_7  and  C_8
REMARK    4  A    between atoms: N_10  and  C_11
REMARK    5  A    between atoms: C_15  and  C_16
REMARK    6  A    between atoms: C_16  and  C_18
REMARK    7  A    between atoms: C_22  and  C_23
REMARK    8  A    between atoms: C_24  and  C_25
REMARK                            x       y       z     vdW  Elec       q    Type
REMARK                         _______ _______ _______ _____ _____    ______ ____
ROOT
ATOM      1  C   UNL     1      -0.104  11.936  19.112  0.00  0.00    +0.000 C 
ATOM      2  O   UNL     1      -1.220  12.006  18.597  0.00  0.00    +0.000 OA
ENDROOT
BRANCH   1   3
ATOM      3  C   UNL     1       0.807  13.103  18.978  0.00  0.00    +0.000 A 
ATOM      4  C   UNL     1       2.155  12.831  18.715  0.00  0.00    +0.000 A 
ATOM      5  C   UNL     1       3.089  13.863  18.569  0.00  0.00    +0.000 A 
ATOM      6  C   UNL     1       2.657  15.196  18.691  0.00  0.00    +0.000 A 
ATOM      7  C   UNL     1       3.254  16.487  18.565  0.00  0.00    +0.000 A 
ATOM      8  N   UNL     1       2.358  17.456  18.814  0.00  0.00    +0.000 NA
ATOM      9  N   UNL     1       1.222  16.800  19.087  0.00  0.00    +0.000 N 
ATOM     10  C   UNL     1       1.321  15.439  18.998  0.00  0.00    +0.000 A 
ATOM     11  C   UNL     1       0.366  14.423  19.164  0.00  0.00    +0.000 A 
ATOM     12  H   UNL     1       0.399  17.348  19.308  0.00  0.00    +0.000 HD
BRANCH   7  13
ATOM     13  C   UNL     1       4.615  16.734  18.182  0.00  0.00    +0.000 C 
ATOM     14  C   UNL     1       5.680  16.385  18.924  0.00  0.00    +0.000 C 
BRANCH  14  15
ATOM     15  C   UNL     1       7.080  16.677  18.596  0.00  0.00    +0.000 A 
ATOM     16  C   UNL     1       7.875  15.676  18.044  0.00  0.00    +0.000 A 
ATOM     17  C   UNL     1       9.210  15.953  17.758  0.00  0.00    +0.000 A 
ATOM     18  C   UNL     1       9.711  17.219  18.028  0.00  0.00    +0.000 A 
ATOM     19  C   UNL     1       8.853  18.159  18.575  0.00  0.00    +0.000 A 
ATOM     20  N   UNL     1       7.553  17.917  18.867  0.00  0.00    +0.000 NA
ENDBRANCH  14  15
ENDBRANCH   7  13
ENDBRANCH   1   3
BRANCH   1  25
ATOM     21  C   UNL     1       1.423   8.560  20.029  0.00  0.00    +0.000 A 
ATOM     22  C   UNL     1       0.840   8.389  21.289  0.00  0.00    +0.000 A 
ATOM     23  C   UNL     1      -0.012   9.352  21.826  0.00  0.00    +0.000 A 
ATOM     24  C   UNL     1      -0.304  10.497  21.096  0.00  0.00    +0.000 A 
ATOM     25  C   UNL     1       0.266  10.690  19.832  0.00  0.00    +0.000 A 
ATOM     26  C   UNL     1       1.167   9.741  19.318  0.00  0.00    +0.000 A 
BRANCH  21  29
ATOM     27  C   UNL     1       2.237   6.228  19.767  0.00  0.00    +0.000 C 
ATOM     28  O   UNL     1       1.491   5.694  20.583  0.00  0.00    +0.000 OA
ATOM     29  N   UNL     1       2.255   7.576  19.436  0.00  0.00    +0.000 N 
ATOM     30  H   UNL     1       2.760   7.845  18.602  0.00  0.00    +0.000 HD
BRANCH  27  35
ATOM     31  C   UNL     1       5.303   4.363  18.514  0.00  0.00    +0.000 A 
ATOM     32  C   UNL     1       4.708   3.560  17.535  0.00  0.00    +0.000 A 
ATOM     33  C   UNL     1       3.338   3.630  17.289  0.00  0.00    +0.000 A 
ATOM     34  C   UNL     1       2.557   4.517  18.021  0.00  0.00    +0.000 A 
ATOM     35  C   UNL     1       3.144   5.335  18.998  0.00  0.00    +0.000 A 
ATOM     36  C   UNL     1       4.518   5.250  19.258  0.00  0.00    +0.000 A 
BRANCH  31  38
ATOM     37  C   UNL     1       7.497   4.909  17.762  0.00  0.00    +0.000 C 
ATOM     38  O   UNL     1       6.652   4.179  18.640  0.00  0.00    +0.000 OA
ENDBRANCH  31  38
ENDBRANCH  27  35
ENDBRANCH  21  29
ENDBRANCH   1  25
TORSDOF 7
ENDMDL
MODEL 9
REMARK VINA RESULT:      -8.3      4.489     11.619
REMARK  Name = 
REMARK  8 active torsions:
REMARK  status: ('A' for Active; 'I' for Inactive)
REMARK    1  A    between atoms: C_1  and  O_2
REMARK    2  A    between atoms: O_2  and  C_3
REMARK    3  A    between atoms: C_7  and  C_8
REMARK    4  A    between atoms: N_10  and  C_11
REMARK    5  A    between atoms: C_15  and  C_16
REMARK    6  A    between atoms: C_16  and  C_18
REMARK    7  A    between atoms: C_22  and  C_23
REMARK    8  A    between atoms: C_24  and  C_25
REMARK                            x       y       z     vdW  Elec       q    Type
REMARK                         _______ _______ _______ _____ _____    ______ ____
ROOT
ATOM      1  C   UNL     1       2.550   5.791  19.588  0.00  0.00    +0.000 C 
ATOM      2  O   UNL     1       1.916   4.887  20.133  0.00  0.00    +0.000 OA
ENDROOT
BRANCH   1   3
ATOM      3  C   UNL     1       2.019   7.176  19.678  0.00  0.00    +0.000 A 
ATOM      4  C   UNL     1       1.392   7.542  20.875  0.00  0.00    +0.000 A 
ATOM      5  C   UNL     1       0.863   8.824  21.057  0.00  0.00    +0.000 A 
ATOM      6  C   UNL     1       0.967   9.758  20.011  0.00  0.00    +0.000 A 
ATOM      7  C   UNL     1       0.621  11.130  19.818  0.00  0.00    +0.000 A 
ATOM      8  N   UNL     1       0.938  11.535  18.577  0.00  0.00    +0.000 NA
ATOM      9  N   UNL     1       1.473  10.453  17.998  0.00  0.00    +0.000 N 
ATOM     10  C   UNL     1       1.554   9.358  18.813  0.00  0.00    +0.000 A 
ATOM     11  C   UNL     1       2.080   8.074  18.600  0.00  0.00    +0.000 A 
ATOM     12  H   UNL     1       1.789  10.535  17.038  0.00  0.00    +0.000 HD
BRANCH   7  13
ATOM     13  C   UNL     1       0.051  11.987  20.818  0.00  0.00    +0.000 C 
ATOM     14  C   UNL     1       0.519  13.212  21.114  0.00  0.00    +0.000 C 
BRANCH  14  15
ATOM     15  C   UNL     1       0.003  14.089  22.171  0.00  0.00    +0.000 A 
ATOM     16  C   UNL     1      -0.977  13.611  23.038  0.00  0.00    +0.000 A 
ATOM     17  C   UNL     1      -1.480  14.456  24.024  0.00  0.00    +0.000 A 
ATOM     18  C   UNL     1      -0.991  15.753  24.117  0.00  0.00    +0.000 A 
ATOM     19  C   UNL     1      -0.015  16.149  23.218  0.00  0.00    +0.000 A 
ATOM     20  N   UNL     1       0.491  15.351  22.248  0.00  0.00    +0.000 NA
ENDBRANCH  14  15
ENDBRANCH   7  13
ENDBRANCH   1   3
BRANCH   1  25
ATOM     21  C   UNL     1       5.048   4.632  16.944  0.00  0.00    +0.000 A 
ATOM     22  C   UNL     1       6.232   4.803  17.669  0.00  0.00    +0.000 A 
ATOM     23  C   UNL     1       6.214   5.295  18.973  0.00  0.00    +0.000 A 
ATOM     24  C   UNL     1       5.002   5.607  19.575  0.00  0.00    +0.000 A 
ATOM     25  C   UNL     1       3.804   5.443  18.870  0.00  0.00    +0.000 A 
ATOM     26  C   UNL     1       3.831   4.997  17.537  0.00  0.00    +0.000 A 
BRANCH  21  29
ATOM     27  C   UNL     1       5.770   4.583  14.568  0.00  0.00    +0.000 C 
ATOM     28  O   UNL     1       6.557   5.525  14.610  0.00  0.00    +0.000 OA
ATOM     29  N   UNL     1       5.030   4.089  15.634  0.00  0.00    +0.000 N 
ATOM     30  H   UNL     1       4.593   3.184  15.518  0.00  0.00    +0.000 HD
BRANCH  27  35
ATOM     31  C   UNL     1       4.458   3.083  11.332  0.00  0.00    +0.000 A 
ATOM     32  C   UNL     1       5.637   2.509  10.842  0.00  0.00    +0.000 A 
ATOM     33  C   UNL     1       6.830   2.607  11.555  0.00  0.00    +0.000 A 
ATOM     34  C   UNL     1       6.843   3.277  12.774  0.00  0.00    +0.000 A 
ATOM     35  C   UNL     1       5.666   3.848  13.280  0.00  0.00    +0.000 A 
ATOM     36  C   UNL     1       4.472   3.765  12.553  0.00  0.00    +0.000 A 
BRANCH  31  38
ATOM     37  C   UNL     1       3.005   3.984   9.673  0.00  0.00    +0.000 C 
ATOM     38  O   UNL     1       3.373   2.904  10.519  0.00  0.00    +0.000 OA
ENDBRANCH  31  38
ENDBRANCH  27  35
ENDBRANCH  21  29
ENDBRANCH   1  25
TORSDOF 7
ENDMDL
