MODEL 1
REMARK VINA RESULT:      -7.7      0.000      0.000
REMARK  Name = 
REMARK  7 active torsions:
REMARK  status: ('A' for Active; 'I' for Inactive)
REMARK    1  A    between atoms: C_1  and  C_2
REMARK    2  A    between atoms: C_2  and  O_3
REMARK    3  A    between atoms: C_4  and  C_5
REMARK    4  A    between atoms: C_5  and  O_6
REMARK    5  A    between atoms: C_8  and  N_9
REMARK    6  A    between atoms: N_14  and  C_15
REMARK    7  A    between atoms: C_26  and  O_27
REMARK                            x       y       z     vdW  Elec       q    Type
REMARK                         _______ _______ _______ _____ _____    ______ ____
ROOT
ATOM      1  N   UNL     1       0.450  10.402  20.960  0.00  0.00    +0.000 N 
ATOM      2  C   UNL     1       0.536   9.583  22.077  0.00  0.00    +0.000 A 
ATOM      3  N   UNL     1       1.077   8.421  21.823  0.00  0.00    +0.000 NA
ATOM      4  C   UNL     1       1.449   8.475  20.489  0.00  0.00    +0.000 A 
ATOM      5  C   UNL     1       2.089   7.505  19.643  0.00  0.00    +0.000 A 
ATOM      6  N   UNL     1       2.385   6.225  20.096  0.00  0.00    +0.000 N 
ATOM      7  N   UNL     1       2.369   7.914  18.380  0.00  0.00    +0.000 NA
ATOM      8  C   UNL     1       2.001   9.163  17.995  0.00  0.00    +0.000 A 
ATOM      9  N   UNL     1       1.331  10.122  18.685  0.00  0.00    +0.000 NA
ATOM     10  C   UNL     1       1.091   9.723  19.942  0.00  0.00    +0.000 A 
ATOM     11  H   UNL     1       2.140   6.104  21.076  0.00  0.00    +0.000 HD
ENDROOT
BRANCH   6  12
ATOM     12  C   UNL     1       2.809   5.001  19.370  0.00  0.00    +0.000 C 
ATOM     13  C   UNL     1       1.798   4.458  18.346  0.00  0.00    +0.000 C 
ATOM     14  C   UNL     1       1.000   3.382  19.134  0.00  0.00    +0.000 C 
ATOM     15  C   UNL     1       1.732   2.040  19.030  0.00  0.00    +0.000 C 
ATOM     16  C   UNL     1       3.082   2.398  19.676  0.00  0.00    +0.000 C 
ATOM     17  C   UNL     1       2.803   3.781  20.370  0.00  0.00    +0.000 C 
ATOM     18  C   UNL     1       1.293   3.670  20.609  0.00  0.00    +0.000 C 
ENDBRANCH   6  12
BRANCH   1  23
ATOM     19  C   UNL     1      -0.118  14.850  18.969  0.00  0.00    +0.000 C 
ATOM     20  C   UNL     1      -0.671  13.798  19.926  0.00  0.00    +0.000 C 
ATOM     21  C   UNL     1      -1.500  12.680  19.301  0.00  0.00    +0.000 C 
ATOM     22  O   UNL     1      -1.414  11.563  20.211  0.00  0.00    +0.000 OA
ATOM     23  C   UNL     1      -0.238  11.678  21.057  0.00  0.00    +0.000 C 
ATOM     24  C   UNL     1       0.422  13.037  20.705  0.00  0.00    +0.000 C 
BRANCH  20  25
ATOM     25  O   UNL     1      -1.500  14.499  20.884  0.00  0.00    +0.000 OA
ATOM     26  H   UNL     1      -0.917  14.874  21.572  0.00  0.00    +0.000 HD
ENDBRANCH  20  25
BRANCH  24  27
ATOM     27  O   UNL     1       0.753  13.800  21.880  0.00  0.00    +0.000 OA
ATOM     28  H   UNL     1       0.440  13.254  22.640  0.00  0.00    +0.000 HD
ENDBRANCH  24  27
BRANCH  21  29
ATOM     29  C   UNL     1      -1.045  12.225  17.911  0.00  0.00    +0.000 C 
BRANCH  29  30
ATOM     30  O   UNL     1      -1.369  10.852  17.711  0.00  0.00    +0.000 OA
ATOM     31  H   UNL     1      -0.902  10.568  16.903  0.00  0.00    +0.000 HD
ENDBRANCH  29  30
ENDBRANCH  21  29
ENDBRANCH   1  23
TORSDOF 6
ENDMDL
MODEL 2
REMARK VINA RESULT:      -7.6      1.383      2.293
REMARK  Name = 
REMARK  7 active torsions:
REMARK  status: ('A' for Active; 'I' for Inactive)
REMARK    1  A    between atoms: C_1  and  C_2
REMARK    2  A    between atoms: C_2  and  O_3
REMARK    3  A    between atoms: C_4  and  C_5
REMARK    4  A    between atoms: C_5  and  O_6
REMARK    5  A    between atoms: C_8  and  N_9
REMARK    6  A    between atoms: N_14  and  C_15
REMARK    7  A    between atoms: C_26  and  O_27
REMARK                            x       y       z     vdW  Elec       q    Type
REMARK                         _______ _______ _______ _____ _____    ______ ____
ROOT
ATOM      1  N   UNL     1       0.298  10.597  20.355  0.00  0.00    +0.000 N 
ATOM      2  C   UNL     1       0.270   9.932  21.572  0.00  0.00    +0.000 A 
ATOM      3  N   UNL     1       0.851   8.762  21.531  0.00  0.00    +0.000 NA
ATOM      4  C   UNL     1       1.368   8.654  20.250  0.00  0.00    +0.000 A 
ATOM      5  C   UNL     1       2.110   7.600  19.612  0.00  0.00    +0.000 A 
ATOM      6  N   UNL     1       2.370   6.399  20.258  0.00  0.00    +0.000 N 
ATOM      7  N   UNL     1       2.521   7.852  18.344  0.00  0.00    +0.000 NA
ATOM      8  C   UNL     1       2.182   9.030  17.761  0.00  0.00    +0.000 A 
ATOM      9  N   UNL     1       1.428  10.051  18.244  0.00  0.00    +0.000 NA
ATOM     10  C   UNL     1       1.056   9.810  19.509  0.00  0.00    +0.000 A 
ATOM     11  H   UNL     1       2.021   6.398  21.214  0.00  0.00    +0.000 HD
ENDROOT
BRANCH   6  12
ATOM     12  C   UNL     1       2.888   5.103  19.748  0.00  0.00    +0.000 C 
ATOM     13  C   UNL     1       2.155   4.537  18.520  0.00  0.00    +0.000 C 
ATOM     14  C   UNL     1       1.101   3.566  19.121  0.00  0.00    +0.000 C 
ATOM     15  C   UNL     1       1.738   2.185  19.299  0.00  0.00    +0.000 C 
ATOM     16  C   UNL     1       2.885   2.520  20.268  0.00  0.00    +0.000 C 
ATOM     17  C   UNL     1       2.527   3.964  20.777  0.00  0.00    +0.000 C 
ATOM     18  C   UNL     1       1.005   3.949  20.600  0.00  0.00    +0.000 C 
ENDBRANCH   6  12
BRANCH   1  23
ATOM     19  C   UNL     1      -4.052  12.845  20.684  0.00  0.00    +0.000 C 
ATOM     20  C   UNL     1      -2.537  13.000  20.593  0.00  0.00    +0.000 C 
ATOM     21  C   UNL     1      -1.759  12.862  21.899  0.00  0.00    +0.000 C 
ATOM     22  O   UNL     1      -0.423  12.465  21.528  0.00  0.00    +0.000 OA
ATOM     23  C   UNL     1      -0.414  11.856  20.209  0.00  0.00    +0.000 C 
ATOM     24  C   UNL     1      -1.864  11.963  19.668  0.00  0.00    +0.000 C 
BRANCH  20  25
ATOM     25  O   UNL     1      -2.283  14.318  20.050  0.00  0.00    +0.000 OA
ATOM     26  H   UNL     1      -1.315  14.455  20.028  0.00  0.00    +0.000 HD
ENDBRANCH  20  25
BRANCH  24  27
ATOM     27  O   UNL     1      -1.905  12.468  18.320  0.00  0.00    +0.000 OA
ATOM     28  H   UNL     1      -2.827  12.306  18.011  0.00  0.00    +0.000 HD
ENDBRANCH  24  27
BRANCH  21  29
ATOM     29  C   UNL     1      -2.323  11.841  22.892  0.00  0.00    +0.000 C 
BRANCH  29  30
ATOM     30  O   UNL     1      -3.116  12.497  23.877  0.00  0.00    +0.000 OA
ATOM     31  H   UNL     1      -4.044  12.422  23.586  0.00  0.00    +0.000 HD
ENDBRANCH  29  30
ENDBRANCH  21  29
ENDBRANCH   1  23
TORSDOF 6
ENDMDL
MODEL 3
REMARK VINA RESULT:      -7.5      2.382      3.371
REMARK  Name = 
REMARK  7 active torsions:
REMARK  status: ('A' for Active; 'I' for Inactive)
REMARK    1  A    between atoms: C_1  and  C_2
REMARK    2  A    between atoms: C_2  and  O_3
REMARK    3  A    between atoms: C_4  and  C_5
REMARK    4  A    between atoms: C_5  and  O_6
REMARK    5  A    between atoms: C_8  and  N_9
REMARK    6  A    between atoms: N_14  and  C_15
REMARK    7  A    between atoms: C_26  and  O_27
REMARK                            x       y       z     vdW  Elec       q    Type
REMARK                         _______ _______ _______ _____ _____    ______ ____
ROOT
ATOM      1  N   UNL     1       1.130   9.748  19.452  0.00  0.00    +0.000 N 
ATOM      2  C   UNL     1       1.538  10.004  18.151  0.00  0.00    +0.000 A 
ATOM      3  N   UNL     1       2.241   9.032  17.632  0.00  0.00    +0.000 NA
ATOM      4  C   UNL     1       2.249   8.033  18.592  0.00  0.00    +0.000 A 
ATOM      5  C   UNL     1       2.854   6.728  18.600  0.00  0.00    +0.000 A 
ATOM      6  N   UNL     1       3.652   6.290  17.551  0.00  0.00    +0.000 N 
ATOM      7  N   UNL     1       2.608   5.969  19.697  0.00  0.00    +0.000 NA
ATOM      8  C   UNL     1       1.862   6.488  20.706  0.00  0.00    +0.000 A 
ATOM      9  N   UNL     1       1.312   7.723  20.830  0.00  0.00    +0.000 NA
ATOM     10  C   UNL     1       1.529   8.454  19.728  0.00  0.00    +0.000 A 
ATOM     11  H   UNL     1       3.696   6.973  16.797  0.00  0.00    +0.000 HD
ENDROOT
BRANCH   6  12
ATOM     12  C   UNL     1       4.558   5.120  17.430  0.00  0.00    +0.000 C 
ATOM     13  C   UNL     1       5.457   4.854  18.651  0.00  0.00    +0.000 C 
ATOM     14  C   UNL     1       6.790   5.576  18.306  0.00  0.00    +0.000 C 
ATOM     15  C   UNL     1       7.687   4.618  17.515  0.00  0.00    +0.000 C 
ATOM     16  C   UNL     1       6.802   4.344  16.286  0.00  0.00    +0.000 C 
ATOM     17  C   UNL     1       5.688   5.450  16.380  0.00  0.00    +0.000 C 
ATOM     18  C   UNL     1       6.440   6.532  17.162  0.00  0.00    +0.000 C 
ENDBRANCH   6  12
BRANCH   1  23
ATOM     19  C   UNL     1      -0.459  14.390  19.420  0.00  0.00    +0.000 C 
ATOM     20  C   UNL     1      -0.532  13.019  20.085  0.00  0.00    +0.000 C 
ATOM     21  C   UNL     1      -1.457  11.996  19.433  0.00  0.00    +0.000 C 
ATOM     22  O   UNL     1      -0.954  10.700  19.819  0.00  0.00    +0.000 OA
ATOM     23  C   UNL     1       0.444  10.784  20.206  0.00  0.00    +0.000 C 
ATOM     24  C   UNL     1       0.826  12.286  20.140  0.00  0.00    +0.000 C 
BRANCH  20  25
ATOM     25  O   UNL     1      -0.980  13.237  21.444  0.00  0.00    +0.000 OA
ATOM     26  H   UNL     1      -1.760  13.825  21.416  0.00  0.00    +0.000 HD
ENDBRANCH  20  25
BRANCH  24  27
ATOM     27  O   UNL     1       1.525  12.720  21.321  0.00  0.00    +0.000 OA
ATOM     28  H   UNL     1       2.259  13.291  20.993  0.00  0.00    +0.000 HD
ENDBRANCH  24  27
BRANCH  21  29
ATOM     29  C   UNL     1      -1.535  12.063  17.904  0.00  0.00    +0.000 C 
BRANCH  29  30
ATOM     30  O   UNL     1      -2.891  11.984  17.476  0.00  0.00    +0.000 OA
ATOM     31  H   UNL     1      -2.884  12.069  16.504  0.00  0.00    +0.000 HD
ENDBRANCH  29  30
ENDBRANCH  21  29
ENDBRANCH   1  23
TORSDOF 6
ENDMDL
MODEL 4
REMARK VINA RESULT:      -7.2      1.499      2.800
REMARK  Name = 
REMARK  7 active torsions:
REMARK  status: ('A' for Active; 'I' for Inactive)
REMARK    1  A    between atoms: C_1  and  C_2
REMARK    2  A    between atoms: C_2  and  O_3
REMARK    3  A    between atoms: C_4  and  C_5
REMARK    4  A    between atoms: C_5  and  O_6
REMARK    5  A    between atoms: C_8  and  N_9
REMARK    6  A    between atoms: N_14  and  C_15
REMARK    7  A    between atoms: C_26  and  O_27
REMARK                            x       y       z     vdW  Elec       q    Type
REMARK                         _______ _______ _______ _____ _____    ______ ____
ROOT
ATOM      1  N   UNL     1       1.151  10.468  18.927  0.00  0.00    +0.000 N 
ATOM      2  C   UNL     1       1.711  10.180  17.690  0.00  0.00    +0.000 A 
ATOM      3  N   UNL     1       2.225   8.980  17.625  0.00  0.00    +0.000 NA
ATOM      4  C   UNL     1       1.935   8.392  18.845  0.00  0.00    +0.000 A 
ATOM      5  C   UNL     1       2.239   7.085  19.364  0.00  0.00    +0.000 A 
ATOM      6  N   UNL     1       3.004   6.176  18.645  0.00  0.00    +0.000 N 
ATOM      7  N   UNL     1       1.744   6.810  20.597  0.00  0.00    +0.000 NA
ATOM      8  C   UNL     1       1.050   7.770  21.260  0.00  0.00    +0.000 A 
ATOM      9  N   UNL     1       0.774   9.048  20.895  0.00  0.00    +0.000 NA
ATOM     10  C   UNL     1       1.235   9.301  19.662  0.00  0.00    +0.000 A 
ATOM     11  H   UNL     1       3.258   6.536  17.728  0.00  0.00    +0.000 HD
ENDROOT
BRANCH   6  12
ATOM     12  C   UNL     1       3.640   4.895  19.047  0.00  0.00    +0.000 C 
ATOM     13  C   UNL     1       4.479   4.206  17.957  0.00  0.00    +0.000 C 
ATOM     14  C   UNL     1       3.495   3.195  17.303  0.00  0.00    +0.000 C 
ATOM     15  C   UNL     1       3.540   1.878  18.084  0.00  0.00    +0.000 C 
ATOM     16  C   UNL     1       3.094   2.353  19.477  0.00  0.00    +0.000 C 
ATOM     17  C   UNL     1       2.523   3.794  19.209  0.00  0.00    +0.000 C 
ATOM     18  C   UNL     1       2.102   3.655  17.742  0.00  0.00    +0.000 C 
ENDBRANCH   6  12
BRANCH   1  23
ATOM     19  C   UNL     1      -2.719  13.122  20.361  0.00  0.00    +0.000 C 
ATOM     20  C   UNL     1      -1.212  13.086  20.120  0.00  0.00    +0.000 C 
ATOM     21  C   UNL     1      -0.358  12.497  21.239  0.00  0.00    +0.000 C 
ATOM     22  O   UNL     1       0.856  12.034  20.614  0.00  0.00    +0.000 OA
ATOM     23  C   UNL     1       0.649  11.806  19.194  0.00  0.00    +0.000 C 
ATOM     24  C   UNL     1      -0.804  12.252  18.886  0.00  0.00    +0.000 C 
BRANCH  20  25
ATOM     25  O   UNL     1      -0.791  14.453  19.897  0.00  0.00    +0.000 OA
ATOM     26  H   UNL     1       0.082  14.573  20.319  0.00  0.00    +0.000 HD
ENDBRANCH  20  25
BRANCH  24  27
ATOM     27  O   UNL     1      -0.877  13.100  17.725  0.00  0.00    +0.000 OA
ATOM     28  H   UNL     1      -1.836  13.143  17.495  0.00  0.00    +0.000 HD
ENDBRANCH  24  27
BRANCH  21  29
ATOM     29  C   UNL     1      -0.996  11.335  22.008  0.00  0.00    +0.000 C 
BRANCH  29  30
ATOM     30  O   UNL     1      -0.105  10.862  23.014  0.00  0.00    +0.000 OA
ATOM     31  H   UNL     1       0.182   9.972  22.739  0.00  0.00    +0.000 HD
ENDBRANCH  29  30
ENDBRANCH  21  29
ENDBRANCH   1  23
TORSDOF 6
ENDMDL
MODEL 5
REMARK VINA RESULT:      -7.2      2.341      3.728
REMARK  Name = 
REMARK  7 active torsions:
REMARK  status: ('A' for Active; 'I' for Inactive)
REMARK    1  A    between atoms: C_1  and  C_2
REMARK    2  A    between atoms: C_2  and  O_3
REMARK    3  A    between atoms: C_4  and  C_5
REMARK    4  A    between atoms: C_5  and  O_6
REMARK    5  A    between atoms: C_8  and  N_9
REMARK    6  A    between atoms: N_14  and  C_15
REMARK    7  A    between atoms: C_26  and  O_27
REMARK                            x       y       z     vdW  Elec       q    Type
REMARK                         _______ _______ _______ _____ _____    ______ ____
ROOT
ATOM      1  N   UNL     1       0.950  10.610  19.450  0.00  0.00    +0.000 N 
ATOM      2  C   UNL     1       1.405  10.707  18.142  0.00  0.00    +0.000 A 
ATOM      3  N   UNL     1       2.017   9.627  17.730  0.00  0.00    +0.000 NA
ATOM      4  C   UNL     1       1.907   8.723  18.774  0.00  0.00    +0.000 A 
ATOM      5  C   UNL     1       2.379   7.371  18.912  0.00  0.00    +0.000 A 
ATOM      6  N   UNL     1       3.147   6.764  17.927  0.00  0.00    +0.000 N 
ATOM      7  N   UNL     1       2.039   6.742  20.065  0.00  0.00    +0.000 NA
ATOM      8  C   UNL     1       1.331   7.421  21.004  0.00  0.00    +0.000 A 
ATOM      9  N   UNL     1       0.905   8.710  21.005  0.00  0.00    +0.000 NA
ATOM     10  C   UNL     1       1.214   9.314  19.849  0.00  0.00    +0.000 A 
ATOM     11  H   UNL     1       3.273   7.368  17.118  0.00  0.00    +0.000 HD
ENDROOT
BRANCH   6  12
ATOM     12  C   UNL     1       3.934   5.504  17.934  0.00  0.00    +0.000 C 
ATOM     13  C   UNL     1       5.104   5.464  18.932  0.00  0.00    +0.000 C 
ATOM     14  C   UNL     1       6.335   5.907  18.091  0.00  0.00    +0.000 C 
ATOM     15  C   UNL     1       6.949   4.676  17.417  0.00  0.00    +0.000 C 
ATOM     16  C   UNL     1       5.763   4.195  16.562  0.00  0.00    +0.000 C 
ATOM     17  C   UNL     1       4.766   5.410  16.598  0.00  0.00    +0.000 C 
ATOM     18  C   UNL     1       5.747   6.563  16.839  0.00  0.00    +0.000 C 
ENDBRANCH   6  12
BRANCH   1  23
ATOM     19  C   UNL     1      -2.936  12.336  21.898  0.00  0.00    +0.000 C 
ATOM     20  C   UNL     1      -1.480  12.551  21.497  0.00  0.00    +0.000 C 
ATOM     21  C   UNL     1      -0.429  11.832  22.339  0.00  0.00    +0.000 C 
ATOM     22  O   UNL     1       0.730  11.687  21.493  0.00  0.00    +0.000 OA
ATOM     23  C   UNL     1       0.358  11.772  20.091  0.00  0.00    +0.000 C 
ATOM     24  C   UNL     1      -1.160  12.088  20.059  0.00  0.00    +0.000 C 
BRANCH  20  25
ATOM     25  O   UNL     1      -1.230  13.974  21.576  0.00  0.00    +0.000 OA
ATOM     26  H   UNL     1      -1.354  14.253  22.504  0.00  0.00    +0.000 HD
ENDBRANCH  20  25
BRANCH  24  27
ATOM     27  O   UNL     1      -1.472  13.166  19.158  0.00  0.00    +0.000 OA
ATOM     28  H   UNL     1      -2.341  13.518  19.466  0.00  0.00    +0.000 HD
ENDBRANCH  24  27
BRANCH  21  29
ATOM     29  C   UNL     1      -0.840  10.450  22.859  0.00  0.00    +0.000 C 
BRANCH  29  30
ATOM     30  O   UNL     1       0.194   9.902  23.672  0.00  0.00    +0.000 OA
ATOM     31  H   UNL     1       1.014   9.938  23.145  0.00  0.00    +0.000 HD
ENDBRANCH  29  30
ENDBRANCH  21  29
ENDBRANCH   1  23
TORSDOF 6
ENDMDL
MODEL 6
REMARK VINA RESULT:      -7.2      3.781      8.674
REMARK  Name = 
REMARK  7 active torsions:
REMARK  status: ('A' for Active; 'I' for Inactive)
REMARK    1  A    between atoms: C_1  and  C_2
REMARK    2  A    between atoms: C_2  and  O_3
REMARK    3  A    between atoms: C_4  and  C_5
REMARK    4  A    between atoms: C_5  and  O_6
REMARK    5  A    between atoms: C_8  and  N_9
REMARK    6  A    between atoms: N_14  and  C_15
REMARK    7  A    between atoms: C_26  and  O_27
REMARK                            x       y       z     vdW  Elec       q    Type
REMARK                         _______ _______ _______ _____ _____    ______ ____
ROOT
ATOM      1  N   UNL     1       3.022   6.127  18.465  0.00  0.00    +0.000 N 
ATOM      2  C   UNL     1       3.336   7.088  17.515  0.00  0.00    +0.000 A 
ATOM      3  N   UNL     1       2.789   8.250  17.759  0.00  0.00    +0.000 NA
ATOM      4  C   UNL     1       2.134   8.099  18.970  0.00  0.00    +0.000 A 
ATOM      5  C   UNL     1       1.357   9.023  19.751  0.00  0.00    +0.000 A 
ATOM      6  N   UNL     1       1.083  10.308  19.298  0.00  0.00    +0.000 N 
ATOM      7  N   UNL     1       0.902   8.556  20.940  0.00  0.00    +0.000 NA
ATOM      8  C   UNL     1       1.166   7.271  21.290  0.00  0.00    +0.000 A 
ATOM      9  N   UNL     1       1.820   6.302  20.599  0.00  0.00    +0.000 NA
ATOM     10  C   UNL     1       2.297   6.781  19.442  0.00  0.00    +0.000 A 
ATOM     11  H   UNL     1       1.534  10.499  18.406  0.00  0.00    +0.000 HD
ENDROOT
BRANCH   6  12
ATOM     12  C   UNL     1       0.134  11.339  19.789  0.00  0.00    +0.000 C 
ATOM     13  C   UNL     1      -0.745  11.993  18.708  0.00  0.00    +0.000 C 
ATOM     14  C   UNL     1       0.029  13.284  18.319  0.00  0.00    +0.000 C 
ATOM     15  C   UNL     1      -0.389  14.420  19.258  0.00  0.00    +0.000 C 
ATOM     16  C   UNL     1       0.033  13.838  20.619  0.00  0.00    +0.000 C 
ATOM     17  C   UNL     1       0.945  12.617  20.230  0.00  0.00    +0.000 C 
ATOM     18  C   UNL     1       1.447  13.075  18.857  0.00  0.00    +0.000 C 
ENDBRANCH   6  12
BRANCH   1  23
ATOM     19  C   UNL     1       4.384   1.959  20.668  0.00  0.00    +0.000 C 
ATOM     20  C   UNL     1       3.914   2.630  19.381  0.00  0.00    +0.000 C 
ATOM     21  C   UNL     1       2.410   2.844  19.234  0.00  0.00    +0.000 C 
ATOM     22  O   UNL     1       2.251   3.944  18.314  0.00  0.00    +0.000 OA
ATOM     23  C   UNL     1       3.456   4.754  18.267  0.00  0.00    +0.000 C 
ATOM     24  C   UNL     1       4.496   4.045  19.173  0.00  0.00    +0.000 C 
BRANCH  20  25
ATOM     25  O   UNL     1       4.363   1.795  18.286  0.00  0.00    +0.000 OA
ATOM     26  H   UNL     1       5.326   1.658  18.384  0.00  0.00    +0.000 HD
ENDBRANCH  20  25
BRANCH  24  27
ATOM     27  O   UNL     1       5.778   3.916  18.530  0.00  0.00    +0.000 OA
ATOM     28  H   UNL     1       5.698   3.122  17.951  0.00  0.00    +0.000 HD
ENDBRANCH  24  27
BRANCH  21  29
ATOM     29  C   UNL     1       1.666   3.171  20.533  0.00  0.00    +0.000 C 
BRANCH  29  30
ATOM     30  O   UNL     1       0.364   3.671  20.243  0.00  0.00    +0.000 OA
ATOM     31  H   UNL     1      -0.271   3.067  20.671  0.00  0.00    +0.000 HD
ENDBRANCH  29  30
ENDBRANCH  21  29
ENDBRANCH   1  23
TORSDOF 6
ENDMDL
MODEL 7
REMARK VINA RESULT:      -7.2      1.382      2.360
REMARK  Name = 
REMARK  7 active torsions:
REMARK  status: ('A' for Active; 'I' for Inactive)
REMARK    1  A    between atoms: C_1  and  C_2
REMARK    2  A    between atoms: C_2  and  O_3
REMARK    3  A    between atoms: C_4  and  C_5
REMARK    4  A    between atoms: C_5  and  O_6
REMARK    5  A    between atoms: C_8  and  N_9
REMARK    6  A    between atoms: N_14  and  C_15
REMARK    7  A    between atoms: C_26  and  O_27
REMARK                            x       y       z     vdW  Elec       q    Type
REMARK                         _______ _______ _______ _____ _____    ______ ____
ROOT
ATOM      1  N   UNL     1       0.822   9.964  19.749  0.00  0.00    +0.000 N 
ATOM      2  C   UNL     1       0.644   9.369  20.991  0.00  0.00    +0.000 A 
ATOM      3  N   UNL     1       1.188   8.183  21.075  0.00  0.00    +0.000 NA
ATOM      4  C   UNL     1       1.833   7.990  19.864  0.00  0.00    +0.000 A 
ATOM      5  C   UNL     1       2.604   6.882  19.366  0.00  0.00    +0.000 A 
ATOM      6  N   UNL     1       2.754   5.712  20.099  0.00  0.00    +0.000 N 
ATOM      7  N   UNL     1       3.155   7.051  18.139  0.00  0.00    +0.000 NA
ATOM      8  C   UNL     1       2.918   8.203  17.461  0.00  0.00    +0.000 A 
ATOM      9  N   UNL     1       2.152   9.269  17.805  0.00  0.00    +0.000 NA
ATOM     10  C   UNL     1       1.640   9.111  19.033  0.00  0.00    +0.000 A 
ATOM     11  H   UNL     1       2.306   5.775  21.011  0.00  0.00    +0.000 HD
ENDROOT
BRANCH   6  12
ATOM     12  C   UNL     1       3.281   4.377  19.718  0.00  0.00    +0.000 C 
ATOM     13  C   UNL     1       3.671   4.219  18.238  0.00  0.00    +0.000 C 
ATOM     14  C   UNL     1       2.405   3.606  17.575  0.00  0.00    +0.000 C 
ATOM     15  C   UNL     1       2.470   2.080  17.690  0.00  0.00    +0.000 C 
ATOM     16  C   UNL     1       2.506   1.908  19.218  0.00  0.00    +0.000 C 
ATOM     17  C   UNL     1       2.103   3.328  19.759  0.00  0.00    +0.000 C 
ATOM     18  C   UNL     1       1.274   3.847  18.579  0.00  0.00    +0.000 C 
ENDBRANCH   6  12
BRANCH   1  23
ATOM     19  C   UNL     1      -3.375  12.496  19.968  0.00  0.00    +0.000 C 
ATOM     20  C   UNL     1      -1.861  12.545  19.782  0.00  0.00    +0.000 C 
ATOM     21  C   UNL     1      -1.020  12.542  21.055  0.00  0.00    +0.000 C 
ATOM     22  O   UNL     1       0.271  12.016  20.680  0.00  0.00    +0.000 OA
ATOM     23  C   UNL     1       0.172  11.232  19.461  0.00  0.00    +0.000 C 
ATOM     24  C   UNL     1      -1.298  11.351  18.982  0.00  0.00    +0.000 C 
BRANCH  20  25
ATOM     25  O   UNL     1      -1.568  13.756  19.046  0.00  0.00    +0.000 OA
ATOM     26  H   UNL     1      -1.637  14.511  19.664  0.00  0.00    +0.000 HD
ENDBRANCH  20  25
BRANCH  24  27
ATOM     27  O   UNL     1      -1.388  11.665  17.580  0.00  0.00    +0.000 OA
ATOM     28  H   UNL     1      -1.288  12.644  17.527  0.00  0.00    +0.000 HD
ENDBRANCH  24  27
BRANCH  21  29
ATOM     29  C   UNL     1      -1.580  11.705  22.209  0.00  0.00    +0.000 C 
BRANCH  29  30
ATOM     30  O   UNL     1      -0.598  11.551  23.230  0.00  0.00    +0.000 OA
ATOM     31  H   UNL     1      -0.478  12.429  23.638  0.00  0.00    +0.000 HD
ENDBRANCH  29  30
ENDBRANCH  21  29
ENDBRANCH   1  23
TORSDOF 6
ENDMDL
MODEL 8
REMARK VINA RESULT:      -7.1      1.225      1.721
REMARK  Name = 
REMARK  7 active torsions:
REMARK  status: ('A' for Active; 'I' for Inactive)
REMARK    1  A    between atoms: C_1  and  C_2
REMARK    2  A    between atoms: C_2  and  O_3
REMARK    3  A    between atoms: C_4  and  C_5
REMARK    4  A    between atoms: C_5  and  O_6
REMARK    5  A    between atoms: C_8  and  N_9
REMARK    6  A    between atoms: N_14  and  C_15
REMARK    7  A    between atoms: C_26  and  O_27
REMARK                            x       y       z     vdW  Elec       q    Type
REMARK                         _______ _______ _______ _____ _____    ______ ____
ROOT
ATOM      1  N   UNL     1       0.153  10.115  20.877  0.00  0.00    +0.000 N 
ATOM      2  C   UNL     1       0.333   9.289  21.977  0.00  0.00    +0.000 A 
ATOM      3  N   UNL     1       1.025   8.214  21.704  0.00  0.00    +0.000 NA
ATOM      4  C   UNL     1       1.402   8.348  20.377  0.00  0.00    +0.000 A 
ATOM      5  C   UNL     1       2.173   7.491  19.518  0.00  0.00    +0.000 A 
ATOM      6  N   UNL     1       2.629   6.251  19.947  0.00  0.00    +0.000 N 
ATOM      7  N   UNL     1       2.410   7.964  18.269  0.00  0.00    +0.000 NA
ATOM      8  C   UNL     1       1.885   9.162  17.907  0.00  0.00    +0.000 A 
ATOM      9  N   UNL     1       1.088  10.008  18.609  0.00  0.00    +0.000 NA
ATOM     10  C   UNL     1       0.889   9.551  19.853  0.00  0.00    +0.000 A 
ATOM     11  H   UNL     1       2.392   6.075  20.921  0.00  0.00    +0.000 HD
ENDROOT
BRANCH   6  12
ATOM     12  C   UNL     1       3.219   5.111  19.200  0.00  0.00    +0.000 C 
ATOM     13  C   UNL     1       2.540   4.778  17.860  0.00  0.00    +0.000 C 
ATOM     14  C   UNL     1       1.521   3.660  18.218  0.00  0.00    +0.000 C 
ATOM     15  C   UNL     1       2.220   2.300  18.131  0.00  0.00    +0.000 C 
ATOM     16  C   UNL     1       3.329   2.478  19.182  0.00  0.00    +0.000 C 
ATOM     17  C   UNL     1       2.892   3.770  19.963  0.00  0.00    +0.000 C 
ATOM     18  C   UNL     1       1.376   3.727  19.741  0.00  0.00    +0.000 C 
ENDBRANCH   6  12
BRANCH   1  23
ATOM     19  C   UNL     1      -0.244  14.662  22.679  0.00  0.00    +0.000 C 
ATOM     20  C   UNL     1      -0.788  13.621  21.705  0.00  0.00    +0.000 C 
ATOM     21  C   UNL     1      -0.063  13.497  20.368  0.00  0.00    +0.000 C 
ATOM     22  O   UNL     1      -0.327  12.161  19.893  0.00  0.00    +0.000 OA
ATOM     23  C   UNL     1      -0.699  11.288  20.993  0.00  0.00    +0.000 C 
ATOM     24  C   UNL     1      -0.759  12.181  22.260  0.00  0.00    +0.000 C 
BRANCH  20  25
ATOM     25  O   UNL     1      -2.168  13.974  21.443  0.00  0.00    +0.000 OA
ATOM     26  H   UNL     1      -2.209  14.406  20.567  0.00  0.00    +0.000 HD
ENDBRANCH  20  25
BRANCH  24  27
ATOM     27  O   UNL     1      -1.963  11.966  23.019  0.00  0.00    +0.000 OA
ATOM     28  H   UNL     1      -1.954  11.008  23.253  0.00  0.00    +0.000 HD
ENDBRANCH  24  27
BRANCH  21  29
ATOM     29  C   UNL     1       1.453  13.715  20.421  0.00  0.00    +0.000 C 
BRANCH  29  30
ATOM     30  O   UNL     1       2.111  12.819  19.531  0.00  0.00    +0.000 OA
ATOM     31  H   UNL     1       3.052  13.077  19.517  0.00  0.00    +0.000 HD
ENDBRANCH  29  30
ENDBRANCH  21  29
ENDBRANCH   1  23
TORSDOF 6
ENDMDL
MODEL 9
REMARK VINA RESULT:      -7.0      2.579      3.614
REMARK  Name = 
REMARK  7 active torsions:
REMARK  status: ('A' for Active; 'I' for Inactive)
REMARK    1  A    between atoms: C_1  and  C_2
REMARK    2  A    between atoms: C_2  and  O_3
REMARK    3  A    between atoms: C_4  and  C_5
REMARK    4  A    between atoms: C_5  and  O_6
REMARK    5  A    between atoms: C_8  and  N_9
REMARK    6  A    between atoms: N_14  and  C_15
REMARK    7  A    between atoms: C_26  and  O_27
REMARK                            x       y       z     vdW  Elec       q    Type
REMARK                         _______ _______ _______ _____ _____    ______ ____
ROOT
ATOM      1  N   UNL     1       1.073   9.979  19.138  0.00  0.00    +0.000 N 
ATOM      2  C   UNL     1       1.496  10.082  17.820  0.00  0.00    +0.000 A 
ATOM      3  N   UNL     1       2.208   9.058  17.428  0.00  0.00    +0.000 NA
ATOM      4  C   UNL     1       2.208   8.180  18.499  0.00  0.00    +0.000 A 
ATOM      5  C   UNL     1       2.818   6.888  18.667  0.00  0.00    +0.000 A 
ATOM      6  N   UNL     1       3.628   6.333  17.686  0.00  0.00    +0.000 N 
ATOM      7  N   UNL     1       2.562   6.262  19.843  0.00  0.00    +0.000 NA
ATOM      8  C   UNL     1       1.803   6.893  20.775  0.00  0.00    +0.000 A 
ATOM      9  N   UNL     1       1.247   8.132  20.747  0.00  0.00    +0.000 NA
ATOM     10  C   UNL     1       1.474   8.729  19.569  0.00  0.00    +0.000 A 
ATOM     11  H   UNL     1       3.680   6.922  16.857  0.00  0.00    +0.000 HD
ENDROOT
BRANCH   6  12
ATOM     12  C   UNL     1       4.541   5.161  17.714  0.00  0.00    +0.000 C 
ATOM     13  C   UNL     1       5.497   5.099  18.918  0.00  0.00    +0.000 C 
ATOM     14  C   UNL     1       6.806   5.759  18.397  0.00  0.00    +0.000 C 
ATOM     15  C   UNL     1       7.674   4.688  17.731  0.00  0.00    +0.000 C 
ATOM     16  C   UNL     1       6.737   4.215  16.606  0.00  0.00    +0.000 C 
ATOM     17  C   UNL     1       5.617   5.318  16.572  0.00  0.00    +0.000 C 
ATOM     18  C   UNL     1       6.393   6.515  17.132  0.00  0.00    +0.000 C 
ENDBRANCH   6  12
BRANCH   1  23
ATOM     19  C   UNL     1       1.570  14.233  21.532  0.00  0.00    +0.000 C 
ATOM     20  C   UNL     1       0.644  13.309  20.747  0.00  0.00    +0.000 C 
ATOM     21  C   UNL     1       0.736  13.388  19.225  0.00  0.00    +0.000 C 
ATOM     22  O   UNL     1       0.268  12.116  18.731  0.00  0.00    +0.000 OA
ATOM     23  C   UNL     1       0.375  11.094  19.757  0.00  0.00    +0.000 C 
ATOM     24  C   UNL     1       0.873  11.811  21.039  0.00  0.00    +0.000 C 
BRANCH  20  25
ATOM     25  O   UNL     1      -0.709  13.641  21.138  0.00  0.00    +0.000 OA
ATOM     26  H   UNL     1      -0.835  13.356  22.065  0.00  0.00    +0.000 HD
ENDBRANCH  20  25
BRANCH  24  27
ATOM     27  O   UNL     1       0.096  11.454  22.197  0.00  0.00    +0.000 OA
ATOM     28  H   UNL     1       0.694  10.894  22.747  0.00  0.00    +0.000 HD
ENDBRANCH  24  27
BRANCH  21  29
ATOM     29  C   UNL     1       2.138  13.653  18.666  0.00  0.00    +0.000 C 
BRANCH  29  30
ATOM     30  O   UNL     1       2.249  13.131  17.346  0.00  0.00    +0.000 OA
ATOM     31  H   UNL     1       2.852  13.723  16.860  0.00  0.00    +0.000 HD
ENDBRANCH  29  30
ENDBRANCH  21  29
ENDBRANCH   1  23
TORSDOF 6
ENDMDL
