MODEL 1
REMARK VINA RESULT:      -9.6      0.000      0.000
REMARK  Name = 
REMARK  5 active torsions:
REMARK  status: ('A' for Active; 'I' for Inactive)
REMARK    1  A    between atoms: C_5  and  C_6
REMARK    2  A    between atoms: C_6  and  N_7
REMARK    3  A    between atoms: C_9  and  C_10
REMARK    4  A    between atoms: C_10  and  N_11
REMARK    5  A    between atoms: N_11  and  C_12
REMARK                            x       y       z     vdW  Elec       q    Type
REMARK                         _______ _______ _______ _____ _____    ______ ____
ROOT
ATOM      1  N   UNL     1       3.015   7.102  19.036  0.00  0.00    +0.000 N 
ATOM      2  H   UNL     1       2.571   7.033  19.946  0.00  0.00    +0.000 HD
ENDROOT
BRANCH   1   3
ATOM      3  C   UNL     1       3.215   5.824  18.443  0.00  0.00    +0.000 A 
ATOM      4  C   UNL     1       4.116   5.565  17.369  0.00  0.00    +0.000 A 
ATOM      5  C   UNL     1       4.387   4.226  17.042  0.00  0.00    +0.000 A 
ATOM      6  N   UNL     1       3.789   3.175  17.642  0.00  0.00    +0.000 NA
ATOM      7  C   UNL     1       2.910   3.399  18.617  0.00  0.00    +0.000 A 
ATOM      8  C   UNL     1       2.311   2.275  19.174  0.00  0.00    +0.000 A 
ATOM      9  C   UNL     1       1.373   2.371  20.199  0.00  0.00    +0.000 A 
ATOM     10  C   UNL     1       1.029   3.619  20.688  0.00  0.00    +0.000 A 
ATOM     11  C   UNL     1       1.628   4.759  20.146  0.00  0.00    +0.000 A 
ATOM     12  C   UNL     1       2.582   4.691  19.085  0.00  0.00    +0.000 A 
ATOM     13  C   UNL     1       5.348   3.824  15.948  0.00  0.00    +0.000 C 
ATOM     14  C   UNL     1       6.272   4.934  15.470  0.00  0.00    +0.000 C 
ATOM     15  C   UNL     1       5.466   6.195  15.264  0.00  0.00    +0.000 C 
ATOM     16  C   UNL     1       4.842   6.633  16.583  0.00  0.00    +0.000 C 
ENDBRANCH   1   3
BRANCH   1  17
ATOM     17  C   UNL     1       2.429   8.226  18.318  0.00  0.00    +0.000 C 
BRANCH  17  20
ATOM     18  N   UNL     1      -0.285  10.337  19.400  0.00  0.00    +0.000 N 
ATOM     19  C   UNL     1       0.684  10.117  18.470  0.00  0.00    +0.000 A 
ATOM     20  C   UNL     1       1.426   9.085  19.009  0.00  0.00    +0.000 A 
ATOM     21  N   UNL     1       0.967   8.811  20.269  0.00  0.00    +0.000 NA
ATOM     22  N   UNL     1      -0.074   9.602  20.508  0.00  0.00    +0.000 NA
BRANCH  18  23
ATOM     23  C   UNL     1      -1.443  11.199  19.275  0.00  0.00    +0.000 C 
BRANCH  23  28
ATOM     24  F   UNL     1      -4.399  10.155  14.576  0.00  0.00    +0.000 F 
ATOM     25  C   UNL     1      -3.708  10.383  15.700  0.00  0.00    +0.000 A 
ATOM     26  C   UNL     1      -4.151  11.352  16.592  0.00  0.00    +0.000 A 
ATOM     27  C   UNL     1      -3.422  11.604  17.756  0.00  0.00    +0.000 A 
ATOM     28  C   UNL     1      -2.240  10.895  18.027  0.00  0.00    +0.000 A 
ATOM     29  C   UNL     1      -1.824   9.901  17.123  0.00  0.00    +0.000 A 
ATOM     30  C   UNL     1      -2.557   9.650  15.959  0.00  0.00    +0.000 A 
ENDBRANCH  23  28
ENDBRANCH  18  23
ENDBRANCH  17  20
ENDBRANCH   1  17
TORSDOF 5
ENDMDL
MODEL 2
REMARK VINA RESULT:      -9.5      0.918      1.136
REMARK  Name = 
REMARK  5 active torsions:
REMARK  status: ('A' for Active; 'I' for Inactive)
REMARK    1  A    between atoms: C_5  and  C_6
REMARK    2  A    between atoms: C_6  and  N_7
REMARK    3  A    between atoms: C_9  and  C_10
REMARK    4  A    between atoms: C_10  and  N_11
REMARK    5  A    between atoms: N_11  and  C_12
REMARK                            x       y       z     vdW  Elec       q    Type
REMARK                         _______ _______ _______ _____ _____    ______ ____
ROOT
ATOM      1  N   UNL     1       3.050   7.124  18.735  0.00  0.00    +0.000 N 
ATOM      2  H   UNL     1       2.752   7.141  19.705  0.00  0.00    +0.000 HD
ENDROOT
BRANCH   1   3
ATOM      3  C   UNL     1       3.279   5.798  18.272  0.00  0.00    +0.000 A 
ATOM      4  C   UNL     1       4.205   5.452  17.245  0.00  0.00    +0.000 A 
ATOM      5  C   UNL     1       4.502   4.092  17.053  0.00  0.00    +0.000 A 
ATOM      6  N   UNL     1       3.906   3.094  17.740  0.00  0.00    +0.000 NA
ATOM      7  C   UNL     1       3.005   3.396  18.672  0.00  0.00    +0.000 A 
ATOM      8  C   UNL     1       2.410   2.322  19.324  0.00  0.00    +0.000 A 
ATOM      9  C   UNL     1       1.451   2.501  20.317  0.00  0.00    +0.000 A 
ATOM     10  C   UNL     1       1.080   3.784  20.677  0.00  0.00    +0.000 A 
ATOM     11  C   UNL     1       1.673   4.877  20.038  0.00  0.00    +0.000 A 
ATOM     12  C   UNL     1       2.649   4.723  19.008  0.00  0.00    +0.000 A 
ATOM     13  C   UNL     1       5.491   3.602  16.021  0.00  0.00    +0.000 C 
ATOM     14  C   UNL     1       6.408   4.675  15.456  0.00  0.00    +0.000 C 
ATOM     15  C   UNL     1       5.588   5.898  15.114  0.00  0.00    +0.000 C 
ATOM     16  C   UNL     1       4.932   6.451  16.373  0.00  0.00    +0.000 C 
ENDBRANCH   1   3
BRANCH   1  17
ATOM     17  C   UNL     1       2.262   8.098  17.991  0.00  0.00    +0.000 C 
BRANCH  17  20
ATOM     18  N   UNL     1       0.337  10.897  19.195  0.00  0.00    +0.000 N 
ATOM     19  C   UNL     1       1.230  10.443  18.275  0.00  0.00    +0.000 A 
ATOM     20  C   UNL     1       1.560   9.183  18.733  0.00  0.00    +0.000 A 
ATOM     21  N   UNL     1       0.966   8.977  19.949  0.00  0.00    +0.000 NA
ATOM     22  N   UNL     1       0.232  10.047  20.234  0.00  0.00    +0.000 NA
BRANCH  18  23
ATOM     23  C   UNL     1      -0.464  12.103  19.122  0.00  0.00    +0.000 C 
BRANCH  23  28
ATOM     24  F   UNL     1      -5.751  11.126  17.385  0.00  0.00    +0.000 F 
ATOM     25  C   UNL     1      -4.496  11.335  17.805  0.00  0.00    +0.000 A 
ATOM     26  C   UNL     1      -4.276  11.973  19.019  0.00  0.00    +0.000 A 
ATOM     27  C   UNL     1      -2.968  12.208  19.449  0.00  0.00    +0.000 A 
ATOM     28  C   UNL     1      -1.875  11.814  18.660  0.00  0.00    +0.000 A 
ATOM     29  C   UNL     1      -2.120  11.147  17.446  0.00  0.00    +0.000 A 
ATOM     30  C   UNL     1      -3.431  10.912  17.019  0.00  0.00    +0.000 A 
ENDBRANCH  23  28
ENDBRANCH  18  23
ENDBRANCH  17  20
ENDBRANCH   1  17
TORSDOF 5
ENDMDL
MODEL 3
REMARK VINA RESULT:      -9.4      1.019      3.617
REMARK  Name = 
REMARK  5 active torsions:
REMARK  status: ('A' for Active; 'I' for Inactive)
REMARK    1  A    between atoms: C_5  and  C_6
REMARK    2  A    between atoms: C_6  and  N_7
REMARK    3  A    between atoms: C_9  and  C_10
REMARK    4  A    between atoms: C_10  and  N_11
REMARK    5  A    between atoms: N_11  and  C_12
REMARK                            x       y       z     vdW  Elec       q    Type
REMARK                         _______ _______ _______ _____ _____    ______ ____
ROOT
ATOM      1  N   UNL     1       2.937   7.175  18.962  0.00  0.00    +0.000 N 
ATOM      2  H   UNL     1       2.615   7.210  19.923  0.00  0.00    +0.000 HD
ENDROOT
BRANCH   1   3
ATOM      3  C   UNL     1       3.178   5.842  18.528  0.00  0.00    +0.000 A 
ATOM      4  C   UNL     1       2.455   4.702  18.988  0.00  0.00    +0.000 A 
ATOM      5  C   UNL     1       2.633   3.486  18.306  0.00  0.00    +0.000 A 
ATOM      6  N   UNL     1       3.503   3.324  17.287  0.00  0.00    +0.000 NA
ATOM      7  C   UNL     1       4.221   4.366  16.873  0.00  0.00    +0.000 A 
ATOM      8  C   UNL     1       5.117   4.125  15.838  0.00  0.00    +0.000 A 
ATOM      9  C   UNL     1       5.928   5.128  15.315  0.00  0.00    +0.000 A 
ATOM     10  C   UNL     1       5.839   6.409  15.832  0.00  0.00    +0.000 A 
ATOM     11  C   UNL     1       4.937   6.672  16.867  0.00  0.00    +0.000 A 
ATOM     12  C   UNL     1       4.104   5.660  17.431  0.00  0.00    +0.000 A 
ATOM     13  C   UNL     1       1.899   2.219  18.676  0.00  0.00    +0.000 C 
ATOM     14  C   UNL     1       0.697   2.420  19.585  0.00  0.00    +0.000 C 
ATOM     15  C   UNL     1       1.074   3.361  20.705  0.00  0.00    +0.000 C 
ATOM     16  C   UNL     1       1.467   4.718  20.132  0.00  0.00    +0.000 C 
ENDBRANCH   1   3
BRANCH   1  17
ATOM     17  C   UNL     1       2.169   8.136  18.181  0.00  0.00    +0.000 C 
BRANCH  17  20
ATOM     18  N   UNL     1       0.153  10.909  19.293  0.00  0.00    +0.000 N 
ATOM     19  C   UNL     1       1.058  10.452  18.385  0.00  0.00    +0.000 A 
ATOM     20  C   UNL     1       1.434   9.223  18.887  0.00  0.00    +0.000 A 
ATOM     21  N   UNL     1       0.853   9.041  20.113  0.00  0.00    +0.000 NA
ATOM     22  N   UNL     1       0.083  10.095  20.364  0.00  0.00    +0.000 NA
BRANCH  18  23
ATOM     23  C   UNL     1      -0.690  12.083  19.181  0.00  0.00    +0.000 C 
BRANCH  23  28
ATOM     24  F   UNL     1      -6.010  10.831  17.752  0.00  0.00    +0.000 F 
ATOM     25  C   UNL     1      -4.748  11.108  18.104  0.00  0.00    +0.000 A 
ATOM     26  C   UNL     1      -4.504  12.006  19.135  0.00  0.00    +0.000 A 
ATOM     27  C   UNL     1      -3.188  12.309  19.490  0.00  0.00    +0.000 A 
ATOM     28  C   UNL     1      -2.110  11.722  18.808  0.00  0.00    +0.000 A 
ATOM     29  C   UNL     1      -2.380  10.796  17.784  0.00  0.00    +0.000 A 
ATOM     30  C   UNL     1      -3.698  10.493  17.432  0.00  0.00    +0.000 A 
ENDBRANCH  23  28
ENDBRANCH  18  23
ENDBRANCH  17  20
ENDBRANCH   1  17
TORSDOF 5
ENDMDL
MODEL 4
REMARK VINA RESULT:      -9.4      1.324      1.843
REMARK  Name = 
REMARK  5 active torsions:
REMARK  status: ('A' for Active; 'I' for Inactive)
REMARK    1  A    between atoms: C_5  and  C_6
REMARK    2  A    between atoms: C_6  and  N_7
REMARK    3  A    between atoms: C_9  and  C_10
REMARK    4  A    between atoms: C_10  and  N_11
REMARK    5  A    between atoms: N_11  and  C_12
REMARK                            x       y       z     vdW  Elec       q    Type
REMARK                         _______ _______ _______ _____ _____    ______ ____
ROOT
ATOM      1  N   UNL     1       3.129   7.088  18.562  0.00  0.00    +0.000 N 
ATOM      2  H   UNL     1       3.025   7.147  19.569  0.00  0.00    +0.000 HD
ENDROOT
BRANCH   1   3
ATOM      3  C   UNL     1       3.326   5.749  18.124  0.00  0.00    +0.000 A 
ATOM      4  C   UNL     1       4.266   5.357  17.126  0.00  0.00    +0.000 A 
ATOM      5  C   UNL     1       4.523   3.985  16.961  0.00  0.00    +0.000 A 
ATOM      6  N   UNL     1       3.878   3.018  17.648  0.00  0.00    +0.000 NA
ATOM      7  C   UNL     1       2.964   3.363  18.552  0.00  0.00    +0.000 A 
ATOM      8  C   UNL     1       2.319   2.319  19.205  0.00  0.00    +0.000 A 
ATOM      9  C   UNL     1       1.341   2.545  20.170  0.00  0.00    +0.000 A 
ATOM     10  C   UNL     1       1.003   3.844  20.501  0.00  0.00    +0.000 A 
ATOM     11  C   UNL     1       1.648   4.907  19.863  0.00  0.00    +0.000 A 
ATOM     12  C   UNL     1       2.644   4.706  18.859  0.00  0.00    +0.000 A 
ATOM     13  C   UNL     1       5.521   3.448  15.962  0.00  0.00    +0.000 C 
ATOM     14  C   UNL     1       6.486   4.482  15.406  0.00  0.00    +0.000 C 
ATOM     15  C   UNL     1       5.716   5.725  15.025  0.00  0.00    +0.000 C 
ATOM     16  C   UNL     1       5.047   6.318  16.259  0.00  0.00    +0.000 C 
ENDBRANCH   1   3
BRANCH   1  17
ATOM     17  C   UNL     1       2.166   7.990  17.943  0.00  0.00    +0.000 C 
BRANCH  17  20
ATOM     18  N   UNL     1       0.687  11.001  19.261  0.00  0.00    +0.000 N 
ATOM     19  C   UNL     1       1.477  10.448  18.301  0.00  0.00    +0.000 A 
ATOM     20  C   UNL     1       1.647   9.146  18.727  0.00  0.00    +0.000 A 
ATOM     21  N   UNL     1       1.072   8.998  19.961  0.00  0.00    +0.000 NA
ATOM     22  N   UNL     1       0.502  10.153  20.290  0.00  0.00    +0.000 NA
BRANCH  18  23
ATOM     23  C   UNL     1       0.058  12.306  19.236  0.00  0.00    +0.000 C 
BRANCH  23  28
ATOM     24  F   UNL     1      -5.564  11.818  18.952  0.00  0.00    +0.000 F 
ATOM     25  C   UNL     1      -4.232  11.956  19.011  0.00  0.00    +0.000 A 
ATOM     26  C   UNL     1      -3.442  11.414  18.006  0.00  0.00    +0.000 A 
ATOM     27  C   UNL     1      -2.053  11.541  18.075  0.00  0.00    +0.000 A 
ATOM     28  C   UNL     1      -1.449  12.203  19.157  0.00  0.00    +0.000 A 
ATOM     29  C   UNL     1      -2.270  12.766  20.151  0.00  0.00    +0.000 A 
ATOM     30  C   UNL     1      -3.660  12.638  20.078  0.00  0.00    +0.000 A 
ENDBRANCH  23  28
ENDBRANCH  18  23
ENDBRANCH  17  20
ENDBRANCH   1  17
TORSDOF 5
ENDMDL
MODEL 5
REMARK VINA RESULT:      -9.3      0.891      1.264
REMARK  Name = 
REMARK  5 active torsions:
REMARK  status: ('A' for Active; 'I' for Inactive)
REMARK    1  A    between atoms: C_5  and  C_6
REMARK    2  A    between atoms: C_6  and  N_7
REMARK    3  A    between atoms: C_9  and  C_10
REMARK    4  A    between atoms: C_10  and  N_11
REMARK    5  A    between atoms: N_11  and  C_12
REMARK                            x       y       z     vdW  Elec       q    Type
REMARK                         _______ _______ _______ _____ _____    ______ ____
ROOT
ATOM      1  N   UNL     1       2.243   6.765  17.991  0.00  0.00    +0.000 N 
ATOM      2  H   UNL     1       1.859   6.792  17.052  0.00  0.00    +0.000 HD
ENDROOT
BRANCH   1   3
ATOM      3  C   UNL     1       3.116   5.657  18.178  0.00  0.00    +0.000 A 
ATOM      4  C   UNL     1       4.367   5.494  17.513  0.00  0.00    +0.000 A 
ATOM      5  C   UNL     1       5.230   4.481  17.965  0.00  0.00    +0.000 A 
ATOM      6  N   UNL     1       4.908   3.611  18.946  0.00  0.00    +0.000 NA
ATOM      7  C   UNL     1       3.726   3.719  19.549  0.00  0.00    +0.000 A 
ATOM      8  C   UNL     1       3.448   2.776  20.532  0.00  0.00    +0.000 A 
ATOM      9  C   UNL     1       2.246   2.777  21.235  0.00  0.00    +0.000 A 
ATOM     10  C   UNL     1       1.299   3.747  20.958  0.00  0.00    +0.000 A 
ATOM     11  C   UNL     1       1.565   4.708  19.979  0.00  0.00    +0.000 A 
ATOM     12  C   UNL     1       2.782   4.723  19.233  0.00  0.00    +0.000 A 
ATOM     13  C   UNL     1       6.593   4.232  17.365  0.00  0.00    +0.000 C 
ATOM     14  C   UNL     1       7.124   5.362  16.497  0.00  0.00    +0.000 C 
ATOM     15  C   UNL     1       6.027   5.831  15.569  0.00  0.00    +0.000 C 
ATOM     16  C   UNL     1       4.856   6.369  16.381  0.00  0.00    +0.000 C 
ENDBRANCH   1   3
BRANCH   1  17
ATOM     17  C   UNL     1       2.590   8.123  18.388  0.00  0.00    +0.000 C 
BRANCH  17  20
ATOM     18  N   UNL     1      -0.048  10.214  19.674  0.00  0.00    +0.000 N 
ATOM     19  C   UNL     1       0.956  10.080  18.766  0.00  0.00    +0.000 A 
ATOM     20  C   UNL     1       1.604   8.927  19.163  0.00  0.00    +0.000 A 
ATOM     21  N   UNL     1       1.059   8.488  20.340  0.00  0.00    +0.000 NA
ATOM     22  N   UNL     1       0.056   9.299  20.657  0.00  0.00    +0.000 NA
BRANCH  18  23
ATOM     23  C   UNL     1      -1.144  11.162  19.639  0.00  0.00    +0.000 C 
BRANCH  23  28
ATOM     24  F   UNL     1      -4.408  10.363  15.097  0.00  0.00    +0.000 F 
ATOM     25  C   UNL     1      -3.625  10.572  16.164  0.00  0.00    +0.000 A 
ATOM     26  C   UNL     1      -2.438   9.863  16.294  0.00  0.00    +0.000 A 
ATOM     27  C   UNL     1      -1.630  10.066  17.414  0.00  0.00    +0.000 A 
ATOM     28  C   UNL     1      -2.013  10.974  18.415  0.00  0.00    +0.000 A 
ATOM     29  C   UNL     1      -3.206  11.701  18.252  0.00  0.00    +0.000 A 
ATOM     30  C   UNL     1      -4.012  11.496  17.128  0.00  0.00    +0.000 A 
ENDBRANCH  23  28
ENDBRANCH  18  23
ENDBRANCH  17  20
ENDBRANCH   1  17
TORSDOF 5
ENDMDL
MODEL 6
REMARK VINA RESULT:      -9.3      1.488      1.644
REMARK  Name = 
REMARK  5 active torsions:
REMARK  status: ('A' for Active; 'I' for Inactive)
REMARK    1  A    between atoms: C_5  and  C_6
REMARK    2  A    between atoms: C_6  and  N_7
REMARK    3  A    between atoms: C_9  and  C_10
REMARK    4  A    between atoms: C_10  and  N_11
REMARK    5  A    between atoms: N_11  and  C_12
REMARK                            x       y       z     vdW  Elec       q    Type
REMARK                         _______ _______ _______ _____ _____    ______ ____
ROOT
ATOM      1  N   UNL     1       2.407   6.777  18.417  0.00  0.00    +0.000 N 
ATOM      2  H   UNL     1       2.573   7.535  17.764  0.00  0.00    +0.000 HD
ENDROOT
BRANCH   1   3
ATOM      3  C   UNL     1       3.287   5.680  18.197  0.00  0.00    +0.000 A 
ATOM      4  C   UNL     1       4.685   5.805  17.951  0.00  0.00    +0.000 A 
ATOM      5  C   UNL     1       5.471   4.640  17.987  0.00  0.00    +0.000 A 
ATOM      6  N   UNL     1       4.961   3.404  18.171  0.00  0.00    +0.000 NA
ATOM      7  C   UNL     1       3.650   3.262  18.356  0.00  0.00    +0.000 A 
ATOM      8  C   UNL     1       3.188   1.960  18.514  0.00  0.00    +0.000 A 
ATOM      9  C   UNL     1       1.840   1.676  18.712  0.00  0.00    +0.000 A 
ATOM     10  C   UNL     1       0.929   2.715  18.765  0.00  0.00    +0.000 A 
ATOM     11  C   UNL     1       1.376   4.031  18.618  0.00  0.00    +0.000 A 
ATOM     12  C   UNL     1       2.750   4.351  18.399  0.00  0.00    +0.000 A 
ATOM     13  C   UNL     1       6.966   4.648  17.776  0.00  0.00    +0.000 C 
ATOM     14  C   UNL     1       7.619   6.017  17.886  0.00  0.00    +0.000 C 
ATOM     15  C   UNL     1       6.799   7.021  17.109  0.00  0.00    +0.000 C 
ATOM     16  C   UNL     1       5.398   7.115  17.702  0.00  0.00    +0.000 C 
ENDBRANCH   1   3
BRANCH   1  17
ATOM     17  C   UNL     1       2.166   7.347  19.736  0.00  0.00    +0.000 C 
BRANCH  17  20
ATOM     18  N   UNL     1       0.356  10.439  19.350  0.00  0.00    +0.000 N 
ATOM     19  C   UNL     1       1.357   9.642  18.888  0.00  0.00    +0.000 A 
ATOM     20  C   UNL     1       1.455   8.652  19.844  0.00  0.00    +0.000 A 
ATOM     21  N   UNL     1       0.617   8.948  20.886  0.00  0.00    +0.000 NA
ATOM     22  N   UNL     1      -0.040  10.062  20.581  0.00  0.00    +0.000 NA
BRANCH  18  23
ATOM     23  C   UNL     1      -0.281  11.541  18.657  0.00  0.00    +0.000 C 
BRANCH  23  28
ATOM     24  F   UNL     1      -5.776  10.648  17.693  0.00  0.00    +0.000 F 
ATOM     25  C   UNL     1      -4.473  10.842  17.937  0.00  0.00    +0.000 A 
ATOM     26  C   UNL     1      -4.081  11.852  18.806  0.00  0.00    +0.000 A 
ATOM     27  C   UNL     1      -2.722  12.067  19.048  0.00  0.00    +0.000 A 
ATOM     28  C   UNL     1      -1.750  11.278  18.412  0.00  0.00    +0.000 A 
ATOM     29  C   UNL     1      -2.170  10.244  17.555  0.00  0.00    +0.000 A 
ATOM     30  C   UNL     1      -3.531  10.031  17.316  0.00  0.00    +0.000 A 
ENDBRANCH  23  28
ENDBRANCH  18  23
ENDBRANCH  17  20
ENDBRANCH   1  17
TORSDOF 5
ENDMDL
MODEL 7
REMARK VINA RESULT:      -9.2      2.510      3.049
REMARK  Name = 
REMARK  5 active torsions:
REMARK  status: ('A' for Active; 'I' for Inactive)
REMARK    1  A    between atoms: C_5  and  C_6
REMARK    2  A    between atoms: C_6  and  N_7
REMARK    3  A    between atoms: C_9  and  C_10
REMARK    4  A    between atoms: C_10  and  N_11
REMARK    5  A    between atoms: N_11  and  C_12
REMARK                            x       y       z     vdW  Elec       q    Type
REMARK                         _______ _______ _______ _____ _____    ______ ____
ROOT
ATOM      1  N   UNL     1       2.861   7.181  18.621  0.00  0.00    +0.000 N 
ATOM      2  H   UNL     1       2.686   7.253  19.618  0.00  0.00    +0.000 HD
ENDROOT
BRANCH   1   3
ATOM      3  C   UNL     1       3.198   5.854  18.234  0.00  0.00    +0.000 A 
ATOM      4  C   UNL     1       4.170   5.525  17.244  0.00  0.00    +0.000 A 
ATOM      5  C   UNL     1       4.571   4.183  17.131  0.00  0.00    +0.000 A 
ATOM      6  N   UNL     1       4.036   3.181  17.860  0.00  0.00    +0.000 NA
ATOM      7  C   UNL     1       3.094   3.463  18.758  0.00  0.00    +0.000 A 
ATOM      8  C   UNL     1       2.567   2.382  19.456  0.00  0.00    +0.000 A 
ATOM      9  C   UNL     1       1.576   2.540  20.421  0.00  0.00    +0.000 A 
ATOM     10  C   UNL     1       1.103   3.809  20.705  0.00  0.00    +0.000 A 
ATOM     11  C   UNL     1       1.628   4.908  20.019  0.00  0.00    +0.000 A 
ATOM     12  C   UNL     1       2.634   4.774  19.016  0.00  0.00    +0.000 A 
ATOM     13  C   UNL     1       5.615   3.716  16.144  0.00  0.00    +0.000 C 
ATOM     14  C   UNL     1       6.463   4.824  15.539  0.00  0.00    +0.000 C 
ATOM     15  C   UNL     1       5.562   5.962  15.118  0.00  0.00    +0.000 C 
ATOM     16  C   UNL     1       4.839   6.529  16.333  0.00  0.00    +0.000 C 
ENDBRANCH   1   3
BRANCH   1  17
ATOM     17  C   UNL     1       1.870   7.984  17.918  0.00  0.00    +0.000 C 
BRANCH  17  20
ATOM     18  N   UNL     1       1.323  11.097  19.650  0.00  0.00    +0.000 N 
ATOM     19  C   UNL     1       1.059   9.763  19.597  0.00  0.00    +0.000 A 
ATOM     20  C   UNL     1       1.594   9.372  18.387  0.00  0.00    +0.000 A 
ATOM     21  N   UNL     1       2.040  10.477  17.713  0.00  0.00    +0.000 NA
ATOM     22  N   UNL     1       1.849  11.537  18.491  0.00  0.00    +0.000 NA
BRANCH  18  23
ATOM     23  C   UNL     1       1.130  11.987  20.778  0.00  0.00    +0.000 C 
BRANCH  23  28
ATOM     24  F   UNL     1      -4.360  12.527  21.996  0.00  0.00    +0.000 F 
ATOM     25  C   UNL     1      -3.054  12.421  21.717  0.00  0.00    +0.000 A 
ATOM     26  C   UNL     1      -2.603  12.695  20.432  0.00  0.00    +0.000 A 
ATOM     27  C   UNL     1      -1.244  12.567  20.135  0.00  0.00    +0.000 A 
ATOM     28  C   UNL     1      -0.333  12.153  21.121  0.00  0.00    +0.000 A 
ATOM     29  C   UNL     1      -0.808  11.905  22.421  0.00  0.00    +0.000 A 
ATOM     30  C   UNL     1      -2.168  12.035  22.716  0.00  0.00    +0.000 A 
ENDBRANCH  23  28
ENDBRANCH  18  23
ENDBRANCH  17  20
ENDBRANCH   1  17
TORSDOF 5
ENDMDL
MODEL 8
REMARK VINA RESULT:      -9.2      1.347      3.677
REMARK  Name = 
REMARK  5 active torsions:
REMARK  status: ('A' for Active; 'I' for Inactive)
REMARK    1  A    between atoms: C_5  and  C_6
REMARK    2  A    between atoms: C_6  and  N_7
REMARK    3  A    between atoms: C_9  and  C_10
REMARK    4  A    between atoms: C_10  and  N_11
REMARK    5  A    between atoms: N_11  and  C_12
REMARK                            x       y       z     vdW  Elec       q    Type
REMARK                         _______ _______ _______ _____ _____    ______ ____
ROOT
ATOM      1  N   UNL     1       3.603   6.637  19.717  0.00  0.00    +0.000 N 
ATOM      2  H   UNL     1       4.195   6.651  20.540  0.00  0.00    +0.000 HD
ENDROOT
BRANCH   1   3
ATOM      3  C   UNL     1       3.735   5.424  18.985  0.00  0.00    +0.000 A 
ATOM      4  C   UNL     1       2.820   4.334  19.060  0.00  0.00    +0.000 A 
ATOM      5  C   UNL     1       2.941   3.302  18.114  0.00  0.00    +0.000 A 
ATOM      6  N   UNL     1       3.919   3.253  17.185  0.00  0.00    +0.000 NA
ATOM      7  C   UNL     1       4.812   4.240  17.129  0.00  0.00    +0.000 A 
ATOM      8  C   UNL     1       5.807   4.116  16.167  0.00  0.00    +0.000 A 
ATOM      9  C   UNL     1       6.802   5.077  16.007  0.00  0.00    +0.000 A 
ATOM     10  C   UNL     1       6.800   6.196  16.820  0.00  0.00    +0.000 A 
ATOM     11  C   UNL     1       5.801   6.343  17.787  0.00  0.00    +0.000 A 
ATOM     12  C   UNL     1       4.778   5.366  17.983  0.00  0.00    +0.000 A 
ATOM     13  C   UNL     1       2.011   2.112  18.069  0.00  0.00    +0.000 C 
ATOM     14  C   UNL     1       0.727   2.276  18.866  0.00  0.00    +0.000 C 
ATOM     15  C   UNL     1       1.056   2.854  20.222  0.00  0.00    +0.000 C 
ATOM     16  C   UNL     1       1.690   4.230  20.059  0.00  0.00    +0.000 C 
ENDBRANCH   1   3
BRANCH   1  17
ATOM     17  C   UNL     1       2.312   7.216  20.065  0.00  0.00    +0.000 C 
BRANCH  17  20
ATOM     18  N   UNL     1       0.839  10.150  18.578  0.00  0.00    +0.000 N 
ATOM     19  C   UNL     1       0.736   9.183  19.530  0.00  0.00    +0.000 A 
ATOM     20  C   UNL     1       1.751   8.304  19.214  0.00  0.00    +0.000 A 
ATOM     21  N   UNL     1       2.337   8.694  18.040  0.00  0.00    +0.000 NA
ATOM     22  N   UNL     1       1.753   9.821  17.645  0.00  0.00    +0.000 NA
BRANCH  18  23
ATOM     23  C   UNL     1       0.127  11.411  18.524  0.00  0.00    +0.000 C 
BRANCH  23  28
ATOM     24  F   UNL     1      -5.404  10.763  17.570  0.00  0.00    +0.000 F 
ATOM     25  C   UNL     1      -4.093  10.897  17.810  0.00  0.00    +0.000 A 
ATOM     26  C   UNL     1      -3.660  11.816  18.758  0.00  0.00    +0.000 A 
ATOM     27  C   UNL     1      -2.293  11.970  18.997  0.00  0.00    +0.000 A 
ATOM     28  C   UNL     1      -1.353  11.212  18.279  0.00  0.00    +0.000 A 
ATOM     29  C   UNL     1      -1.814  10.270  17.342  0.00  0.00    +0.000 A 
ATOM     30  C   UNL     1      -3.183  10.117  17.107  0.00  0.00    +0.000 A 
ENDBRANCH  23  28
ENDBRANCH  18  23
ENDBRANCH  17  20
ENDBRANCH   1  17
TORSDOF 5
ENDMDL
MODEL 9
REMARK VINA RESULT:      -9.2      1.075      3.660
REMARK  Name = 
REMARK  5 active torsions:
REMARK  status: ('A' for Active; 'I' for Inactive)
REMARK    1  A    between atoms: C_5  and  C_6
REMARK    2  A    between atoms: C_6  and  N_7
REMARK    3  A    between atoms: C_9  and  C_10
REMARK    4  A    between atoms: C_10  and  N_11
REMARK    5  A    between atoms: N_11  and  C_12
REMARK                            x       y       z     vdW  Elec       q    Type
REMARK                         _______ _______ _______ _____ _____    ______ ____
ROOT
ATOM      1  N   UNL     1       3.255   6.941  19.097  0.00  0.00    +0.000 N 
ATOM      2  H   UNL     1       3.045   6.911  20.090  0.00  0.00    +0.000 HD
ENDROOT
BRANCH   1   3
ATOM      3  C   UNL     1       3.526   5.648  18.570  0.00  0.00    +0.000 A 
ATOM      4  C   UNL     1       2.690   4.508  18.759  0.00  0.00    +0.000 A 
ATOM      5  C   UNL     1       2.952   3.361  17.991  0.00  0.00    +0.000 A 
ATOM      6  N   UNL     1       3.994   3.256  17.139  0.00  0.00    +0.000 NA
ATOM      7  C   UNL     1       4.813   4.294  16.984  0.00  0.00    +0.000 A 
ATOM      8  C   UNL     1       5.880   4.111  16.112  0.00  0.00    +0.000 A 
ATOM      9  C   UNL     1       6.810   5.117  15.863  0.00  0.00    +0.000 A 
ATOM     10  C   UNL     1       6.669   6.340  16.493  0.00  0.00    +0.000 A 
ATOM     11  C   UNL     1       5.597   6.546  17.366  0.00  0.00    +0.000 A 
ATOM     12  C   UNL     1       4.637   5.528  17.650  0.00  0.00    +0.000 A 
ATOM     13  C   UNL     1       2.117   2.105  18.076  0.00  0.00    +0.000 C 
ATOM     14  C   UNL     1       0.772   2.278  18.764  0.00  0.00    +0.000 C 
ATOM     15  C   UNL     1       0.962   3.077  20.031  0.00  0.00    +0.000 C 
ATOM     16  C   UNL     1       1.503   4.461  19.695  0.00  0.00    +0.000 C 
ENDBRANCH   1   3
BRANCH   1  17
ATOM     17  C   UNL     1       2.342   7.881  18.460  0.00  0.00    +0.000 C 
BRANCH  17  20
ATOM     18  N   UNL     1       0.375  10.524  19.921  0.00  0.00    +0.000 N 
ATOM     19  C   UNL     1       1.215  10.153  18.917  0.00  0.00    +0.000 A 
ATOM     20  C   UNL     1       1.646   8.898  19.297  0.00  0.00    +0.000 A 
ATOM     21  N   UNL     1       1.162   8.616  20.546  0.00  0.00    +0.000 NA
ATOM     22  N   UNL     1       0.397   9.632  20.930  0.00  0.00    +0.000 NA
BRANCH  18  23
ATOM     23  C   UNL     1      -0.492  11.685  19.959  0.00  0.00    +0.000 C 
BRANCH  23  28
ATOM     24  F   UNL     1      -5.373  10.675  17.299  0.00  0.00    +0.000 F 
ATOM     25  C   UNL     1      -4.211  10.931  17.914  0.00  0.00    +0.000 A 
ATOM     26  C   UNL     1      -3.113  10.115  17.673  0.00  0.00    +0.000 A 
ATOM     27  C   UNL     1      -1.906  10.371  18.327  0.00  0.00    +0.000 A 
ATOM     28  C   UNL     1      -1.796  11.438  19.233  0.00  0.00    +0.000 A 
ATOM     29  C   UNL     1      -2.913  12.267  19.443  0.00  0.00    +0.000 A 
ATOM     30  C   UNL     1      -4.119  12.010  18.786  0.00  0.00    +0.000 A 
ENDBRANCH  23  28
ENDBRANCH  18  23
ENDBRANCH  17  20
ENDBRANCH   1  17
TORSDOF 5
ENDMDL
