MODEL 1
REMARK VINA RESULT:      -8.1      0.000      0.000
REMARK  Name = 
REMARK  2 active torsions:
REMARK  status: ('A' for Active; 'I' for Inactive)
REMARK    1  A    between atoms: C_1  and  N_2
REMARK    2  A    between atoms: N_7  and  C_8
REMARK                            x       y       z     vdW  Elec       q    Type
REMARK                         _______ _______ _______ _____ _____    ______ ____
ROOT
ATOM      1  C   UNL     1       0.683  10.376  19.316  0.00  0.00    +0.000 C 
ATOM      2  N   UNL     1       1.390   9.113  19.197  0.00  0.00    +0.000 N 
ATOM      3  C   UNL     1       2.347   8.964  18.213  0.00  0.00    +0.000 A 
ATOM      4  O   UNL     1       2.619   9.888  17.452  0.00  0.00    +0.000 OA
ATOM      5  N   UNL     1       3.021   7.786  18.092  0.00  0.00    +0.000 NA
ATOM      6  C   UNL     1       2.908   6.763  18.880  0.00  0.00    +0.000 A 
ATOM      7  N   UNL     1       3.665   5.569  18.759  0.00  0.00    +0.000 N 
ATOM      8  C   UNL     1       3.395   4.523  19.722  0.00  0.00    +0.000 A 
ATOM      9  C   UNL     1       4.137   3.329  19.805  0.00  0.00    +0.000 A 
ATOM     10  C   UNL     1       3.792   2.304  20.693  0.00  0.00    +0.000 A 
ATOM     11  C   UNL     1       2.731   2.474  21.570  0.00  0.00    +0.000 A 
ATOM     12  C   UNL     1       2.036   3.679  21.571  0.00  0.00    +0.000 A 
ATOM     13  C   UNL     1       2.354   4.700  20.665  0.00  0.00    +0.000 A 
ATOM     14  N   UNL     1       1.619   5.882  20.778  0.00  0.00    +0.000 NA
ATOM     15  C   UNL     1       1.876   6.863  19.971  0.00  0.00    +0.000 A 
ATOM     16  C   UNL     1       1.096   8.141  20.124  0.00  0.00    +0.000 A 
ATOM     17  O   UNL     1       0.277   8.265  21.026  0.00  0.00    +0.000 OA
ENDROOT
BRANCH   7  18
ATOM     18  C   UNL     1       4.588   5.440  17.651  0.00  0.00    +0.000 A 
ATOM     19  C   UNL     1       4.300   4.625  16.533  0.00  0.00    +0.000 A 
ATOM     20  C   UNL     1       5.196   4.474  15.467  0.00  0.00    +0.000 A 
ATOM     21  C   UNL     1       6.386   5.188  15.459  0.00  0.00    +0.000 A 
ATOM     22  C   UNL     1       6.685   6.003  16.537  0.00  0.00    +0.000 A 
ATOM     23  F   UNL     1       7.819   6.716  16.528  0.00  0.00    +0.000 F 
ATOM     24  C   UNL     1       5.830   6.099  17.636  0.00  0.00    +0.000 A 
ENDBRANCH   7  18
TORSDOF 1
ENDMDL
MODEL 2
REMARK VINA RESULT:      -8.0      0.919      1.336
REMARK  Name = 
REMARK  2 active torsions:
REMARK  status: ('A' for Active; 'I' for Inactive)
REMARK    1  A    between atoms: C_1  and  N_2
REMARK    2  A    between atoms: N_7  and  C_8
REMARK                            x       y       z     vdW  Elec       q    Type
REMARK                         _______ _______ _______ _____ _____    ______ ____
ROOT
ATOM      1  C   UNL     1       0.703  10.338  19.348  0.00  0.00    +0.000 C 
ATOM      2  N   UNL     1       1.436   9.090  19.218  0.00  0.00    +0.000 N 
ATOM      3  C   UNL     1       2.414   8.977  18.250  0.00  0.00    +0.000 A 
ATOM      4  O   UNL     1       2.685   9.922  17.514  0.00  0.00    +0.000 OA
ATOM      5  N   UNL     1       3.111   7.814  18.120  0.00  0.00    +0.000 NA
ATOM      6  C   UNL     1       3.001   6.773  18.885  0.00  0.00    +0.000 A 
ATOM      7  N   UNL     1       3.781   5.596  18.755  0.00  0.00    +0.000 N 
ATOM      8  C   UNL     1       3.511   4.526  19.692  0.00  0.00    +0.000 A 
ATOM      9  C   UNL     1       4.273   3.343  19.765  0.00  0.00    +0.000 A 
ATOM     10  C   UNL     1       3.928   2.295  20.625  0.00  0.00    +0.000 A 
ATOM     11  C   UNL     1       2.847   2.428  21.484  0.00  0.00    +0.000 A 
ATOM     12  C   UNL     1       2.131   3.621  21.495  0.00  0.00    +0.000 A 
ATOM     13  C   UNL     1       2.449   4.666  20.616  0.00  0.00    +0.000 A 
ATOM     14  N   UNL     1       1.690   5.832  20.738  0.00  0.00    +0.000 NA
ATOM     15  C   UNL     1       1.946   6.834  19.956  0.00  0.00    +0.000 A 
ATOM     16  C   UNL     1       1.141   8.094  20.119  0.00  0.00    +0.000 A 
ATOM     17  O   UNL     1       0.301   8.185  21.007  0.00  0.00    +0.000 OA
ENDROOT
BRANCH   7  18
ATOM     18  C   UNL     1       4.729   5.506  17.663  0.00  0.00    +0.000 A 
ATOM     19  C   UNL     1       6.026   6.057  17.756  0.00  0.00    +0.000 A 
ATOM     20  C   UNL     1       6.942   5.997  16.697  0.00  0.00    +0.000 A 
ATOM     21  C   UNL     1       6.605   5.324  15.532  0.00  0.00    +0.000 A 
ATOM     22  C   UNL     1       5.343   4.765  15.421  0.00  0.00    +0.000 A 
ATOM     23  F   UNL     1       5.017   4.092  14.310  0.00  0.00    +0.000 F 
ATOM     24  C   UNL     1       4.402   4.887  16.444  0.00  0.00    +0.000 A 
ENDBRANCH   7  18
TORSDOF 1
ENDMDL
MODEL 3
REMARK VINA RESULT:      -7.4      1.785      4.630
REMARK  Name = 
REMARK  2 active torsions:
REMARK  status: ('A' for Active; 'I' for Inactive)
REMARK    1  A    between atoms: C_1  and  N_2
REMARK    2  A    between atoms: N_7  and  C_8
REMARK                            x       y       z     vdW  Elec       q    Type
REMARK                         _______ _______ _______ _____ _____    ______ ____
ROOT
ATOM      1  C   UNL     1       0.755  10.738  19.798  0.00  0.00    +0.000 C 
ATOM      2  N   UNL     1       1.388   9.467  19.494  0.00  0.00    +0.000 N 
ATOM      3  C   UNL     1       1.124   8.372  20.293  0.00  0.00    +0.000 A 
ATOM      4  O   UNL     1       0.350   8.456  21.242  0.00  0.00    +0.000 OA
ATOM      5  N   UNL     1       1.707   7.172  20.018  0.00  0.00    +0.000 NA
ATOM      6  C   UNL     1       2.466   6.913  18.998  0.00  0.00    +0.000 A 
ATOM      7  N   UNL     1       3.014   5.637  18.710  0.00  0.00    +0.000 N 
ATOM      8  C   UNL     1       3.852   5.537  17.534  0.00  0.00    +0.000 A 
ATOM      9  C   UNL     1       4.377   4.321  17.052  0.00  0.00    +0.000 A 
ATOM     10  C   UNL     1       5.253   4.275  15.962  0.00  0.00    +0.000 A 
ATOM     11  C   UNL     1       5.577   5.439  15.282  0.00  0.00    +0.000 A 
ATOM     12  C   UNL     1       5.003   6.642  15.682  0.00  0.00    +0.000 A 
ATOM     13  C   UNL     1       4.148   6.704  16.792  0.00  0.00    +0.000 A 
ATOM     14  N   UNL     1       3.598   7.954  17.082  0.00  0.00    +0.000 NA
ATOM     15  C   UNL     1       2.794   8.069  18.092  0.00  0.00    +0.000 A 
ATOM     16  C   UNL     1       2.186   9.415  18.375  0.00  0.00    +0.000 A 
ATOM     17  O   UNL     1       2.405  10.365  17.633  0.00  0.00    +0.000 OA
ENDROOT
BRANCH   7  18
ATOM     18  C   UNL     1       2.774   4.551  19.637  0.00  0.00    +0.000 A 
ATOM     19  C   UNL     1       1.491   4.301  20.173  0.00  0.00    +0.000 A 
ATOM     20  C   UNL     1       1.252   3.267  21.090  0.00  0.00    +0.000 A 
ATOM     21  C   UNL     1       2.283   2.411  21.448  0.00  0.00    +0.000 A 
ATOM     22  C   UNL     1       3.547   2.629  20.926  0.00  0.00    +0.000 A 
ATOM     23  F   UNL     1       4.544   1.793  21.245  0.00  0.00    +0.000 F 
ATOM     24  C   UNL     1       3.806   3.701  20.071  0.00  0.00    +0.000 A 
ENDBRANCH   7  18
TORSDOF 1
ENDMDL
MODEL 4
REMARK VINA RESULT:      -7.4      2.899      5.270
REMARK  Name = 
REMARK  2 active torsions:
REMARK  status: ('A' for Active; 'I' for Inactive)
REMARK    1  A    between atoms: C_1  and  N_2
REMARK    2  A    between atoms: N_7  and  C_8
REMARK                            x       y       z     vdW  Elec       q    Type
REMARK                         _______ _______ _______ _____ _____    ______ ____
ROOT
ATOM      1  C   UNL     1       6.565   5.062  14.549  0.00  0.00    +0.000 C 
ATOM      2  N   UNL     1       5.631   5.204  15.653  0.00  0.00    +0.000 N 
ATOM      3  C   UNL     1       5.008   6.419  15.859  0.00  0.00    +0.000 A 
ATOM      4  O   UNL     1       5.217   7.370  15.112  0.00  0.00    +0.000 OA
ATOM      5  N   UNL     1       4.127   6.566  16.888  0.00  0.00    +0.000 NA
ATOM      6  C   UNL     1       3.738   5.627  17.694  0.00  0.00    +0.000 A 
ATOM      7  N   UNL     1       2.778   5.800  18.723  0.00  0.00    +0.000 N 
ATOM      8  C   UNL     1       2.475   4.641  19.537  0.00  0.00    +0.000 A 
ATOM      9  C   UNL     1       1.467   4.621  20.520  0.00  0.00    +0.000 A 
ATOM     10  C   UNL     1       1.262   3.510  21.346  0.00  0.00    +0.000 A 
ATOM     11  C   UNL     1       2.019   2.362  21.165  0.00  0.00    +0.000 A 
ATOM     12  C   UNL     1       2.962   2.324  20.142  0.00  0.00    +0.000 A 
ATOM     13  C   UNL     1       3.196   3.442  19.330  0.00  0.00    +0.000 A 
ATOM     14  N   UNL     1       4.137   3.281  18.309  0.00  0.00    +0.000 NA
ATOM     15  C   UNL     1       4.388   4.280  17.522  0.00  0.00    +0.000 A 
ATOM     16  C   UNL     1       5.381   4.084  16.409  0.00  0.00    +0.000 A 
ATOM     17  O   UNL     1       5.897   2.989  16.222  0.00  0.00    +0.000 OA
ENDROOT
BRANCH   7  18
ATOM     18  C   UNL     1       2.227   7.121  18.946  0.00  0.00    +0.000 A 
ATOM     19  C   UNL     1       2.000   8.022  17.881  0.00  0.00    +0.000 A 
ATOM     20  C   UNL     1       1.491   9.310  18.088  0.00  0.00    +0.000 A 
ATOM     21  C   UNL     1       1.132   9.714  19.366  0.00  0.00    +0.000 A 
ATOM     22  C   UNL     1       1.333   8.843  20.424  0.00  0.00    +0.000 A 
ATOM     23  F   UNL     1       0.967   9.213  21.659  0.00  0.00    +0.000 F 
ATOM     24  C   UNL     1       1.909   7.587  20.233  0.00  0.00    +0.000 A 
ENDBRANCH   7  18
TORSDOF 1
ENDMDL
MODEL 5
REMARK VINA RESULT:      -7.4      2.306      4.918
REMARK  Name = 
REMARK  2 active torsions:
REMARK  status: ('A' for Active; 'I' for Inactive)
REMARK    1  A    between atoms: C_1  and  N_2
REMARK    2  A    between atoms: N_7  and  C_8
REMARK                            x       y       z     vdW  Elec       q    Type
REMARK                         _______ _______ _______ _____ _____    ______ ____
ROOT
ATOM      1  C   UNL     1       0.760  11.192  19.523  0.00  0.00    +0.000 C 
ATOM      2  N   UNL     1       1.311   9.871  19.275  0.00  0.00    +0.000 N 
ATOM      3  C   UNL     1       0.858   8.799  20.018  0.00  0.00    +0.000 A 
ATOM      4  O   UNL     1      -0.016   8.945  20.868  0.00  0.00    +0.000 OA
ATOM      5  N   UNL     1       1.363   7.554  19.794  0.00  0.00    +0.000 NA
ATOM      6  C   UNL     1       2.214   7.236  18.868  0.00  0.00    +0.000 A 
ATOM      7  N   UNL     1       2.680   5.918  18.626  0.00  0.00    +0.000 N 
ATOM      8  C   UNL     1       3.642   5.751  17.557  0.00  0.00    +0.000 A 
ATOM      9  C   UNL     1       4.113   4.498  17.120  0.00  0.00    +0.000 A 
ATOM     10  C   UNL     1       5.107   4.381  16.143  0.00  0.00    +0.000 A 
ATOM     11  C   UNL     1       5.612   5.517  15.528  0.00  0.00    +0.000 A 
ATOM     12  C   UNL     1       5.101   6.763  15.877  0.00  0.00    +0.000 A 
ATOM     13  C   UNL     1       4.127   6.893  16.876  0.00  0.00    +0.000 A 
ATOM     14  N   UNL     1       3.657   8.185  17.120  0.00  0.00    +0.000 NA
ATOM     15  C   UNL     1       2.749   8.364  18.029  0.00  0.00    +0.000 A 
ATOM     16  C   UNL     1       2.231   9.757  18.260  0.00  0.00    +0.000 A 
ATOM     17  O   UNL     1       2.621  10.689  17.567  0.00  0.00    +0.000 OA
ENDROOT
BRANCH   7  18
ATOM     18  C   UNL     1       2.235   4.851  19.498  0.00  0.00    +0.000 A 
ATOM     19  C   UNL     1       2.679   4.749  20.835  0.00  0.00    +0.000 A 
ATOM     20  C   UNL     1       2.274   3.707  21.680  0.00  0.00    +0.000 A 
ATOM     21  C   UNL     1       1.358   2.768  21.227  0.00  0.00    +0.000 A 
ATOM     22  C   UNL     1       0.899   2.854  19.924  0.00  0.00    +0.000 A 
ATOM     23  F   UNL     1      -0.004   1.968  19.485  0.00  0.00    +0.000 F 
ATOM     24  C   UNL     1       1.356   3.846  19.056  0.00  0.00    +0.000 A 
ENDBRANCH   7  18
TORSDOF 1
ENDMDL
MODEL 6
REMARK VINA RESULT:      -7.3      2.656      5.171
REMARK  Name = 
REMARK  2 active torsions:
REMARK  status: ('A' for Active; 'I' for Inactive)
REMARK    1  A    between atoms: C_1  and  N_2
REMARK    2  A    between atoms: N_7  and  C_8
REMARK                            x       y       z     vdW  Elec       q    Type
REMARK                         _______ _______ _______ _____ _____    ______ ____
ROOT
ATOM      1  C   UNL     1       6.532   5.092  14.574  0.00  0.00    +0.000 C 
ATOM      2  N   UNL     1       5.637   5.214  15.712  0.00  0.00    +0.000 N 
ATOM      3  C   UNL     1       4.993   6.414  15.940  0.00  0.00    +0.000 A 
ATOM      4  O   UNL     1       5.151   7.368  15.184  0.00  0.00    +0.000 OA
ATOM      5  N   UNL     1       4.149   6.542  17.001  0.00  0.00    +0.000 NA
ATOM      6  C   UNL     1       3.813   5.596  17.822  0.00  0.00    +0.000 A 
ATOM      7  N   UNL     1       2.888   5.749  18.886  0.00  0.00    +0.000 N 
ATOM      8  C   UNL     1       2.644   4.585  19.712  0.00  0.00    +0.000 A 
ATOM      9  C   UNL     1       1.674   4.543  20.733  0.00  0.00    +0.000 A 
ATOM     10  C   UNL     1       1.527   3.429  21.567  0.00  0.00    +0.000 A 
ATOM     11  C   UNL     1       2.304   2.300  21.359  0.00  0.00    +0.000 A 
ATOM     12  C   UNL     1       3.207   2.281  20.302  0.00  0.00    +0.000 A 
ATOM     13  C   UNL     1       3.385   3.403  19.480  0.00  0.00    +0.000 A 
ATOM     14  N   UNL     1       4.290   3.262  18.425  0.00  0.00    +0.000 NA
ATOM     15  C   UNL     1       4.487   4.265  17.628  0.00  0.00    +0.000 A 
ATOM     16  C   UNL     1       5.442   4.090  16.479  0.00  0.00    +0.000 A 
ATOM     17  O   UNL     1       5.977   3.007  16.274  0.00  0.00    +0.000 OA
ENDROOT
BRANCH   7  18
ATOM     18  C   UNL     1       2.314   7.056  19.128  0.00  0.00    +0.000 A 
ATOM     19  C   UNL     1       1.890   7.456  20.414  0.00  0.00    +0.000 A 
ATOM     20  C   UNL     1       1.311   8.710  20.655  0.00  0.00    +0.000 A 
ATOM     21  C   UNL     1       1.199   9.628  19.621  0.00  0.00    +0.000 A 
ATOM     22  C   UNL     1       1.619   9.263  18.353  0.00  0.00    +0.000 A 
ATOM     23  F   UNL     1       1.538  10.150  17.352  0.00  0.00    +0.000 F 
ATOM     24  C   UNL     1       2.127   7.990  18.093  0.00  0.00    +0.000 A 
ENDBRANCH   7  18
TORSDOF 1
ENDMDL
MODEL 7
REMARK VINA RESULT:      -7.3      2.134      4.792
REMARK  Name = 
REMARK  2 active torsions:
REMARK  status: ('A' for Active; 'I' for Inactive)
REMARK    1  A    between atoms: C_1  and  N_2
REMARK    2  A    between atoms: N_7  and  C_8
REMARK                            x       y       z     vdW  Elec       q    Type
REMARK                         _______ _______ _______ _____ _____    ______ ____
ROOT
ATOM      1  C   UNL     1       0.835  10.278  19.794  0.00  0.00    +0.000 C 
ATOM      2  N   UNL     1       1.540   9.054  19.456  0.00  0.00    +0.000 N 
ATOM      3  C   UNL     1       1.398   7.946  20.269  0.00  0.00    +0.000 A 
ATOM      4  O   UNL     1       0.671   7.978  21.258  0.00  0.00    +0.000 OA
ATOM      5  N   UNL     1       2.050   6.790  19.963  0.00  0.00    +0.000 NA
ATOM      6  C   UNL     1       2.770   6.582  18.904  0.00  0.00    +0.000 A 
ATOM      7  N   UNL     1       3.392   5.348  18.587  0.00  0.00    +0.000 N 
ATOM      8  C   UNL     1       4.171   5.302  17.368  0.00  0.00    +0.000 A 
ATOM      9  C   UNL     1       4.754   4.126  16.858  0.00  0.00    +0.000 A 
ATOM     10  C   UNL     1       5.572   4.138  15.723  0.00  0.00    +0.000 A 
ATOM     11  C   UNL     1       5.775   5.320  15.027  0.00  0.00    +0.000 A 
ATOM     12  C   UNL     1       5.139   6.480  15.457  0.00  0.00    +0.000 A 
ATOM     13  C   UNL     1       4.343   6.485  16.610  0.00  0.00    +0.000 A 
ATOM     14  N   UNL     1       3.721   7.694  16.930  0.00  0.00    +0.000 NA
ATOM     15  C   UNL     1       2.966   7.755  17.981  0.00  0.00    +0.000 A 
ATOM     16  C   UNL     1       2.278   9.055  18.297  0.00  0.00    +0.000 A 
ATOM     17  O   UNL     1       2.389  10.016  17.544  0.00  0.00    +0.000 OA
ENDROOT
BRANCH   7  18
ATOM     18  C   UNL     1       3.280   4.250  19.525  0.00  0.00    +0.000 A 
ATOM     19  C   UNL     1       4.375   3.407  19.818  0.00  0.00    +0.000 A 
ATOM     20  C   UNL     1       4.270   2.328  20.706  0.00  0.00    +0.000 A 
ATOM     21  C   UNL     1       3.078   2.099  21.378  0.00  0.00    +0.000 A 
ATOM     22  C   UNL     1       1.994   2.920  21.116  0.00  0.00    +0.000 A 
ATOM     23  F   UNL     1       0.846   2.724  21.778  0.00  0.00    +0.000 F 
ATOM     24  C   UNL     1       2.071   3.950  20.178  0.00  0.00    +0.000 A 
ENDBRANCH   7  18
TORSDOF 1
ENDMDL
MODEL 8
REMARK VINA RESULT:      -7.3      3.054      6.191
REMARK  Name = 
REMARK  2 active torsions:
REMARK  status: ('A' for Active; 'I' for Inactive)
REMARK    1  A    between atoms: C_1  and  N_2
REMARK    2  A    between atoms: N_7  and  C_8
REMARK                            x       y       z     vdW  Elec       q    Type
REMARK                         _______ _______ _______ _____ _____    ______ ____
ROOT
ATOM      1  C   UNL     1       6.519   4.842  14.697  0.00  0.00    +0.000 C 
ATOM      2  N   UNL     1       5.525   5.167  15.705  0.00  0.00    +0.000 N 
ATOM      3  C   UNL     1       5.087   4.180  16.566  0.00  0.00    +0.000 A 
ATOM      4  O   UNL     1       5.539   3.041  16.502  0.00  0.00    +0.000 OA
ATOM      5  N   UNL     1       4.159   4.472  17.520  0.00  0.00    +0.000 NA
ATOM      6  C   UNL     1       3.667   5.646  17.766  0.00  0.00    +0.000 A 
ATOM      7  N   UNL     1       2.741   5.927  18.803  0.00  0.00    +0.000 N 
ATOM      8  C   UNL     1       2.288   7.297  18.921  0.00  0.00    +0.000 A 
ATOM      9  C   UNL     1       1.460   7.756  19.964  0.00  0.00    +0.000 A 
ATOM     10  C   UNL     1       0.972   9.067  19.998  0.00  0.00    +0.000 A 
ATOM     11  C   UNL     1       1.355   9.975  19.022  0.00  0.00    +0.000 A 
ATOM     12  C   UNL     1       2.243   9.572  18.029  0.00  0.00    +0.000 A 
ATOM     13  C   UNL     1       2.712   8.252  17.969  0.00  0.00    +0.000 A 
ATOM     14  N   UNL     1       3.629   7.966  16.955  0.00  0.00    +0.000 NA
ATOM     15  C   UNL     1       4.103   6.763  16.856  0.00  0.00    +0.000 A 
ATOM     16  C   UNL     1       5.112   6.476  15.778  0.00  0.00    +0.000 A 
ATOM     17  O   UNL     1       5.513   7.374  15.047  0.00  0.00    +0.000 OA
ENDROOT
BRANCH   7  18
ATOM     18  C   UNL     1       2.251   4.831  19.614  0.00  0.00    +0.000 A 
ATOM     19  C   UNL     1       2.651   4.665  20.958  0.00  0.00    +0.000 A 
ATOM     20  C   UNL     1       2.203   3.595  21.745  0.00  0.00    +0.000 A 
ATOM     21  C   UNL     1       1.287   2.692  21.224  0.00  0.00    +0.000 A 
ATOM     22  C   UNL     1       0.871   2.842  19.912  0.00  0.00    +0.000 A 
ATOM     23  F   UNL     1      -0.032   1.991  19.407  0.00  0.00    +0.000 F 
ATOM     24  C   UNL     1       1.371   3.862  19.102  0.00  0.00    +0.000 A 
ENDBRANCH   7  18
TORSDOF 1
ENDMDL
MODEL 9
REMARK VINA RESULT:      -7.0      2.179      4.769
REMARK  Name = 
REMARK  2 active torsions:
REMARK  status: ('A' for Active; 'I' for Inactive)
REMARK    1  A    between atoms: C_1  and  N_2
REMARK    2  A    between atoms: N_7  and  C_8
REMARK                            x       y       z     vdW  Elec       q    Type
REMARK                         _______ _______ _______ _____ _____    ______ ____
ROOT
ATOM      1  C   UNL     1       0.799  11.203  19.403  0.00  0.00    +0.000 C 
ATOM      2  N   UNL     1       1.333   9.874  19.160  0.00  0.00    +0.000 N 
ATOM      3  C   UNL     1       0.837   8.804  19.877  0.00  0.00    +0.000 A 
ATOM      4  O   UNL     1      -0.061   8.958  20.700  0.00  0.00    +0.000 OA
ATOM      5  N   UNL     1       1.326   7.552  19.657  0.00  0.00    +0.000 NA
ATOM      6  C   UNL     1       2.200   7.226  18.756  0.00  0.00    +0.000 A 
ATOM      7  N   UNL     1       2.649   5.903  18.516  0.00  0.00    +0.000 N 
ATOM      8  C   UNL     1       3.643   5.728  17.477  0.00  0.00    +0.000 A 
ATOM      9  C   UNL     1       4.104   4.469  17.044  0.00  0.00    +0.000 A 
ATOM     10  C   UNL     1       5.127   4.343  16.098  0.00  0.00    +0.000 A 
ATOM     11  C   UNL     1       5.672   5.475  15.510  0.00  0.00    +0.000 A 
ATOM     12  C   UNL     1       5.173   6.727  15.854  0.00  0.00    +0.000 A 
ATOM     13  C   UNL     1       4.170   6.866  16.824  0.00  0.00    +0.000 A 
ATOM     14  N   UNL     1       3.716   8.165  17.065  0.00  0.00    +0.000 NA
ATOM     15  C   UNL     1       2.783   8.352  17.945  0.00  0.00    +0.000 A 
ATOM     16  C   UNL     1       2.283   9.752  18.174  0.00  0.00    +0.000 A 
ATOM     17  O   UNL     1       2.713  10.683  17.502  0.00  0.00    +0.000 OA
ENDROOT
BRANCH   7  18
ATOM     18  C   UNL     1       2.157   4.836  19.363  0.00  0.00    +0.000 A 
ATOM     19  C   UNL     1       1.277   3.844  18.874  0.00  0.00    +0.000 A 
ATOM     20  C   UNL     1       0.775   2.822  19.691  0.00  0.00    +0.000 A 
ATOM     21  C   UNL     1       1.192   2.726  21.011  0.00  0.00    +0.000 A 
ATOM     22  C   UNL     1       2.063   3.679  21.509  0.00  0.00    +0.000 A 
ATOM     23  F   UNL     1       2.491   3.582  22.774  0.00  0.00    +0.000 F 
ATOM     24  C   UNL     1       2.507   4.742  20.721  0.00  0.00    +0.000 A 
ENDBRANCH   7  18
TORSDOF 1
ENDMDL
