MODEL 1
REMARK VINA RESULT:      -7.6      0.000      0.000
REMARK  Name = 
REMARK  9 active torsions:
REMARK  status: ('A' for Active; 'I' for Inactive)
REMARK    1  A    between atoms: C_1  and  C_2
REMARK    2  A    between atoms: C_2  and  N_3
REMARK    3  A    between atoms: C_7  and  C_9
REMARK    4  A    between atoms: C_9  and  C_10
REMARK    5  A    between atoms: C_9  and  O_11
REMARK    6  A    between atoms: O_11  and  C_12
REMARK    7  A    between atoms: C_12  and  C_14
REMARK    8  A    between atoms: N_17  and  S_18
REMARK    9  A    between atoms: S_18  and  C_21
REMARK                            x       y       z     vdW  Elec       q    Type
REMARK                         _______ _______ _______ _____ _____    ______ ____
ROOT
ATOM      1  C   UNL     1       7.411   6.312  17.751  0.00  0.00    +0.000 C 
ATOM      2  C   UNL     1       7.043   6.057  19.210  0.00  0.00    +0.000 C 
ATOM      3  C   UNL     1       5.589   5.617  19.366  0.00  0.00    +0.000 C 
ATOM      4  N   UNL     1       4.657   6.623  18.779  0.00  0.00    +0.000 NA
ATOM      5  C   UNL     1       4.964   6.941  17.349  0.00  0.00    +0.000 C 
ATOM      6  C   UNL     1       6.432   7.311  17.136  0.00  0.00    +0.000 C 
ENDROOT
BRANCH   4   7
ATOM      7  S   UNL     1       2.986   6.169  18.950  0.00  0.00    +0.000 S 
ATOM      8  O   UNL     1       2.537   5.591  17.699  0.00  0.00    +0.000 OA
ATOM      9  O   UNL     1       2.876   5.417  20.182  0.00  0.00    +0.000 OA
BRANCH   7  10
ATOM     10  C   UNL     1       2.120   7.689  19.168  0.00  0.00    +0.000 A 
ATOM     11  C   UNL     1       2.086   8.634  18.136  0.00  0.00    +0.000 A 
ATOM     12  C   UNL     1       1.442   9.858  18.339  0.00  0.00    +0.000 A 
ATOM     13  C   UNL     1       0.841  10.136  19.567  0.00  0.00    +0.000 A 
ATOM     14  C   UNL     1       0.896   9.196  20.598  0.00  0.00    +0.000 A 
ATOM     15  C   UNL     1       1.542   7.977  20.397  0.00  0.00    +0.000 A 
ATOM     16  F   UNL     1       1.586   7.104  21.412  0.00  0.00    +0.000 F 
ENDBRANCH   7  10
ENDBRANCH   4   7
BRANCH   1  17
ATOM     17  C   UNL     1       7.465   5.016  16.960  0.00  0.00    +0.000 C 
ATOM     18  O   UNL     1       8.173   4.059  17.240  0.00  0.00    +0.000 OA
BRANCH  17  19
ATOM     19  O   UNL     1       6.618   5.058  15.892  0.00  0.00    +0.000 OA
BRANCH  19  20
ATOM     20  C   UNL     1       5.999   3.804  15.523  0.00  0.00    +0.000 C 
ATOM     21  C   UNL     1       5.755   3.758  14.016  0.00  0.00    +0.000 C 
BRANCH  20  26
ATOM     22  N   UNL     1       2.929   2.556  18.335  0.00  0.00    +0.000 N 
ATOM     23  C   UNL     1       4.244   2.600  18.677  0.00  0.00    +0.000 C 
ATOM     24  O   UNL     1       4.697   2.184  19.741  0.00  0.00    +0.000 OA
ATOM     25  N   UNL     1       5.092   3.136  17.741  0.00  0.00    +0.000 N 
ATOM     26  C   UNL     1       4.794   3.478  16.435  0.00  0.00    +0.000 C 
ATOM     27  O   UNL     1       3.638   3.634  16.029  0.00  0.00    +0.000 OA
ATOM     28  H   UNL     1       2.668   2.987  17.452  0.00  0.00    +0.000 HD
ATOM     29  H   UNL     1       6.051   3.053  18.042  0.00  0.00    +0.000 HD
BRANCH  22  31
ATOM     30  C   UNL     1       0.650   2.897  19.144  0.00  0.00    +0.000 C 
ATOM     31  C   UNL     1       1.894   2.032  19.193  0.00  0.00    +0.000 C 
ENDBRANCH  22  31
ENDBRANCH  20  26
ENDBRANCH  19  20
ENDBRANCH  17  19
ENDBRANCH   1  17
TORSDOF 7
ENDMDL
MODEL 2
REMARK VINA RESULT:      -7.5      2.895      4.803
REMARK  Name = 
REMARK  9 active torsions:
REMARK  status: ('A' for Active; 'I' for Inactive)
REMARK    1  A    between atoms: C_1  and  C_2
REMARK    2  A    between atoms: C_2  and  N_3
REMARK    3  A    between atoms: C_7  and  C_9
REMARK    4  A    between atoms: C_9  and  C_10
REMARK    5  A    between atoms: C_9  and  O_11
REMARK    6  A    between atoms: O_11  and  C_12
REMARK    7  A    between atoms: C_12  and  C_14
REMARK    8  A    between atoms: N_17  and  S_18
REMARK    9  A    between atoms: S_18  and  C_21
REMARK                            x       y       z     vdW  Elec       q    Type
REMARK                         _______ _______ _______ _____ _____    ______ ____
ROOT
ATOM      1  C   UNL     1       7.025   5.500  17.679  0.00  0.00    +0.000 C 
ATOM      2  C   UNL     1       6.410   4.778  18.874  0.00  0.00    +0.000 C 
ATOM      3  C   UNL     1       4.886   4.859  18.872  0.00  0.00    +0.000 C 
ATOM      4  N   UNL     1       4.424   6.277  18.848  0.00  0.00    +0.000 NA
ATOM      5  C   UNL     1       4.998   7.061  17.710  0.00  0.00    +0.000 C 
ATOM      6  C   UNL     1       6.520   6.941  17.628  0.00  0.00    +0.000 C 
ENDROOT
BRANCH   4   7
ATOM      7  S   UNL     1       2.689   6.418  18.863  0.00  0.00    +0.000 S 
ATOM      8  O   UNL     1       2.326   7.510  19.746  0.00  0.00    +0.000 OA
ATOM      9  O   UNL     1       2.253   6.421  17.484  0.00  0.00    +0.000 OA
BRANCH   7  10
ATOM     10  C   UNL     1       2.116   4.927  19.606  0.00  0.00    +0.000 A 
ATOM     11  C   UNL     1       2.328   4.693  20.971  0.00  0.00    +0.000 A 
ATOM     12  C   UNL     1       1.916   3.483  21.538  0.00  0.00    +0.000 A 
ATOM     13  C   UNL     1       1.303   2.513  20.745  0.00  0.00    +0.000 A 
ATOM     14  C   UNL     1       1.113   2.746  19.381  0.00  0.00    +0.000 A 
ATOM     15  C   UNL     1       1.527   3.950  18.815  0.00  0.00    +0.000 A 
ATOM     16  F   UNL     1       1.341   4.134  17.502  0.00  0.00    +0.000 F 
ENDBRANCH   7  10
ENDBRANCH   4   7
BRANCH   1  17
ATOM     17  C   UNL     1       6.745   4.759  16.382  0.00  0.00    +0.000 C 
ATOM     18  O   UNL     1       6.261   3.638  16.312  0.00  0.00    +0.000 OA
BRANCH  17  19
ATOM     19  O   UNL     1       7.104   5.509  15.301  0.00  0.00    +0.000 OA
BRANCH  19  20
ATOM     20  C   UNL     1       7.472   4.773  14.111  0.00  0.00    +0.000 C 
ATOM     21  C   UNL     1       8.536   5.537  13.326  0.00  0.00    +0.000 C 
BRANCH  20  26
ATOM     22  N   UNL     1       4.298   3.233  11.573  0.00  0.00    +0.000 N 
ATOM     23  C   UNL     1       5.474   2.571  11.738  0.00  0.00    +0.000 C 
ATOM     24  O   UNL     1       5.797   1.567  11.107  0.00  0.00    +0.000 OA
ATOM     25  N   UNL     1       6.336   3.097  12.665  0.00  0.00    +0.000 N 
ATOM     26  C   UNL     1       6.225   4.307  13.326  0.00  0.00    +0.000 C 
ATOM     27  O   UNL     1       5.166   4.939  13.396  0.00  0.00    +0.000 OA
ATOM     28  H   UNL     1       4.119   4.016  12.197  0.00  0.00    +0.000 HD
ATOM     29  H   UNL     1       7.211   2.595  12.662  0.00  0.00    +0.000 HD
BRANCH  22  31
ATOM     30  C   UNL     1       2.935   3.936   9.672  0.00  0.00    +0.000 C 
ATOM     31  C   UNL     1       3.270   2.824  10.648  0.00  0.00    +0.000 C 
ENDBRANCH  22  31
ENDBRANCH  20  26
ENDBRANCH  19  20
ENDBRANCH  17  19
ENDBRANCH   1  17
TORSDOF 7
ENDMDL
MODEL 3
REMARK VINA RESULT:      -7.5      3.288      6.306
REMARK  Name = 
REMARK  9 active torsions:
REMARK  status: ('A' for Active; 'I' for Inactive)
REMARK    1  A    between atoms: C_1  and  C_2
REMARK    2  A    between atoms: C_2  and  N_3
REMARK    3  A    between atoms: C_7  and  C_9
REMARK    4  A    between atoms: C_9  and  C_10
REMARK    5  A    between atoms: C_9  and  O_11
REMARK    6  A    between atoms: O_11  and  C_12
REMARK    7  A    between atoms: C_12  and  C_14
REMARK    8  A    between atoms: N_17  and  S_18
REMARK    9  A    between atoms: S_18  and  C_21
REMARK                            x       y       z     vdW  Elec       q    Type
REMARK                         _______ _______ _______ _____ _____    ______ ____
ROOT
ATOM      1  C   UNL     1       6.086   5.077  15.649  0.00  0.00    +0.000 C 
ATOM      2  C   UNL     1       5.257   6.353  15.535  0.00  0.00    +0.000 C 
ATOM      3  C   UNL     1       4.581   6.717  16.854  0.00  0.00    +0.000 C 
ATOM      4  N   UNL     1       3.722   5.601  17.344  0.00  0.00    +0.000 NA
ATOM      5  C   UNL     1       4.461   4.305  17.468  0.00  0.00    +0.000 C 
ATOM      6  C   UNL     1       5.218   3.941  16.191  0.00  0.00    +0.000 C 
ENDROOT
BRANCH   4   7
ATOM      7  S   UNL     1       2.916   5.981  18.839  0.00  0.00    +0.000 S 
ATOM      8  O   UNL     1       3.923   6.267  19.843  0.00  0.00    +0.000 OA
ATOM      9  O   UNL     1       1.894   6.958  18.532  0.00  0.00    +0.000 OA
BRANCH   7  10
ATOM     10  C   UNL     1       2.108   4.489  19.314  0.00  0.00    +0.000 A 
ATOM     11  C   UNL     1       2.378   3.907  20.560  0.00  0.00    +0.000 A 
ATOM     12  C   UNL     1       1.772   2.696  20.905  0.00  0.00    +0.000 A 
ATOM     13  C   UNL     1       0.907   2.068  20.008  0.00  0.00    +0.000 A 
ATOM     14  C   UNL     1       0.658   2.644  18.760  0.00  0.00    +0.000 A 
ATOM     15  C   UNL     1       1.265   3.850  18.415  0.00  0.00    +0.000 A 
ATOM     16  F   UNL     1       1.014   4.366  17.205  0.00  0.00    +0.000 F 
ENDBRANCH   7  10
ENDBRANCH   4   7
BRANCH   1  17
ATOM     17  C   UNL     1       7.324   5.296  16.503  0.00  0.00    +0.000 C 
ATOM     18  O   UNL     1       7.997   4.402  16.995  0.00  0.00    +0.000 OA
BRANCH  17  19
ATOM     19  O   UNL     1       7.588   6.626  16.650  0.00  0.00    +0.000 OA
BRANCH  19  20
ATOM     20  C   UNL     1       8.077   7.037  17.948  0.00  0.00    +0.000 C 
ATOM     21  C   UNL     1       7.236   6.404  19.055  0.00  0.00    +0.000 C 
BRANCH  20  26
ATOM     22  N   UNL     1       8.716  11.277  18.655  0.00  0.00    +0.000 N 
ATOM     23  C   UNL     1       9.317  10.323  19.413  0.00  0.00    +0.000 C 
ATOM     24  O   UNL     1       9.979  10.555  20.422  0.00  0.00    +0.000 OA
ATOM     25  N   UNL     1       9.136   9.027  19.003  0.00  0.00    +0.000 N 
ATOM     26  C   UNL     1       8.282   8.568  18.017  0.00  0.00    +0.000 C 
ATOM     27  O   UNL     1       7.791   9.307  17.156  0.00  0.00    +0.000 OA
ATOM     28  H   UNL     1       8.245  10.966  17.809  0.00  0.00    +0.000 HD
ATOM     29  H   UNL     1       9.543   8.384  19.666  0.00  0.00    +0.000 HD
BRANCH  22  31
ATOM     30  C   UNL     1       8.024  13.498  17.907  0.00  0.00    +0.000 C 
ATOM     31  C   UNL     1       8.800  12.691  18.930  0.00  0.00    +0.000 C 
ENDBRANCH  22  31
ENDBRANCH  20  26
ENDBRANCH  19  20
ENDBRANCH  17  19
ENDBRANCH   1  17
TORSDOF 7
ENDMDL
MODEL 4
REMARK VINA RESULT:      -7.5      3.022      4.970
REMARK  Name = 
REMARK  9 active torsions:
REMARK  status: ('A' for Active; 'I' for Inactive)
REMARK    1  A    between atoms: C_1  and  C_2
REMARK    2  A    between atoms: C_2  and  N_3
REMARK    3  A    between atoms: C_7  and  C_9
REMARK    4  A    between atoms: C_9  and  C_10
REMARK    5  A    between atoms: C_9  and  O_11
REMARK    6  A    between atoms: O_11  and  C_12
REMARK    7  A    between atoms: C_12  and  C_14
REMARK    8  A    between atoms: N_17  and  S_18
REMARK    9  A    between atoms: S_18  and  C_21
REMARK                            x       y       z     vdW  Elec       q    Type
REMARK                         _______ _______ _______ _____ _____    ______ ____
ROOT
ATOM      1  C   UNL     1       2.895   5.647  18.695  0.00  0.00    +0.000 C 
ATOM      2  C   UNL     1       2.337   6.379  17.478  0.00  0.00    +0.000 C 
ATOM      3  C   UNL     1       2.285   7.890  17.691  0.00  0.00    +0.000 C 
ATOM      4  N   UNL     1       1.481   8.235  18.898  0.00  0.00    +0.000 NA
ATOM      5  C   UNL     1       1.956   7.542  20.137  0.00  0.00    +0.000 C 
ATOM      6  C   UNL     1       2.098   6.033  19.941  0.00  0.00    +0.000 C 
ENDROOT
BRANCH   4   7
ATOM      7  S   UNL     1       1.380   9.952  19.170  0.00  0.00    +0.000 S 
ATOM      8  O   UNL     1       1.421  10.193  20.599  0.00  0.00    +0.000 OA
ATOM      9  O   UNL     1       2.351  10.576  18.297  0.00  0.00    +0.000 OA
BRANCH   7  10
ATOM     10  C   UNL     1      -0.225  10.410  18.604  0.00  0.00    +0.000 A 
ATOM     11  C   UNL     1      -0.896   9.613  17.668  0.00  0.00    +0.000 A 
ATOM     12  C   UNL     1      -2.146  10.014  17.187  0.00  0.00    +0.000 A 
ATOM     13  C   UNL     1      -2.717  11.206  17.634  0.00  0.00    +0.000 A 
ATOM     14  C   UNL     1      -2.033  12.005  18.553  0.00  0.00    +0.000 A 
ATOM     15  C   UNL     1      -0.785  11.606  19.030  0.00  0.00    +0.000 A 
ATOM     16  F   UNL     1      -0.152  12.404  19.900  0.00  0.00    +0.000 F 
ENDBRANCH   7  10
ENDBRANCH   4   7
BRANCH   1  17
ATOM     17  C   UNL     1       4.380   5.918  18.870  0.00  0.00    +0.000 C 
ATOM     18  O   UNL     1       5.012   5.696  19.893  0.00  0.00    +0.000 OA
BRANCH  17  19
ATOM     19  O   UNL     1       4.920   6.444  17.733  0.00  0.00    +0.000 OA
BRANCH  19  20
ATOM     20  C   UNL     1       6.253   5.995  17.396  0.00  0.00    +0.000 C 
ATOM     21  C   UNL     1       7.231   7.167  17.431  0.00  0.00    +0.000 C 
BRANCH  20  26
ATOM     22  N   UNL     1       6.394   3.980  13.547  0.00  0.00    +0.000 N 
ATOM     23  C   UNL     1       7.230   5.007  13.853  0.00  0.00    +0.000 C 
ATOM     24  O   UNL     1       7.998   5.537  13.054  0.00  0.00    +0.000 OA
ATOM     25  N   UNL     1       7.171   5.467  15.144  0.00  0.00    +0.000 N 
ATOM     26  C   UNL     1       6.250   5.125  16.118  0.00  0.00    +0.000 C 
ATOM     27  O   UNL     1       5.537   4.119  16.043  0.00  0.00    +0.000 OA
ATOM     28  H   UNL     1       5.848   3.587  14.310  0.00  0.00    +0.000 HD
ATOM     29  H   UNL     1       7.760   6.278  15.260  0.00  0.00    +0.000 HD
BRANCH  22  31
ATOM     30  C   UNL     1       4.883   3.209  11.790  0.00  0.00    +0.000 C 
ATOM     31  C   UNL     1       6.321   3.367  12.244  0.00  0.00    +0.000 C 
ENDBRANCH  22  31
ENDBRANCH  20  26
ENDBRANCH  19  20
ENDBRANCH  17  19
ENDBRANCH   1  17
TORSDOF 7
ENDMDL
MODEL 5
REMARK VINA RESULT:      -7.3      3.210      6.213
REMARK  Name = 
REMARK  9 active torsions:
REMARK  status: ('A' for Active; 'I' for Inactive)
REMARK    1  A    between atoms: C_1  and  C_2
REMARK    2  A    between atoms: C_2  and  N_3
REMARK    3  A    between atoms: C_7  and  C_9
REMARK    4  A    between atoms: C_9  and  C_10
REMARK    5  A    between atoms: C_9  and  O_11
REMARK    6  A    between atoms: O_11  and  C_12
REMARK    7  A    between atoms: C_12  and  C_14
REMARK    8  A    between atoms: N_17  and  S_18
REMARK    9  A    between atoms: S_18  and  C_21
REMARK                            x       y       z     vdW  Elec       q    Type
REMARK                         _______ _______ _______ _____ _____    ______ ____
ROOT
ATOM      1  C   UNL     1       5.960   5.293  15.500  0.00  0.00    +0.000 C 
ATOM      2  C   UNL     1       5.111   6.560  15.541  0.00  0.00    +0.000 C 
ATOM      3  C   UNL     1       4.521   6.812  16.926  0.00  0.00    +0.000 C 
ATOM      4  N   UNL     1       3.711   5.646  17.385  0.00  0.00    +0.000 NA
ATOM      5  C   UNL     1       4.471   4.358  17.359  0.00  0.00    +0.000 C 
ATOM      6  C   UNL     1       5.145   4.105  16.010  0.00  0.00    +0.000 C 
ENDROOT
BRANCH   4   7
ATOM      7  S   UNL     1       3.004   5.898  18.956  0.00  0.00    +0.000 S 
ATOM      8  O   UNL     1       4.074   5.990  19.931  0.00  0.00    +0.000 OA
ATOM      9  O   UNL     1       2.046   6.974  18.821  0.00  0.00    +0.000 OA
BRANCH   7  10
ATOM     10  C   UNL     1       2.108   4.419  19.296  0.00  0.00    +0.000 A 
ATOM     11  C   UNL     1       1.548   3.678  18.247  0.00  0.00    +0.000 A 
ATOM     12  C   UNL     1       0.794   2.536  18.532  0.00  0.00    +0.000 A 
ATOM     13  C   UNL     1       0.598   2.140  19.856  0.00  0.00    +0.000 A 
ATOM     14  C   UNL     1       1.144   2.895  20.897  0.00  0.00    +0.000 A 
ATOM     15  C   UNL     1       1.893   4.036  20.612  0.00  0.00    +0.000 A 
ATOM     16  F   UNL     1       2.390   4.743  21.636  0.00  0.00    +0.000 F 
ENDBRANCH   7  10
ENDBRANCH   4   7
BRANCH   1  17
ATOM     17  C   UNL     1       7.250   5.468  16.283  0.00  0.00    +0.000 C 
ATOM     18  O   UNL     1       7.962   4.550  16.666  0.00  0.00    +0.000 OA
BRANCH  17  19
ATOM     19  O   UNL     1       7.514   6.788  16.506  0.00  0.00    +0.000 OA
BRANCH  19  20
ATOM     20  C   UNL     1       8.052   7.117  17.808  0.00  0.00    +0.000 C 
ATOM     21  C   UNL     1       7.228   6.448  18.906  0.00  0.00    +0.000 C 
BRANCH  20  26
ATOM     22  N   UNL     1       8.752  11.309  18.720  0.00  0.00    +0.000 N 
ATOM     23  C   UNL     1       9.229  10.311  19.510  0.00  0.00    +0.000 C 
ATOM     24  O   UNL     1       9.778  10.489  20.594  0.00  0.00    +0.000 OA
ATOM     25  N   UNL     1       9.051   9.035  19.040  0.00  0.00    +0.000 N 
ATOM     26  C   UNL     1       8.300   8.636  17.949  0.00  0.00    +0.000 C 
ATOM     27  O   UNL     1       7.938   9.418  17.063  0.00  0.00    +0.000 OA
ATOM     28  H   UNL     1       8.370  11.039  17.816  0.00  0.00    +0.000 HD
ATOM     29  H   UNL     1       9.357   8.358  19.724  0.00  0.00    +0.000 HD
BRANCH  22  31
ATOM     30  C   UNL     1       8.296  13.577  17.936  0.00  0.00    +0.000 C 
ATOM     31  C   UNL     1       8.853  12.710  19.049  0.00  0.00    +0.000 C 
ENDBRANCH  22  31
ENDBRANCH  20  26
ENDBRANCH  19  20
ENDBRANCH  17  19
ENDBRANCH   1  17
TORSDOF 7
ENDMDL
MODEL 6
REMARK VINA RESULT:      -7.3      3.074      5.611
REMARK  Name = 
REMARK  9 active torsions:
REMARK  status: ('A' for Active; 'I' for Inactive)
REMARK    1  A    between atoms: C_1  and  C_2
REMARK    2  A    between atoms: C_2  and  N_3
REMARK    3  A    between atoms: C_7  and  C_9
REMARK    4  A    between atoms: C_9  and  C_10
REMARK    5  A    between atoms: C_9  and  O_11
REMARK    6  A    between atoms: O_11  and  C_12
REMARK    7  A    between atoms: C_12  and  C_14
REMARK    8  A    between atoms: N_17  and  S_18
REMARK    9  A    between atoms: S_18  and  C_21
REMARK                            x       y       z     vdW  Elec       q    Type
REMARK                         _______ _______ _______ _____ _____    ______ ____
ROOT
ATOM      1  C   UNL     1       5.897   5.047  15.699  0.00  0.00    +0.000 C 
ATOM      2  C   UNL     1       5.001   6.282  15.683  0.00  0.00    +0.000 C 
ATOM      3  C   UNL     1       4.379   6.558  17.050  0.00  0.00    +0.000 C 
ATOM      4  N   UNL     1       3.605   5.380  17.536  0.00  0.00    +0.000 NA
ATOM      5  C   UNL     1       4.412   4.120  17.566  0.00  0.00    +0.000 C 
ATOM      6  C   UNL     1       5.117   3.848  16.237  0.00  0.00    +0.000 C 
ENDROOT
BRANCH   4   7
ATOM      7  S   UNL     1       2.863   5.657  19.086  0.00  0.00    +0.000 S 
ATOM      8  O   UNL     1       1.754   4.735  19.235  0.00  0.00    +0.000 OA
ATOM      9  O   UNL     1       3.927   5.682  20.066  0.00  0.00    +0.000 OA
BRANCH   7  10
ATOM     10  C   UNL     1       2.187   7.282  18.984  0.00  0.00    +0.000 A 
ATOM     11  C   UNL     1       2.284   8.012  17.793  0.00  0.00    +0.000 A 
ATOM     12  C   UNL     1       1.791   9.319  17.740  0.00  0.00    +0.000 A 
ATOM     13  C   UNL     1       1.212   9.893  18.872  0.00  0.00    +0.000 A 
ATOM     14  C   UNL     1       1.136   9.166  20.061  0.00  0.00    +0.000 A 
ATOM     15  C   UNL     1       1.631   7.863  20.115  0.00  0.00    +0.000 A 
ATOM     16  F   UNL     1       1.554   7.201  21.276  0.00  0.00    +0.000 F 
ENDBRANCH   7  10
ENDBRANCH   4   7
BRANCH   1  17
ATOM     17  C   UNL     1       7.166   5.296  16.496  0.00  0.00    +0.000 C 
ATOM     18  O   UNL     1       7.930   4.421  16.880  0.00  0.00    +0.000 OA
BRANCH  17  19
ATOM     19  O   UNL     1       7.345   6.628  16.730  0.00  0.00    +0.000 OA
BRANCH  19  20
ATOM     20  C   UNL     1       8.009   6.973  17.969  0.00  0.00    +0.000 C 
ATOM     21  C   UNL     1       7.242   6.398  19.157  0.00  0.00    +0.000 C 
BRANCH  20  26
ATOM     22  N   UNL     1       8.915  11.170  18.639  0.00  0.00    +0.000 N 
ATOM     23  C   UNL     1       9.200  10.215  19.564  0.00  0.00    +0.000 C 
ATOM     24  O   UNL     1       9.612  10.450  20.697  0.00  0.00    +0.000 OA
ATOM     25  N   UNL     1       8.985   8.918  19.175  0.00  0.00    +0.000 N 
ATOM     26  C   UNL     1       8.358   8.477  18.024  0.00  0.00    +0.000 C 
ATOM     27  O   UNL     1       8.181   9.200  17.037  0.00  0.00    +0.000 OA
ATOM     28  H   UNL     1       8.638  10.848  17.715  0.00  0.00    +0.000 HD
ATOM     29  H   UNL     1       9.141   8.285  19.946  0.00  0.00    +0.000 HD
BRANCH  22  31
ATOM     30  C   UNL     1       9.742  13.259  17.680  0.00  0.00    +0.000 C 
ATOM     31  C   UNL     1       9.084  12.584  18.868  0.00  0.00    +0.000 C 
ENDBRANCH  22  31
ENDBRANCH  20  26
ENDBRANCH  19  20
ENDBRANCH  17  19
ENDBRANCH   1  17
TORSDOF 7
ENDMDL
MODEL 7
REMARK VINA RESULT:      -7.2      2.860      4.990
REMARK  Name = 
REMARK  9 active torsions:
REMARK  status: ('A' for Active; 'I' for Inactive)
REMARK    1  A    between atoms: C_1  and  C_2
REMARK    2  A    between atoms: C_2  and  N_3
REMARK    3  A    between atoms: C_7  and  C_9
REMARK    4  A    between atoms: C_9  and  C_10
REMARK    5  A    between atoms: C_9  and  O_11
REMARK    6  A    between atoms: O_11  and  C_12
REMARK    7  A    between atoms: C_12  and  C_14
REMARK    8  A    between atoms: N_17  and  S_18
REMARK    9  A    between atoms: S_18  and  C_21
REMARK                            x       y       z     vdW  Elec       q    Type
REMARK                         _______ _______ _______ _____ _____    ______ ____
ROOT
ATOM      1  C   UNL     1       7.401   6.207  17.767  0.00  0.00    +0.000 C 
ATOM      2  C   UNL     1       7.045   5.947  19.228  0.00  0.00    +0.000 C 
ATOM      3  C   UNL     1       5.606   5.464  19.390  0.00  0.00    +0.000 C 
ATOM      4  N   UNL     1       4.642   6.438  18.802  0.00  0.00    +0.000 NA
ATOM      5  C   UNL     1       4.935   6.760  17.370  0.00  0.00    +0.000 C 
ATOM      6  C   UNL     1       6.390   7.173  17.150  0.00  0.00    +0.000 C 
ENDROOT
BRANCH   4   7
ATOM      7  S   UNL     1       2.986   5.935  18.981  0.00  0.00    +0.000 S 
ATOM      8  O   UNL     1       2.560   6.234  20.335  0.00  0.00    +0.000 OA
ATOM      9  O   UNL     1       2.256   6.472  17.853  0.00  0.00    +0.000 OA
BRANCH   7  10
ATOM     10  C   UNL     1       3.020   4.181  18.815  0.00  0.00    +0.000 A 
ATOM     11  C   UNL     1       3.976   3.427  19.507  0.00  0.00    +0.000 A 
ATOM     12  C   UNL     1       4.029   2.042  19.326  0.00  0.00    +0.000 A 
ATOM     13  C   UNL     1       3.135   1.417  18.455  0.00  0.00    +0.000 A 
ATOM     14  C   UNL     1       2.198   2.178  17.754  0.00  0.00    +0.000 A 
ATOM     15  C   UNL     1       2.148   3.560  17.932  0.00  0.00    +0.000 A 
ATOM     16  F   UNL     1       1.245   4.260  17.233  0.00  0.00    +0.000 F 
ENDBRANCH   7  10
ENDBRANCH   4   7
BRANCH   1  17
ATOM     17  C   UNL     1       7.491   4.909  16.981  0.00  0.00    +0.000 C 
ATOM     18  O   UNL     1       8.263   3.995  17.234  0.00  0.00    +0.000 OA
BRANCH  17  19
ATOM     19  O   UNL     1       6.596   4.896  15.952  0.00  0.00    +0.000 OA
BRANCH  19  20
ATOM     20  C   UNL     1       7.112   4.480  14.666  0.00  0.00    +0.000 C 
ATOM     21  C   UNL     1       8.101   5.514  14.133  0.00  0.00    +0.000 C 
BRANCH  20  26
ATOM     22  N   UNL     1       4.288   3.138  11.648  0.00  0.00    +0.000 N 
ATOM     23  C   UNL     1       5.523   2.585  11.774  0.00  0.00    +0.000 C 
ATOM     24  O   UNL     1       5.998   1.764  10.993  0.00  0.00    +0.000 OA
ATOM     25  N   UNL     1       6.264   3.008  12.848  0.00  0.00    +0.000 N 
ATOM     26  C   UNL     1       5.975   4.047  13.714  0.00  0.00    +0.000 C 
ATOM     27  O   UNL     1       4.845   4.537  13.820  0.00  0.00    +0.000 OA
ATOM     28  H   UNL     1       3.983   3.761  12.392  0.00  0.00    +0.000 HD
ATOM     29  H   UNL     1       7.192   2.611  12.818  0.00  0.00    +0.000 HD
BRANCH  22  31
ATOM     30  C   UNL     1       3.056   4.028   9.735  0.00  0.00    +0.000 C 
ATOM     31  C   UNL     1       3.368   2.812  10.585  0.00  0.00    +0.000 C 
ENDBRANCH  22  31
ENDBRANCH  20  26
ENDBRANCH  19  20
ENDBRANCH  17  19
ENDBRANCH   1  17
TORSDOF 7
ENDMDL
MODEL 8
REMARK VINA RESULT:      -7.2      3.830      6.703
REMARK  Name = 
REMARK  9 active torsions:
REMARK  status: ('A' for Active; 'I' for Inactive)
REMARK    1  A    between atoms: C_1  and  C_2
REMARK    2  A    between atoms: C_2  and  N_3
REMARK    3  A    between atoms: C_7  and  C_9
REMARK    4  A    between atoms: C_9  and  C_10
REMARK    5  A    between atoms: C_9  and  O_11
REMARK    6  A    between atoms: O_11  and  C_12
REMARK    7  A    between atoms: C_12  and  C_14
REMARK    8  A    between atoms: N_17  and  S_18
REMARK    9  A    between atoms: S_18  and  C_21
REMARK                            x       y       z     vdW  Elec       q    Type
REMARK                         _______ _______ _______ _____ _____    ______ ____
ROOT
ATOM      1  C   UNL     1       5.218   6.601  15.937  0.00  0.00    +0.000 C 
ATOM      2  C   UNL     1       4.296   6.716  17.147  0.00  0.00    +0.000 C 
ATOM      3  C   UNL     1       4.459   5.540  18.107  0.00  0.00    +0.000 C 
ATOM      4  N   UNL     1       4.220   4.242  17.413  0.00  0.00    +0.000 NA
ATOM      5  C   UNL     1       5.079   4.059  16.200  0.00  0.00    +0.000 C 
ATOM      6  C   UNL     1       5.005   5.253  15.249  0.00  0.00    +0.000 C 
ENDROOT
BRANCH   4   7
ATOM      7  S   UNL     1       4.379   2.873  18.476  0.00  0.00    +0.000 S 
ATOM      8  O   UNL     1       4.217   1.663  17.693  0.00  0.00    +0.000 OA
ATOM      9  O   UNL     1       5.579   3.081  19.257  0.00  0.00    +0.000 OA
BRANCH   7  10
ATOM     10  C   UNL     1       3.000   2.981  19.568  0.00  0.00    +0.000 A 
ATOM     11  C   UNL     1       1.815   3.598  19.148  0.00  0.00    +0.000 A 
ATOM     12  C   UNL     1       0.747   3.726  20.040  0.00  0.00    +0.000 A 
ATOM     13  C   UNL     1       0.864   3.244  21.344  0.00  0.00    +0.000 A 
ATOM     14  C   UNL     1       2.056   2.647  21.762  0.00  0.00    +0.000 A 
ATOM     15  C   UNL     1       3.123   2.523  20.873  0.00  0.00    +0.000 A 
ATOM     16  F   UNL     1       4.255   1.957  21.311  0.00  0.00    +0.000 F 
ENDBRANCH   7  10
ENDBRANCH   4   7
BRANCH   1  17
ATOM     17  C   UNL     1       6.672   6.809  16.329  0.00  0.00    +0.000 C 
ATOM     18  O   UNL     1       7.608   6.146  15.905  0.00  0.00    +0.000 OA
BRANCH  17  19
ATOM     19  O   UNL     1       6.798   7.835  17.218  0.00  0.00    +0.000 OA
BRANCH  19  20
ATOM     20  C   UNL     1       8.083   7.954  17.873  0.00  0.00    +0.000 C 
ATOM     21  C   UNL     1       8.177   6.969  19.036  0.00  0.00    +0.000 C 
BRANCH  20  26
ATOM     22  N   UNL     1       9.022  11.973  19.233  0.00  0.00    +0.000 N 
ATOM     23  C   UNL     1       9.391  10.870  19.937  0.00  0.00    +0.000 C 
ATOM     24  O   UNL     1       9.899  10.900  21.056  0.00  0.00    +0.000 OA
ATOM     25  N   UNL     1       9.149   9.663  19.333  0.00  0.00    +0.000 N 
ATOM     26  C   UNL     1       8.427   9.430  18.177  0.00  0.00    +0.000 C 
ATOM     27  O   UNL     1       8.162  10.319  17.361  0.00  0.00    +0.000 OA
ATOM     28  H   UNL     1       8.667  11.822  18.292  0.00  0.00    +0.000 HD
ATOM     29  H   UNL     1       9.376   8.902  19.956  0.00  0.00    +0.000 HD
BRANCH  22  31
ATOM     30  C   UNL     1       8.325  13.606  20.911  0.00  0.00    +0.000 C 
ATOM     31  C   UNL     1       9.202  13.324  19.707  0.00  0.00    +0.000 C 
ENDBRANCH  22  31
ENDBRANCH  20  26
ENDBRANCH  19  20
ENDBRANCH  17  19
ENDBRANCH   1  17
TORSDOF 7
ENDMDL
MODEL 9
REMARK VINA RESULT:      -7.2      3.048      7.229
REMARK  Name = 
REMARK  9 active torsions:
REMARK  status: ('A' for Active; 'I' for Inactive)
REMARK    1  A    between atoms: C_1  and  C_2
REMARK    2  A    between atoms: C_2  and  N_3
REMARK    3  A    between atoms: C_7  and  C_9
REMARK    4  A    between atoms: C_9  and  C_10
REMARK    5  A    between atoms: C_9  and  O_11
REMARK    6  A    between atoms: O_11  and  C_12
REMARK    7  A    between atoms: C_12  and  C_14
REMARK    8  A    between atoms: N_17  and  S_18
REMARK    9  A    between atoms: S_18  and  C_21
REMARK                            x       y       z     vdW  Elec       q    Type
REMARK                         _______ _______ _______ _____ _____    ______ ____
ROOT
ATOM      1  C   UNL     1       2.719   3.202  18.383  0.00  0.00    +0.000 C 
ATOM      2  C   UNL     1       3.654   2.263  17.627  0.00  0.00    +0.000 C 
ATOM      3  C   UNL     1       4.951   2.955  17.215  0.00  0.00    +0.000 C 
ATOM      4  N   UNL     1       4.676   4.166  16.389  0.00  0.00    +0.000 NA
ATOM      5  C   UNL     1       3.749   5.133  17.057  0.00  0.00    +0.000 C 
ATOM      6  C   UNL     1       2.469   4.463  17.557  0.00  0.00    +0.000 C 
ENDROOT
BRANCH   4   7
ATOM      7  S   UNL     1       6.130   4.977  15.881  0.00  0.00    +0.000 S 
ATOM      8  O   UNL     1       5.891   6.407  15.911  0.00  0.00    +0.000 OA
ATOM      9  O   UNL     1       7.220   4.404  16.640  0.00  0.00    +0.000 OA
BRANCH   7  10
ATOM     10  C   UNL     1       6.346   4.515  14.194  0.00  0.00    +0.000 A 
ATOM     11  C   UNL     1       5.462   3.609  13.594  0.00  0.00    +0.000 A 
ATOM     12  C   UNL     1       5.674   3.209  12.271  0.00  0.00    +0.000 A 
ATOM     13  C   UNL     1       6.765   3.706  11.557  0.00  0.00    +0.000 A 
ATOM     14  C   UNL     1       7.653   4.593  12.170  0.00  0.00    +0.000 A 
ATOM     15  C   UNL     1       7.443   4.990  13.490  0.00  0.00    +0.000 A 
ATOM     16  F   UNL     1       8.322   5.831  14.049  0.00  0.00    +0.000 F 
ENDBRANCH   7  10
ENDBRANCH   4   7
BRANCH   1  17
ATOM     17  C   UNL     1       3.265   3.532  19.762  0.00  0.00    +0.000 C 
ATOM     18  O   UNL     1       3.659   2.704  20.572  0.00  0.00    +0.000 OA
BRANCH  17  19
ATOM     19  O   UNL     1       3.260   4.878  19.983  0.00  0.00    +0.000 OA
BRANCH  19  20
ATOM     20  C   UNL     1       2.155   5.390  20.764  0.00  0.00    +0.000 C 
ATOM     21  C   UNL     1       0.959   4.446  20.671  0.00  0.00    +0.000 C 
BRANCH  20  26
ATOM     22  N   UNL     1       1.008   9.549  20.235  0.00  0.00    +0.000 N 
ATOM     23  C   UNL     1       0.811   8.891  21.408  0.00  0.00    +0.000 C 
ATOM     24  O   UNL     1       0.192   9.352  22.365  0.00  0.00    +0.000 OA
ATOM     25  N   UNL     1       1.336   7.627  21.484  0.00  0.00    +0.000 N 
ATOM     26  C   UNL     1       1.891   6.883  20.460  0.00  0.00    +0.000 C 
ATOM     27  O   UNL     1       2.270   7.384  19.396  0.00  0.00    +0.000 OA
ATOM     28  H   UNL     1       1.588   9.086  19.539  0.00  0.00    +0.000 HD
ATOM     29  H   UNL     1       1.072   7.184  22.352  0.00  0.00    +0.000 HD
BRANCH  22  31
ATOM     30  C   UNL     1      -0.896  10.872  19.468  0.00  0.00    +0.000 C 
ATOM     31  C   UNL     1       0.533  10.886  19.975  0.00  0.00    +0.000 C 
ENDBRANCH  22  31
ENDBRANCH  20  26
ENDBRANCH  19  20
ENDBRANCH  17  19
ENDBRANCH   1  17
TORSDOF 7
ENDMDL
