MODEL 1
REMARK VINA RESULT:      -7.5      0.000      0.000
REMARK  Name = 
REMARK  3 active torsions:
REMARK  status: ('A' for Active; 'I' for Inactive)
REMARK    1  A    between atoms: C_8  and  O_9
REMARK    2  A    between atoms: O_9  and  C_10
REMARK    3  A    between atoms: C_10  and  C_11
REMARK                            x       y       z     vdW  Elec       q    Type
REMARK                         _______ _______ _______ _____ _____    ______ ____
ROOT
ATOM      1  O   UNL     1       8.864   5.839  13.364  0.00  0.00    +0.000 OA
ATOM      2  C   UNL     1       7.824   5.198  13.248  0.00  0.00    +0.000 C 
ATOM      3  C   UNL     1       7.272   4.806  11.896  0.00  0.00    +0.000 C 
ATOM      4  C   UNL     1       6.579   3.455  11.968  0.00  0.00    +0.000 C 
ATOM      5  C   UNL     1       5.432   3.496  12.968  0.00  0.00    +0.000 C 
ATOM      6  C   UNL     1       5.865   4.051  14.299  0.00  0.00    +0.000 A 
ATOM      7  C   UNL     1       5.081   3.782  15.427  0.00  0.00    +0.000 A 
ATOM      8  C   UNL     1       5.466   4.232  16.692  0.00  0.00    +0.000 A 
ATOM      9  C   UNL     1       6.606   5.024  16.823  0.00  0.00    +0.000 A 
ATOM     10  C   UNL     1       7.379   5.333  15.701  0.00  0.00    +0.000 A 
ATOM     11  C   UNL     1       7.010   4.847  14.441  0.00  0.00    +0.000 A 
ENDROOT
BRANCH   8  12
ATOM     12  O   UNL     1       4.801   3.942  17.854  0.00  0.00    +0.000 OA
BRANCH  12  13
ATOM     13  C   UNL     1       3.377   4.040  17.765  0.00  0.00    +0.000 C 
BRANCH  13  14
ATOM     14  C   UNL     1       2.849   5.159  18.629  0.00  0.00    +0.000 A 
ATOM     15  C   UNL     1       2.564   4.905  19.979  0.00  0.00    +0.000 A 
ATOM     16  C   UNL     1       2.055   5.907  20.801  0.00  0.00    +0.000 A 
ATOM     17  C   UNL     1       1.810   7.175  20.274  0.00  0.00    +0.000 A 
ATOM     18  C   UNL     1       2.073   7.431  18.930  0.00  0.00    +0.000 A 
ATOM     19  I   UNL     1       1.703   9.323  18.150  0.00  0.00    +0.000 I 
ATOM     20  C   UNL     1       2.584   6.430  18.102  0.00  0.00    +0.000 A 
ENDBRANCH  13  14
ENDBRANCH  12  13
ENDBRANCH   8  12
TORSDOF 3
ENDMDL
MODEL 2
REMARK VINA RESULT:      -7.2      3.356      6.986
REMARK  Name = 
REMARK  3 active torsions:
REMARK  status: ('A' for Active; 'I' for Inactive)
REMARK    1  A    between atoms: C_8  and  O_9
REMARK    2  A    between atoms: O_9  and  C_10
REMARK    3  A    between atoms: C_10  and  C_11
REMARK                            x       y       z     vdW  Elec       q    Type
REMARK                         _______ _______ _______ _____ _____    ______ ____
ROOT
ATOM      1  O   UNL     1       0.911   9.126  21.584  0.00  0.00    +0.000 OA
ATOM      2  C   UNL     1       1.220   8.907  20.416  0.00  0.00    +0.000 C 
ATOM      3  C   UNL     1       1.048   9.949  19.334  0.00  0.00    +0.000 C 
ATOM      4  C   UNL     1       2.152   9.834  18.296  0.00  0.00    +0.000 C 
ATOM      5  C   UNL     1       2.137   8.456  17.650  0.00  0.00    +0.000 C 
ATOM      6  C   UNL     1       2.124   7.354  18.676  0.00  0.00    +0.000 A 
ATOM      7  C   UNL     1       2.520   6.069  18.287  0.00  0.00    +0.000 A 
ATOM      8  C   UNL     1       2.572   5.024  19.212  0.00  0.00    +0.000 A 
ATOM      9  C   UNL     1       2.151   5.244  20.523  0.00  0.00    +0.000 A 
ATOM     10  C   UNL     1       1.718   6.512  20.918  0.00  0.00    +0.000 A 
ATOM     11  C   UNL     1       1.704   7.565  19.996  0.00  0.00    +0.000 A 
ENDROOT
BRANCH   8  12
ATOM     12  O   UNL     1       3.026   3.762  18.932  0.00  0.00    +0.000 OA
BRANCH  12  13
ATOM     13  C   UNL     1       4.365   3.501  19.361  0.00  0.00    +0.000 C 
BRANCH  13  14
ATOM     14  C   UNL     1       5.365   4.279  18.541  0.00  0.00    +0.000 A 
ATOM     15  C   UNL     1       6.169   5.238  19.174  0.00  0.00    +0.000 A 
ATOM     16  C   UNL     1       7.087   5.990  18.444  0.00  0.00    +0.000 A 
ATOM     17  C   UNL     1       7.199   5.799  17.067  0.00  0.00    +0.000 A 
ATOM     18  C   UNL     1       6.391   4.861  16.429  0.00  0.00    +0.000 A 
ATOM     19  I   UNL     1       6.560   4.584  14.374  0.00  0.00    +0.000 I 
ATOM     20  C   UNL     1       5.469   4.104  17.155  0.00  0.00    +0.000 A 
ENDBRANCH  13  14
ENDBRANCH  12  13
ENDBRANCH   8  12
TORSDOF 3
ENDMDL
MODEL 3
REMARK VINA RESULT:      -7.2      2.758      6.379
REMARK  Name = 
REMARK  3 active torsions:
REMARK  status: ('A' for Active; 'I' for Inactive)
REMARK    1  A    between atoms: C_8  and  O_9
REMARK    2  A    between atoms: O_9  and  C_10
REMARK    3  A    between atoms: C_10  and  C_11
REMARK                            x       y       z     vdW  Elec       q    Type
REMARK                         _______ _______ _______ _____ _____    ______ ____
ROOT
ATOM      1  O   UNL     1       1.444   5.967  20.915  0.00  0.00    +0.000 OA
ATOM      2  C   UNL     1       1.853   4.972  20.324  0.00  0.00    +0.000 C 
ATOM      3  C   UNL     1       1.606   3.574  20.844  0.00  0.00    +0.000 C 
ATOM      4  C   UNL     1       1.425   2.596  19.695  0.00  0.00    +0.000 C 
ATOM      5  C   UNL     1       2.666   2.574  18.812  0.00  0.00    +0.000 C 
ATOM      6  C   UNL     1       3.085   3.959  18.397  0.00  0.00    +0.000 A 
ATOM      7  C   UNL     1       3.922   4.102  17.284  0.00  0.00    +0.000 A 
ATOM      8  C   UNL     1       4.299   5.368  16.829  0.00  0.00    +0.000 A 
ATOM      9  C   UNL     1       3.902   6.501  17.538  0.00  0.00    +0.000 A 
ATOM     10  C   UNL     1       3.098   6.372  18.673  0.00  0.00    +0.000 A 
ATOM     11  C   UNL     1       2.690   5.104  19.102  0.00  0.00    +0.000 A 
ENDROOT
BRANCH   8  12
ATOM     12  O   UNL     1       5.045   5.597  15.703  0.00  0.00    +0.000 OA
BRANCH  12  13
ATOM     13  C   UNL     1       6.404   5.159  15.788  0.00  0.00    +0.000 C 
BRANCH  13  14
ATOM     14  C   UNL     1       7.113   5.797  16.957  0.00  0.00    +0.000 A 
ATOM     15  C   UNL     1       7.430   5.013  18.076  0.00  0.00    +0.000 A 
ATOM     16  C   UNL     1       8.065   5.573  19.182  0.00  0.00    +0.000 A 
ATOM     17  C   UNL     1       8.375   6.933  19.186  0.00  0.00    +0.000 A 
ATOM     18  C   UNL     1       8.047   7.723  18.086  0.00  0.00    +0.000 A 
ATOM     19  I   UNL     1       8.510   9.751  18.100  0.00  0.00    +0.000 I 
ATOM     20  C   UNL     1       7.412   7.166  16.975  0.00  0.00    +0.000 A 
ENDBRANCH  13  14
ENDBRANCH  12  13
ENDBRANCH   8  12
TORSDOF 3
ENDMDL
MODEL 4
REMARK VINA RESULT:      -7.2      4.402      6.573
REMARK  Name = 
REMARK  3 active torsions:
REMARK  status: ('A' for Active; 'I' for Inactive)
REMARK    1  A    between atoms: C_8  and  O_9
REMARK    2  A    between atoms: O_9  and  C_10
REMARK    3  A    between atoms: C_10  and  C_11
REMARK                            x       y       z     vdW  Elec       q    Type
REMARK                         _______ _______ _______ _____ _____    ______ ____
ROOT
ATOM      1  O   UNL     1       1.507   2.645  21.053  0.00  0.00    +0.000 OA
ATOM      2  C   UNL     1       2.006   3.034  20.001  0.00  0.00    +0.000 C 
ATOM      3  C   UNL     1       2.625   2.078  19.007  0.00  0.00    +0.000 C 
ATOM      4  C   UNL     1       2.407   2.566  17.584  0.00  0.00    +0.000 C 
ATOM      5  C   UNL     1       3.033   3.941  17.390  0.00  0.00    +0.000 C 
ATOM      6  C   UNL     1       2.602   4.911  18.458  0.00  0.00    +0.000 A 
ATOM      7  C   UNL     1       2.735   6.282  18.214  0.00  0.00    +0.000 A 
ATOM      8  C   UNL     1       2.305   7.223  19.152  0.00  0.00    +0.000 A 
ATOM      9  C   UNL     1       1.807   6.791  20.381  0.00  0.00    +0.000 A 
ATOM     10  C   UNL     1       1.702   5.425  20.655  0.00  0.00    +0.000 A 
ATOM     11  C   UNL     1       2.099   4.486  19.696  0.00  0.00    +0.000 A 
ENDROOT
BRANCH   8  12
ATOM     12  O   UNL     1       2.324   8.579  18.957  0.00  0.00    +0.000 OA
BRANCH  12  13
ATOM     13  C   UNL     1       1.503   9.037  17.880  0.00  0.00    +0.000 C 
BRANCH  13  14
ATOM     14  C   UNL     1       0.319   9.822  18.388  0.00  0.00    +0.000 A 
ATOM     15  C   UNL     1      -0.848   9.878  17.612  0.00  0.00    +0.000 A 
ATOM     16  C   UNL     1      -1.953  10.611  18.039  0.00  0.00    +0.000 A 
ATOM     17  C   UNL     1      -1.895  11.310  19.245  0.00  0.00    +0.000 A 
ATOM     18  C   UNL     1      -0.733  11.274  20.013  0.00  0.00    +0.000 A 
ATOM     19  I   UNL     1      -0.652  12.321  21.808  0.00  0.00    +0.000 I 
ATOM     20  C   UNL     1       0.377  10.541  19.590  0.00  0.00    +0.000 A 
ENDBRANCH  13  14
ENDBRANCH  12  13
ENDBRANCH   8  12
TORSDOF 3
ENDMDL
MODEL 5
REMARK VINA RESULT:      -7.2      4.063      8.923
REMARK  Name = 
REMARK  3 active torsions:
REMARK  status: ('A' for Active; 'I' for Inactive)
REMARK    1  A    between atoms: C_8  and  O_9
REMARK    2  A    between atoms: O_9  and  C_10
REMARK    3  A    between atoms: C_10  and  C_11
REMARK                            x       y       z     vdW  Elec       q    Type
REMARK                         _______ _______ _______ _____ _____    ______ ____
ROOT
ATOM      1  O   UNL     1      -1.729  12.112  20.837  0.00  0.00    +0.000 OA
ATOM      2  C   UNL     1      -0.925  11.282  21.250  0.00  0.00    +0.000 C 
ATOM      3  C   UNL     1      -0.627  11.119  22.723  0.00  0.00    +0.000 C 
ATOM      4  C   UNL     1      -0.337   9.665  23.056  0.00  0.00    +0.000 C 
ATOM      5  C   UNL     1       0.859   9.162  22.259  0.00  0.00    +0.000 C 
ATOM      6  C   UNL     1       0.718   9.453  20.789  0.00  0.00    +0.000 A 
ATOM      7  C   UNL     1       1.492   8.719  19.882  0.00  0.00    +0.000 A 
ATOM      8  C   UNL     1       1.361   8.916  18.505  0.00  0.00    +0.000 A 
ATOM      9  C   UNL     1       0.507   9.910  18.030  0.00  0.00    +0.000 A 
ATOM     10  C   UNL     1      -0.245  10.676  18.924  0.00  0.00    +0.000 A 
ATOM     11  C   UNL     1      -0.140  10.448  20.301  0.00  0.00    +0.000 A 
ENDROOT
BRANCH   8  12
ATOM     12  O   UNL     1       2.019   8.185  17.551  0.00  0.00    +0.000 OA
BRANCH  12  13
ATOM     13  C   UNL     1       3.315   7.723  17.943  0.00  0.00    +0.000 C 
BRANCH  13  14
ATOM     14  C   UNL     1       3.443   6.231  17.761  0.00  0.00    +0.000 A 
ATOM     15  C   UNL     1       4.492   5.725  16.978  0.00  0.00    +0.000 A 
ATOM     16  C   UNL     1       4.628   4.355  16.770  0.00  0.00    +0.000 A 
ATOM     17  C   UNL     1       3.705   3.475  17.333  0.00  0.00    +0.000 A 
ATOM     18  C   UNL     1       2.650   3.969  18.097  0.00  0.00    +0.000 A 
ATOM     19  I   UNL     1       1.274   2.651  18.931  0.00  0.00    +0.000 I 
ATOM     20  C   UNL     1       2.509   5.342  18.309  0.00  0.00    +0.000 A 
ENDBRANCH  13  14
ENDBRANCH  12  13
ENDBRANCH   8  12
TORSDOF 3
ENDMDL
MODEL 6
REMARK VINA RESULT:      -7.1      1.097      1.285
REMARK  Name = 
REMARK  3 active torsions:
REMARK  status: ('A' for Active; 'I' for Inactive)
REMARK    1  A    between atoms: C_8  and  O_9
REMARK    2  A    between atoms: O_9  and  C_10
REMARK    3  A    between atoms: C_10  and  C_11
REMARK                            x       y       z     vdW  Elec       q    Type
REMARK                         _______ _______ _______ _____ _____    ______ ____
ROOT
ATOM      1  O   UNL     1       8.921   5.933  13.303  0.00  0.00    +0.000 OA
ATOM      2  C   UNL     1       7.908   5.254  13.165  0.00  0.00    +0.000 C 
ATOM      3  C   UNL     1       7.375   4.878  11.801  0.00  0.00    +0.000 C 
ATOM      4  C   UNL     1       6.739   3.499  11.833  0.00  0.00    +0.000 C 
ATOM      5  C   UNL     1       5.588   3.465  12.830  0.00  0.00    +0.000 C 
ATOM      6  C   UNL     1       5.996   3.998  14.178  0.00  0.00    +0.000 A 
ATOM      7  C   UNL     1       5.222   3.665  15.295  0.00  0.00    +0.000 A 
ATOM      8  C   UNL     1       5.586   4.093  16.573  0.00  0.00    +0.000 A 
ATOM      9  C   UNL     1       6.691   4.928  16.730  0.00  0.00    +0.000 A 
ATOM     10  C   UNL     1       7.454   5.300  15.620  0.00  0.00    +0.000 A 
ATOM     11  C   UNL     1       7.107   4.836  14.346  0.00  0.00    +0.000 A 
ENDROOT
BRANCH   8  12
ATOM     12  O   UNL     1       4.930   3.744  17.725  0.00  0.00    +0.000 OA
BRANCH  12  13
ATOM     13  C   UNL     1       4.990   4.724  18.765  0.00  0.00    +0.000 C 
BRANCH  13  14
ATOM     14  C   UNL     1       3.654   4.878  19.450  0.00  0.00    +0.000 A 
ATOM     15  C   UNL     1       2.888   3.735  19.719  0.00  0.00    +0.000 A 
ATOM     16  C   UNL     1       1.640   3.841  20.330  0.00  0.00    +0.000 A 
ATOM     17  C   UNL     1       1.140   5.099  20.665  0.00  0.00    +0.000 A 
ATOM     18  C   UNL     1       1.887   6.241  20.386  0.00  0.00    +0.000 A 
ATOM     19  I   UNL     1       1.133   8.113  20.885  0.00  0.00    +0.000 I 
ATOM     20  C   UNL     1       3.138   6.140  19.774  0.00  0.00    +0.000 A 
ENDBRANCH  13  14
ENDBRANCH  12  13
ENDBRANCH   8  12
TORSDOF 3
ENDMDL
MODEL 7
REMARK VINA RESULT:      -7.1      3.682      5.859
REMARK  Name = 
REMARK  3 active torsions:
REMARK  status: ('A' for Active; 'I' for Inactive)
REMARK    1  A    between atoms: C_8  and  O_9
REMARK    2  A    between atoms: O_9  and  C_10
REMARK    3  A    between atoms: C_10  and  C_11
REMARK                            x       y       z     vdW  Elec       q    Type
REMARK                         _______ _______ _______ _____ _____    ______ ____
ROOT
ATOM      1  O   UNL     1       4.790   3.659  16.584  0.00  0.00    +0.000 OA
ATOM      2  C   UNL     1       4.067   3.556  17.571  0.00  0.00    +0.000 C 
ATOM      3  C   UNL     1       3.686   2.212  18.149  0.00  0.00    +0.000 C 
ATOM      4  C   UNL     1       3.556   2.293  19.660  0.00  0.00    +0.000 C 
ATOM      5  C   UNL     1       2.491   3.308  20.051  0.00  0.00    +0.000 C 
ATOM      6  C   UNL     1       2.700   4.634  19.368  0.00  0.00    +0.000 A 
ATOM      7  C   UNL     1       2.090   5.772  19.908  0.00  0.00    +0.000 A 
ATOM      8  C   UNL     1       2.293   7.031  19.340  0.00  0.00    +0.000 A 
ATOM      9  C   UNL     1       3.050   7.147  18.176  0.00  0.00    +0.000 A 
ATOM     10  C   UNL     1       3.636   6.016  17.603  0.00  0.00    +0.000 A 
ATOM     11  C   UNL     1       3.461   4.761  18.197  0.00  0.00    +0.000 A 
ENDROOT
BRANCH   8  12
ATOM     12  O   UNL     1       1.801   8.202  19.854  0.00  0.00    +0.000 OA
BRANCH  12  13
ATOM     13  C   UNL     1       1.284   8.099  21.184  0.00  0.00    +0.000 C 
BRANCH  13  14
ATOM     14  C   UNL     1       0.496   9.328  21.563  0.00  0.00    +0.000 A 
ATOM     15  C   UNL     1      -0.187   9.351  22.788  0.00  0.00    +0.000 A 
ATOM     16  C   UNL     1      -0.943  10.460  23.161  0.00  0.00    +0.000 A 
ATOM     17  C   UNL     1      -1.036  11.555  22.302  0.00  0.00    +0.000 A 
ATOM     18  C   UNL     1      -0.375  11.533  21.075  0.00  0.00    +0.000 A 
ATOM     19  I   UNL     1      -0.520  13.167  19.797  0.00  0.00    +0.000 I 
ATOM     20  C   UNL     1       0.385  10.424  20.697  0.00  0.00    +0.000 A 
ENDBRANCH  13  14
ENDBRANCH  12  13
ENDBRANCH   8  12
TORSDOF 3
ENDMDL
MODEL 8
REMARK VINA RESULT:      -7.0      2.824      7.317
REMARK  Name = 
REMARK  3 active torsions:
REMARK  status: ('A' for Active; 'I' for Inactive)
REMARK    1  A    between atoms: C_8  and  O_9
REMARK    2  A    between atoms: O_9  and  C_10
REMARK    3  A    between atoms: C_10  and  C_11
REMARK                            x       y       z     vdW  Elec       q    Type
REMARK                         _______ _______ _______ _____ _____    ______ ____
ROOT
ATOM      1  O   UNL     1       1.136   5.329  20.922  0.00  0.00    +0.000 OA
ATOM      2  C   UNL     1       1.497   4.489  20.104  0.00  0.00    +0.000 C 
ATOM      3  C   UNL     1       0.980   3.068  20.135  0.00  0.00    +0.000 C 
ATOM      4  C   UNL     1       0.857   2.509  18.727  0.00  0.00    +0.000 C 
ATOM      5  C   UNL     1       2.210   2.519  18.028  0.00  0.00    +0.000 C 
ATOM      6  C   UNL     1       2.876   3.867  18.111  0.00  0.00    +0.000 A 
ATOM      7  C   UNL     1       3.893   4.171  17.199  0.00  0.00    +0.000 A 
ATOM      8  C   UNL     1       4.507   5.425  17.203  0.00  0.00    +0.000 A 
ATOM      9  C   UNL     1       4.158   6.360  18.177  0.00  0.00    +0.000 A 
ATOM     10  C   UNL     1       3.171   6.058  19.118  0.00  0.00    +0.000 A 
ATOM     11  C   UNL     1       2.531   4.814  19.086  0.00  0.00    +0.000 A 
ENDROOT
BRANCH   8  12
ATOM     12  O   UNL     1       5.450   5.830  16.295  0.00  0.00    +0.000 OA
BRANCH  12  13
ATOM     13  C   UNL     1       6.464   4.861  16.016  0.00  0.00    +0.000 C 
BRANCH  13  14
ATOM     14  C   UNL     1       6.641   4.664  14.531  0.00  0.00    +0.000 A 
ATOM     15  C   UNL     1       7.773   5.200  13.900  0.00  0.00    +0.000 A 
ATOM     16  C   UNL     1       7.958   5.057  12.527  0.00  0.00    +0.000 A 
ATOM     17  C   UNL     1       7.001   4.386  11.767  0.00  0.00    +0.000 A 
ATOM     18  C   UNL     1       5.865   3.865  12.383  0.00  0.00    +0.000 A 
ATOM     19  I   UNL     1       4.440   2.868  11.242  0.00  0.00    +0.000 I 
ATOM     20  C   UNL     1       5.675   4.005  13.759  0.00  0.00    +0.000 A 
ENDBRANCH  13  14
ENDBRANCH  12  13
ENDBRANCH   8  12
TORSDOF 3
ENDMDL
MODEL 9
REMARK VINA RESULT:      -7.0      3.925      8.728
REMARK  Name = 
REMARK  3 active torsions:
REMARK  status: ('A' for Active; 'I' for Inactive)
REMARK    1  A    between atoms: C_8  and  O_9
REMARK    2  A    between atoms: O_9  and  C_10
REMARK    3  A    between atoms: C_10  and  C_11
REMARK                            x       y       z     vdW  Elec       q    Type
REMARK                         _______ _______ _______ _____ _____    ______ ____
ROOT
ATOM      1  O   UNL     1       0.113   9.869  23.537  0.00  0.00    +0.000 OA
ATOM      2  C   UNL     1       0.072  10.348  22.407  0.00  0.00    +0.000 C 
ATOM      3  C   UNL     1      -0.662  11.636  22.111  0.00  0.00    +0.000 C 
ATOM      4  C   UNL     1       0.048  12.422  21.021  0.00  0.00    +0.000 C 
ATOM      5  C   UNL     1       0.130  11.603  19.740  0.00  0.00    +0.000 C 
ATOM      6  C   UNL     1       0.689  10.227  19.986  0.00  0.00    +0.000 A 
ATOM      7  C   UNL     1       1.212   9.510  18.904  0.00  0.00    +0.000 A 
ATOM      8  C   UNL     1       1.786   8.251  19.089  0.00  0.00    +0.000 A 
ATOM      9  C   UNL     1       1.770   7.666  20.354  0.00  0.00    +0.000 A 
ATOM     10  C   UNL     1       1.218   8.353  21.438  0.00  0.00    +0.000 A 
ATOM     11  C   UNL     1       0.678   9.631  21.255  0.00  0.00    +0.000 A 
ENDROOT
BRANCH   8  12
ATOM     12  O   UNL     1       2.392   7.522  18.099  0.00  0.00    +0.000 OA
BRANCH  12  13
ATOM     13  C   UNL     1       2.506   6.123  18.374  0.00  0.00    +0.000 C 
BRANCH  13  14
ATOM     14  C   UNL     1       3.913   5.631  18.142  0.00  0.00    +0.000 A 
ATOM     15  C   UNL     1       4.776   5.483  19.238  0.00  0.00    +0.000 A 
ATOM     16  C   UNL     1       6.089   5.053  19.059  0.00  0.00    +0.000 A 
ATOM     17  C   UNL     1       6.557   4.779  17.774  0.00  0.00    +0.000 A 
ATOM     18  C   UNL     1       5.712   4.940  16.678  0.00  0.00    +0.000 A 
ATOM     19  I   UNL     1       6.418   4.533  14.764  0.00  0.00    +0.000 I 
ATOM     20  C   UNL     1       4.395   5.371  16.852  0.00  0.00    +0.000 A 
ENDBRANCH  13  14
ENDBRANCH  12  13
ENDBRANCH   8  12
TORSDOF 3
ENDMDL
