MODEL 1
REMARK VINA RESULT:      -7.9      0.000      0.000
REMARK  Name = 
REMARK  5 active torsions:
REMARK  status: ('A' for Active; 'I' for Inactive)
REMARK    1  A    between atoms: C_1  and  N_2
REMARK    2  A    between atoms: C_8  and  C_9
REMARK    3  A    between atoms: C_10  and  C_11
REMARK    4  A    between atoms: N_17  and  C_18
REMARK    5  A    between atoms: N_19  and  C_20
REMARK                            x       y       z     vdW  Elec       q    Type
REMARK                         _______ _______ _______ _____ _____    ______ ____
ROOT
ATOM      1  C   UNL     1       0.516   1.964  18.768  0.00  0.00    +0.000 C 
ATOM      2  N   UNL     1       1.220   3.139  19.226  0.00  0.00    +0.000 N 
ATOM      3  C   UNL     1       1.564   4.154  18.343  0.00  0.00    +0.000 C 
ATOM      4  O   UNL     1       1.085   4.259  17.211  0.00  0.00    +0.000 OA
ATOM      5  C   UNL     1       2.603   5.119  18.934  0.00  0.00    +0.000 C 
ATOM      6  C   UNL     1       3.764   4.233  19.420  0.00  0.00    +0.000 C 
ATOM      7  N   UNL     1       4.580   3.992  18.197  0.00  0.00    +0.000 NA
ATOM      8  C   UNL     1       4.237   4.990  17.400  0.00  0.00    +0.000 C 
ATOM      9  N   UNL     1       3.315   5.904  17.912  0.00  0.00    +0.000 N 
ATOM     10  C   UNL     1       3.893   7.152  18.440  0.00  0.00    +0.000 C 
ATOM     11  N   UNL     1       3.349   3.008  20.047  0.00  0.00    +0.000 N 
ATOM     12  C   UNL     1       4.286   2.263  20.849  0.00  0.00    +0.000 C 
ATOM     13  C   UNL     1       2.003   2.910  20.341  0.00  0.00    +0.000 C 
ATOM     14  O   UNL     1       1.555   2.602  21.439  0.00  0.00    +0.000 OA
ENDROOT
BRANCH   8  15
ATOM     15  C   UNL     1       4.793   5.060  16.024  0.00  0.00    +0.000 C 
ATOM     16  C   UNL     1       5.549   4.083  15.519  0.00  0.00    +0.000 C 
BRANCH  16  17
ATOM     17  C   UNL     1       6.166   4.157  14.182  0.00  0.00    +0.000 A 
ATOM     18  C   UNL     1       5.704   3.390  13.109  0.00  0.00    +0.000 A 
ATOM     19  C   UNL     1       6.319   3.466  11.856  0.00  0.00    +0.000 A 
ATOM     20  C   UNL     1       7.392   4.326  11.655  0.00  0.00    +0.000 A 
ATOM     21  C   UNL     1       7.829   5.144  12.706  0.00  0.00    +0.000 A 
ATOM     22  C   UNL     1       7.216   5.061  13.960  0.00  0.00    +0.000 A 
ENDBRANCH  16  17
ENDBRANCH   8  15
TORSDOF 2
ENDMDL
MODEL 2
REMARK VINA RESULT:      -7.8      0.105      1.033
REMARK  Name = 
REMARK  5 active torsions:
REMARK  status: ('A' for Active; 'I' for Inactive)
REMARK    1  A    between atoms: C_1  and  N_2
REMARK    2  A    between atoms: C_8  and  C_9
REMARK    3  A    between atoms: C_10  and  C_11
REMARK    4  A    between atoms: N_17  and  C_18
REMARK    5  A    between atoms: N_19  and  C_20
REMARK                            x       y       z     vdW  Elec       q    Type
REMARK                         _______ _______ _______ _____ _____    ______ ____
ROOT
ATOM      1  C   UNL     1       0.604   1.789  18.718  0.00  0.00    +0.000 C 
ATOM      2  N   UNL     1       1.253   2.988  19.196  0.00  0.00    +0.000 N 
ATOM      3  C   UNL     1       1.568   4.024  18.326  0.00  0.00    +0.000 C 
ATOM      4  O   UNL     1       1.103   4.118  17.187  0.00  0.00    +0.000 OA
ATOM      5  C   UNL     1       2.559   5.025  18.940  0.00  0.00    +0.000 C 
ATOM      6  C   UNL     1       3.747   4.182  19.436  0.00  0.00    +0.000 C 
ATOM      7  N   UNL     1       4.590   3.985  18.224  0.00  0.00    +0.000 NA
ATOM      8  C   UNL     1       4.220   4.974  17.430  0.00  0.00    +0.000 C 
ATOM      9  N   UNL     1       3.254   5.846  17.934  0.00  0.00    +0.000 N 
ATOM     10  C   UNL     1       3.773   7.113  18.480  0.00  0.00    +0.000 C 
ATOM     11  N   UNL     1       3.373   2.937  20.048  0.00  0.00    +0.000 N 
ATOM     12  C   UNL     1       4.327   2.224  20.858  0.00  0.00    +0.000 C 
ATOM     13  C   UNL     1       2.028   2.782  20.321  0.00  0.00    +0.000 C 
ATOM     14  O   UNL     1       1.576   2.448  21.409  0.00  0.00    +0.000 OA
ENDROOT
BRANCH   8  15
ATOM     15  C   UNL     1       4.793   5.078  16.063  0.00  0.00    +0.000 C 
ATOM     16  C   UNL     1       5.576   4.126  15.554  0.00  0.00    +0.000 C 
BRANCH  16  17
ATOM     17  C   UNL     1       6.210   4.234  14.226  0.00  0.00    +0.000 A 
ATOM     18  C   UNL     1       7.301   5.075  13.993  0.00  0.00    +0.000 A 
ATOM     19  C   UNL     1       7.872   5.172  12.720  0.00  0.00    +0.000 A 
ATOM     20  C   UNL     1       7.371   4.414  11.670  0.00  0.00    +0.000 A 
ATOM     21  C   UNL     1       6.314   3.523  11.902  0.00  0.00    +0.000 A 
ATOM     22  C   UNL     1       5.741   3.433  13.175  0.00  0.00    +0.000 A 
ENDBRANCH  16  17
ENDBRANCH   8  15
TORSDOF 2
ENDMDL
MODEL 3
REMARK VINA RESULT:      -7.5      7.815      9.954
REMARK  Name = 
REMARK  5 active torsions:
REMARK  status: ('A' for Active; 'I' for Inactive)
REMARK    1  A    between atoms: C_1  and  N_2
REMARK    2  A    between atoms: C_8  and  C_9
REMARK    3  A    between atoms: C_10  and  C_11
REMARK    4  A    between atoms: N_17  and  C_18
REMARK    5  A    between atoms: N_19  and  C_20
REMARK                            x       y       z     vdW  Elec       q    Type
REMARK                         _______ _______ _______ _____ _____    ______ ____
ROOT
ATOM      1  C   UNL     1       6.283  14.775  18.091  0.00  0.00    +0.000 C 
ATOM      2  N   UNL     1       7.700  14.506  18.175  0.00  0.00    +0.000 N 
ATOM      3  C   UNL     1       8.241  13.355  17.619  0.00  0.00    +0.000 C 
ATOM      4  O   UNL     1       7.635  12.639  16.817  0.00  0.00    +0.000 OA
ATOM      5  C   UNL     1       9.667  13.075  18.120  0.00  0.00    +0.000 C 
ATOM      6  C   UNL     1       9.580  13.100  19.656  0.00  0.00    +0.000 C 
ATOM      7  N   UNL     1       9.110  11.734  20.020  0.00  0.00    +0.000 NA
ATOM      8  C   UNL     1       9.433  11.008  18.964  0.00  0.00    +0.000 C 
ATOM      9  N   UNL     1      10.087  11.677  17.928  0.00  0.00    +0.000 N 
ATOM     10  C   UNL     1      11.551  11.512  17.897  0.00  0.00    +0.000 C 
ATOM     11  N   UNL     1       8.725  14.129  20.182  0.00  0.00    +0.000 N 
ATOM     12  C   UNL     1       8.820  14.494  21.573  0.00  0.00    +0.000 C 
ATOM     13  C   UNL     1       8.304  15.082  19.276  0.00  0.00    +0.000 C 
ATOM     14  O   UNL     1       8.401  16.291  19.447  0.00  0.00    +0.000 OA
ENDROOT
BRANCH   8  15
ATOM     15  C   UNL     1       9.053   9.573  18.910  0.00  0.00    +0.000 C 
ATOM     16  C   UNL     1       8.243   9.094  17.965  0.00  0.00    +0.000 C 
BRANCH  16  17
ATOM     17  C   UNL     1       7.799   7.688  17.927  0.00  0.00    +0.000 A 
ATOM     18  C   UNL     1       7.036   7.180  16.873  0.00  0.00    +0.000 A 
ATOM     19  C   UNL     1       6.612   5.848  16.870  0.00  0.00    +0.000 A 
ATOM     20  C   UNL     1       6.966   5.001  17.913  0.00  0.00    +0.000 A 
ATOM     21  C   UNL     1       7.780   5.480  18.948  0.00  0.00    +0.000 A 
ATOM     22  C   UNL     1       8.195   6.815  18.951  0.00  0.00    +0.000 A 
ENDBRANCH  16  17
ENDBRANCH   8  15
TORSDOF 2
ENDMDL
MODEL 4
REMARK VINA RESULT:      -7.4      3.418      6.938
REMARK  Name = 
REMARK  5 active torsions:
REMARK  status: ('A' for Active; 'I' for Inactive)
REMARK    1  A    between atoms: C_1  and  N_2
REMARK    2  A    between atoms: C_8  and  C_9
REMARK    3  A    between atoms: C_10  and  C_11
REMARK    4  A    between atoms: N_17  and  C_18
REMARK    5  A    between atoms: N_19  and  C_20
REMARK                            x       y       z     vdW  Elec       q    Type
REMARK                         _______ _______ _______ _____ _____    ______ ____
ROOT
ATOM      1  C   UNL     1       6.715   5.117  15.335  0.00  0.00    +0.000 C 
ATOM      2  N   UNL     1       6.358   4.438  16.559  0.00  0.00    +0.000 N 
ATOM      3  C   UNL     1       5.029   4.313  16.943  0.00  0.00    +0.000 C 
ATOM      4  O   UNL     1       4.081   4.519  16.181  0.00  0.00    +0.000 OA
ATOM      5  C   UNL     1       4.880   3.898  18.415  0.00  0.00    +0.000 C 
ATOM      6  C   UNL     1       5.717   4.909  19.218  0.00  0.00    +0.000 C 
ATOM      7  N   UNL     1       4.814   6.083  19.386  0.00  0.00    +0.000 NA
ATOM      8  C   UNL     1       3.609   5.569  19.211  0.00  0.00    +0.000 C 
ATOM      9  N   UNL     1       3.549   4.195  18.971  0.00  0.00    +0.000 N 
ATOM     10  C   UNL     1       3.213   3.366  20.142  0.00  0.00    +0.000 C 
ATOM     11  N   UNL     1       6.965   5.266  18.601  0.00  0.00    +0.000 N 
ATOM     12  C   UNL     1       7.989   5.911  19.382  0.00  0.00    +0.000 C 
ATOM     13  C   UNL     1       7.345   4.490  17.524  0.00  0.00    +0.000 C 
ATOM     14  O   UNL     1       8.442   3.957  17.408  0.00  0.00    +0.000 OA
ENDROOT
BRANCH   8  15
ATOM     15  C   UNL     1       2.418   6.457  19.227  0.00  0.00    +0.000 C 
ATOM     16  C   UNL     1       2.521   7.776  19.062  0.00  0.00    +0.000 C 
BRANCH  16  17
ATOM     17  C   UNL     1       1.364   8.687  19.138  0.00  0.00    +0.000 A 
ATOM     18  C   UNL     1       0.776   9.037  20.356  0.00  0.00    +0.000 A 
ATOM     19  C   UNL     1      -0.333   9.888  20.400  0.00  0.00    +0.000 A 
ATOM     20  C   UNL     1      -0.854  10.417  19.225  0.00  0.00    +0.000 A 
ATOM     21  C   UNL     1      -0.238  10.121  18.001  0.00  0.00    +0.000 A 
ATOM     22  C   UNL     1       0.866   9.264  17.961  0.00  0.00    +0.000 A 
ENDBRANCH  16  17
ENDBRANCH   8  15
TORSDOF 2
ENDMDL
MODEL 5
REMARK VINA RESULT:      -7.3      3.450      6.931
REMARK  Name = 
REMARK  5 active torsions:
REMARK  status: ('A' for Active; 'I' for Inactive)
REMARK    1  A    between atoms: C_1  and  N_2
REMARK    2  A    between atoms: C_8  and  C_9
REMARK    3  A    between atoms: C_10  and  C_11
REMARK    4  A    between atoms: N_17  and  C_18
REMARK    5  A    between atoms: N_19  and  C_20
REMARK                            x       y       z     vdW  Elec       q    Type
REMARK                         _______ _______ _______ _____ _____    ______ ____
ROOT
ATOM      1  C   UNL     1       6.882   5.302  15.491  0.00  0.00    +0.000 C 
ATOM      2  N   UNL     1       6.453   4.567  16.659  0.00  0.00    +0.000 N 
ATOM      3  C   UNL     1       5.105   4.440  16.967  0.00  0.00    +0.000 C 
ATOM      4  O   UNL     1       4.200   4.696  16.168  0.00  0.00    +0.000 OA
ATOM      5  C   UNL     1       4.874   3.954  18.406  0.00  0.00    +0.000 C 
ATOM      6  C   UNL     1       5.678   4.912  19.302  0.00  0.00    +0.000 C 
ATOM      7  N   UNL     1       4.781   6.087  19.482  0.00  0.00    +0.000 NA
ATOM      8  C   UNL     1       3.581   5.599  19.219  0.00  0.00    +0.000 C 
ATOM      9  N   UNL     1       3.520   4.240  18.906  0.00  0.00    +0.000 N 
ATOM     10  C   UNL     1       3.114   3.357  20.015  0.00  0.00    +0.000 C 
ATOM     11  N   UNL     1       6.961   5.283  18.769  0.00  0.00    +0.000 N 
ATOM     12  C   UNL     1       7.950   5.874  19.634  0.00  0.00    +0.000 C 
ATOM     13  C   UNL     1       7.389   4.557  17.675  0.00  0.00    +0.000 C 
ATOM     14  O   UNL     1       8.485   4.016  17.589  0.00  0.00    +0.000 OA
ENDROOT
BRANCH   8  15
ATOM     15  C   UNL     1       2.400   6.501  19.218  0.00  0.00    +0.000 C 
ATOM     16  C   UNL     1       2.519   7.815  19.026  0.00  0.00    +0.000 C 
BRANCH  16  17
ATOM     17  C   UNL     1       1.372   8.740  19.085  0.00  0.00    +0.000 A 
ATOM     18  C   UNL     1       0.813   9.302  17.934  0.00  0.00    +0.000 A 
ATOM     19  C   UNL     1      -0.263  10.191  18.020  0.00  0.00    +0.000 A 
ATOM     20  C   UNL     1      -0.807  10.513  19.257  0.00  0.00    +0.000 A 
ATOM     21  C   UNL     1      -0.294   9.912  20.415  0.00  0.00    +0.000 A 
ATOM     22  C   UNL     1       0.787   9.029  20.326  0.00  0.00    +0.000 A 
ENDBRANCH  16  17
ENDBRANCH   8  15
TORSDOF 2
ENDMDL
MODEL 6
REMARK VINA RESULT:      -6.9      8.219     10.465
REMARK  Name = 
REMARK  5 active torsions:
REMARK  status: ('A' for Active; 'I' for Inactive)
REMARK    1  A    between atoms: C_1  and  N_2
REMARK    2  A    between atoms: C_8  and  C_9
REMARK    3  A    between atoms: C_10  and  C_11
REMARK    4  A    between atoms: N_17  and  C_18
REMARK    5  A    between atoms: N_19  and  C_20
REMARK                            x       y       z     vdW  Elec       q    Type
REMARK                         _______ _______ _______ _____ _____    ______ ____
ROOT
ATOM      1  C   UNL     1      12.332  13.904  17.104  0.00  0.00    +0.000 C 
ATOM      2  N   UNL     1      11.467  13.804  18.257  0.00  0.00    +0.000 N 
ATOM      3  C   UNL     1      11.354  12.613  18.962  0.00  0.00    +0.000 C 
ATOM      4  O   UNL     1      12.144  11.674  18.837  0.00  0.00    +0.000 OA
ATOM      5  C   UNL     1      10.139  12.601  19.903  0.00  0.00    +0.000 C 
ATOM      6  C   UNL     1       8.931  12.976  19.027  0.00  0.00    +0.000 C 
ATOM      7  N   UNL     1       8.532  11.694  18.382  0.00  0.00    +0.000 NA
ATOM      8  C   UNL     1       9.049  10.777  19.181  0.00  0.00    +0.000 C 
ATOM      9  N   UNL     1       9.729  11.245  20.306  0.00  0.00    +0.000 N 
ATOM     10  C   UNL     1       8.959  11.223  21.562  0.00  0.00    +0.000 C 
ATOM     11  N   UNL     1       9.198  14.010  18.065  0.00  0.00    +0.000 N 
ATOM     12  C   UNL     1       8.101  14.698  17.433  0.00  0.00    +0.000 C 
ATOM     13  C   UNL     1      10.397  14.678  18.218  0.00  0.00    +0.000 C 
ATOM     14  O   UNL     1      10.510  15.897  18.259  0.00  0.00    +0.000 OA
ENDROOT
BRANCH   8  15
ATOM     15  C   UNL     1       8.928   9.338  18.828  0.00  0.00    +0.000 C 
ATOM     16  C   UNL     1       7.870   8.861  18.170  0.00  0.00    +0.000 C 
BRANCH  16  17
ATOM     17  C   UNL     1       7.695   7.429  17.865  0.00  0.00    +0.000 A 
ATOM     18  C   UNL     1       8.057   6.429  18.771  0.00  0.00    +0.000 A 
ATOM     19  C   UNL     1       7.897   5.078  18.450  0.00  0.00    +0.000 A 
ATOM     20  C   UNL     1       7.353   4.710  17.225  0.00  0.00    +0.000 A 
ATOM     21  C   UNL     1       6.932   5.703  16.330  0.00  0.00    +0.000 A 
ATOM     22  C   UNL     1       7.100   7.054  16.652  0.00  0.00    +0.000 A 
ENDBRANCH  16  17
ENDBRANCH   8  15
TORSDOF 2
ENDMDL
MODEL 7
REMARK VINA RESULT:      -6.9      8.290     10.558
REMARK  Name = 
REMARK  5 active torsions:
REMARK  status: ('A' for Active; 'I' for Inactive)
REMARK    1  A    between atoms: C_1  and  N_2
REMARK    2  A    between atoms: C_8  and  C_9
REMARK    3  A    between atoms: C_10  and  C_11
REMARK    4  A    between atoms: N_17  and  C_18
REMARK    5  A    between atoms: N_19  and  C_20
REMARK                            x       y       z     vdW  Elec       q    Type
REMARK                         _______ _______ _______ _____ _____    ______ ____
ROOT
ATOM      1  C   UNL     1      12.126  13.634  16.362  0.00  0.00    +0.000 C 
ATOM      2  N   UNL     1      11.507  13.683  17.666  0.00  0.00    +0.000 N 
ATOM      3  C   UNL     1      11.458  12.556  18.475  0.00  0.00    +0.000 C 
ATOM      4  O   UNL     1      12.139  11.547  18.275  0.00  0.00    +0.000 OA
ATOM      5  C   UNL     1      10.461  12.708  19.635  0.00  0.00    +0.000 C 
ATOM      6  C   UNL     1       9.129  13.125  18.986  0.00  0.00    +0.000 C 
ATOM      7  N   UNL     1       8.520  11.840  18.539  0.00  0.00    +0.000 NA
ATOM      8  C   UNL     1       9.123  10.938  19.293  0.00  0.00    +0.000 C 
ATOM      9  N   UNL     1      10.048  11.421  20.219  0.00  0.00    +0.000 N 
ATOM     10  C   UNL     1       9.549  11.547  21.600  0.00  0.00    +0.000 C 
ATOM     11  N   UNL     1       9.267  14.066  17.908  0.00  0.00    +0.000 N 
ATOM     12  C   UNL     1       8.115  14.800  17.451  0.00  0.00    +0.000 C 
ATOM     13  C   UNL     1      10.515  14.640  17.768  0.00  0.00    +0.000 C 
ATOM     14  O   UNL     1      10.718  15.845  17.686  0.00  0.00    +0.000 OA
ENDROOT
BRANCH   8  15
ATOM     15  C   UNL     1       8.835   9.494  19.090  0.00  0.00    +0.000 C 
ATOM     16  C   UNL     1       8.178   9.052  18.017  0.00  0.00    +0.000 C 
BRANCH  16  17
ATOM     17  C   UNL     1       7.822   7.634  17.823  0.00  0.00    +0.000 A 
ATOM     18  C   UNL     1       7.207   7.177  16.654  0.00  0.00    +0.000 A 
ATOM     19  C   UNL     1       6.863   5.831  16.504  0.00  0.00    +0.000 A 
ATOM     20  C   UNL     1       7.150   4.919  17.513  0.00  0.00    +0.000 A 
ATOM     21  C   UNL     1       7.819   5.352  18.666  0.00  0.00    +0.000 A 
ATOM     22  C   UNL     1       8.155   6.701  18.817  0.00  0.00    +0.000 A 
ENDBRANCH  16  17
ENDBRANCH   8  15
TORSDOF 2
ENDMDL
MODEL 8
REMARK VINA RESULT:      -6.8      4.495      6.320
REMARK  Name = 
REMARK  5 active torsions:
REMARK  status: ('A' for Active; 'I' for Inactive)
REMARK    1  A    between atoms: C_1  and  N_2
REMARK    2  A    between atoms: C_8  and  C_9
REMARK    3  A    between atoms: C_10  and  C_11
REMARK    4  A    between atoms: N_17  and  C_18
REMARK    5  A    between atoms: N_19  and  C_20
REMARK                            x       y       z     vdW  Elec       q    Type
REMARK                         _______ _______ _______ _____ _____    ______ ____
ROOT
ATOM      1  C   UNL     1       2.564   5.002  17.702  0.00  0.00    +0.000 C 
ATOM      2  N   UNL     1       3.903   4.577  18.042  0.00  0.00    +0.000 N 
ATOM      3  C   UNL     1       4.759   5.413  18.747  0.00  0.00    +0.000 C 
ATOM      4  O   UNL     1       4.380   6.423  19.346  0.00  0.00    +0.000 OA
ATOM      5  C   UNL     1       6.220   4.940  18.690  0.00  0.00    +0.000 C 
ATOM      6  C   UNL     1       6.540   4.760  17.196  0.00  0.00    +0.000 C 
ATOM      7  N   UNL     1       6.893   6.129  16.728  0.00  0.00    +0.000 NA
ATOM      8  C   UNL     1       7.232   6.755  17.842  0.00  0.00    +0.000 C 
ATOM      9  N   UNL     1       7.188   6.001  19.015  0.00  0.00    +0.000 N 
ATOM     10  C   UNL     1       8.486   5.478  19.476  0.00  0.00    +0.000 C 
ATOM     11  N   UNL     1       5.472   4.180  16.429  0.00  0.00    +0.000 N 
ATOM     12  C   UNL     1       5.744   3.637  15.122  0.00  0.00    +0.000 C 
ATOM     13  C   UNL     1       4.426   3.652  17.159  0.00  0.00    +0.000 C 
ATOM     14  O   UNL     1       3.976   2.522  17.008  0.00  0.00    +0.000 OA
ENDROOT
BRANCH   8  15
ATOM     15  C   UNL     1       7.583   8.198  17.800  0.00  0.00    +0.000 C 
ATOM     16  C   UNL     1       8.572   8.703  18.539  0.00  0.00    +0.000 C 
BRANCH  16  17
ATOM     17  C   UNL     1       8.899  10.141  18.566  0.00  0.00    +0.000 A 
ATOM     18  C   UNL     1       9.814  10.676  19.477  0.00  0.00    +0.000 A 
ATOM     19  C   UNL     1      10.092  12.046  19.493  0.00  0.00    +0.000 A 
ATOM     20  C   UNL     1       9.474  12.895  18.583  0.00  0.00    +0.000 A 
ATOM     21  C   UNL     1       8.598  12.364  17.626  0.00  0.00    +0.000 A 
ATOM     22  C   UNL     1       8.317  10.995  17.618  0.00  0.00    +0.000 A 
ENDBRANCH  16  17
ENDBRANCH   8  15
TORSDOF 2
ENDMDL
MODEL 9
REMARK VINA RESULT:      -6.6      8.015     10.018
REMARK  Name = 
REMARK  5 active torsions:
REMARK  status: ('A' for Active; 'I' for Inactive)
REMARK    1  A    between atoms: C_1  and  N_2
REMARK    2  A    between atoms: C_8  and  C_9
REMARK    3  A    between atoms: C_10  and  C_11
REMARK    4  A    between atoms: N_17  and  C_18
REMARK    5  A    between atoms: N_19  and  C_20
REMARK                            x       y       z     vdW  Elec       q    Type
REMARK                         _______ _______ _______ _____ _____    ______ ____
ROOT
ATOM      1  C   UNL     1       6.727  15.334  19.438  0.00  0.00    +0.000 C 
ATOM      2  N   UNL     1       8.088  14.860  19.332  0.00  0.00    +0.000 N 
ATOM      3  C   UNL     1       8.446  13.932  18.364  0.00  0.00    +0.000 C 
ATOM      4  O   UNL     1       7.735  13.655  17.394  0.00  0.00    +0.000 OA
ATOM      5  C   UNL     1       9.815  13.292  18.641  0.00  0.00    +0.000 C 
ATOM      6  C   UNL     1       9.740  12.759  20.083  0.00  0.00    +0.000 C 
ATOM      7  N   UNL     1       9.071  11.435  19.952  0.00  0.00    +0.000 NA
ATOM      8  C   UNL     1       9.276  11.113  18.686  0.00  0.00    +0.000 C 
ATOM      9  N   UNL     1      10.018  12.020  17.928  0.00  0.00    +0.000 N 
ATOM     10  C   UNL     1      11.440  11.676  17.751  0.00  0.00    +0.000 C 
ATOM     11  N   UNL     1       9.053  13.629  20.998  0.00  0.00    +0.000 N 
ATOM     12  C   UNL     1       9.209  13.437  22.418  0.00  0.00    +0.000 C 
ATOM     13  C   UNL     1       8.777  14.898  20.529  0.00  0.00    +0.000 C 
ATOM     14  O   UNL     1       9.057  15.932  21.123  0.00  0.00    +0.000 OA
ENDROOT
BRANCH   8  15
ATOM     15  C   UNL     1       8.683   9.867  18.136  0.00  0.00    +0.000 C 
ATOM     16  C   UNL     1       8.626   8.740  18.849  0.00  0.00    +0.000 C 
BRANCH  16  17
ATOM     17  C   UNL     1       8.103   7.474  18.304  0.00  0.00    +0.000 A 
ATOM     18  C   UNL     1       8.080   6.297  19.057  0.00  0.00    +0.000 A 
ATOM     19  C   UNL     1       7.596   5.105  18.511  0.00  0.00    +0.000 A 
ATOM     20  C   UNL     1       7.107   5.080  17.210  0.00  0.00    +0.000 A 
ATOM     21  C   UNL     1       7.070   6.265  16.463  0.00  0.00    +0.000 A 
ATOM     22  C   UNL     1       7.562   7.454  17.010  0.00  0.00    +0.000 A 
ENDBRANCH  16  17
ENDBRANCH   8  15
TORSDOF 2
ENDMDL
