MODEL 1
REMARK VINA RESULT:      -6.6      0.000      0.000
REMARK  Name = 
REMARK  5 active torsions:
REMARK  status: ('A' for Active; 'I' for Inactive)
REMARK    1  A    between atoms: C_1  and  O_2
REMARK    2  A    between atoms: O_2  and  C_3
REMARK    3  A    between atoms: C_6  and  C_7
REMARK    4  A    between atoms: N_9  and  N_10
REMARK    5  A    between atoms: C_11  and  C_12
REMARK                            x       y       z     vdW  Elec       q    Type
REMARK                         _______ _______ _______ _____ _____    ______ ____
ROOT
ATOM      1  C   UNL     1       7.367   6.670  18.134  0.00  0.00    +0.000 C 
ATOM      2  O   UNL     1       8.145   6.232  18.979  0.00  0.00    +0.000 OA
ATOM      3  N   UNL     1       7.515   7.910  17.519  0.00  0.00    +0.000 N 
ATOM      4  H   UNL     1       6.874   8.255  16.819  0.00  0.00    +0.000 HD
ENDROOT
BRANCH   1   8
ATOM      5  C   UNL     1       3.929   4.240  17.154  0.00  0.00    +0.000 A 
ATOM      6  C   UNL     1       4.148   4.706  18.448  0.00  0.00    +0.000 A 
ATOM      7  C   UNL     1       5.261   5.501  18.735  0.00  0.00    +0.000 A 
ATOM      8  C   UNL     1       6.191   5.828  17.735  0.00  0.00    +0.000 A 
ATOM      9  C   UNL     1       5.972   5.345  16.438  0.00  0.00    +0.000 A 
ATOM     10  C   UNL     1       4.848   4.553  16.152  0.00  0.00    +0.000 A 
BRANCH   5  12
ATOM     11  C   UNL     1       1.721   3.764  17.854  0.00  0.00    +0.000 C 
ATOM     12  O   UNL     1       2.815   3.463  16.995  0.00  0.00    +0.000 OA
ENDBRANCH   5  12
ENDBRANCH   1   8
BRANCH   3  13
ATOM     13  N   UNL     1       8.593   8.675  17.852  0.00  0.00    +0.000 NA
ATOM     14  C   UNL     1       8.356   9.844  18.360  0.00  0.00    +0.000 C 
BRANCH  14  15
ATOM     15  C   UNL     1       9.461  10.746  18.746  0.00  0.00    +0.000 A 
ATOM     16  C   UNL     1       9.720  11.011  20.086  0.00  0.00    +0.000 A 
ATOM     17  C   UNL     1      10.762  11.878  20.394  0.00  0.00    +0.000 A 
ATOM     18  C   UNL     1      11.499  12.448  19.363  0.00  0.00    +0.000 A 
ATOM     19  C   UNL     1      11.166  12.122  18.055  0.00  0.00    +0.000 A 
ATOM     20  N   UNL     1      10.165  11.280  17.716  0.00  0.00    +0.000 NA
ENDBRANCH  14  15
ENDBRANCH   3  13
TORSDOF 4
ENDMDL
MODEL 2
REMARK VINA RESULT:      -6.6      5.548      7.506
REMARK  Name = 
REMARK  5 active torsions:
REMARK  status: ('A' for Active; 'I' for Inactive)
REMARK    1  A    between atoms: C_1  and  O_2
REMARK    2  A    between atoms: O_2  and  C_3
REMARK    3  A    between atoms: C_6  and  C_7
REMARK    4  A    between atoms: N_9  and  N_10
REMARK    5  A    between atoms: C_11  and  C_12
REMARK                            x       y       z     vdW  Elec       q    Type
REMARK                         _______ _______ _______ _____ _____    ______ ____
ROOT
ATOM      1  C   UNL     1       2.695   6.304  19.193  0.00  0.00    +0.000 C 
ATOM      2  O   UNL     1       2.338   5.539  20.085  0.00  0.00    +0.000 OA
ATOM      3  N   UNL     1       2.362   7.656  19.157  0.00  0.00    +0.000 N 
ATOM      4  H   UNL     1       2.670   8.277  18.424  0.00  0.00    +0.000 HD
ENDROOT
BRANCH   1   8
ATOM      5  C   UNL     1       5.082   4.584  16.027  0.00  0.00    +0.000 A 
ATOM      6  C   UNL     1       4.274   3.795  16.842  0.00  0.00    +0.000 A 
ATOM      7  C   UNL     1       3.501   4.379  17.849  0.00  0.00    +0.000 A 
ATOM      8  C   UNL     1       3.540   5.764  18.077  0.00  0.00    +0.000 A 
ATOM      9  C   UNL     1       4.366   6.550  17.263  0.00  0.00    +0.000 A 
ATOM     10  C   UNL     1       5.134   5.961  16.245  0.00  0.00    +0.000 A 
BRANCH   5  12
ATOM     11  C   UNL     1       6.685   4.684  14.291  0.00  0.00    +0.000 C 
ATOM     12  O   UNL     1       5.799   3.902  15.083  0.00  0.00    +0.000 OA
ENDBRANCH   5  12
ENDBRANCH   1   8
BRANCH   3  13
ATOM     13  N   UNL     1       1.616   8.167  20.177  0.00  0.00    +0.000 NA
ATOM     14  C   UNL     1       1.058   9.321  19.983  0.00  0.00    +0.000 C 
BRANCH  14  15
ATOM     15  C   UNL     1       0.237   9.957  21.033  0.00  0.00    +0.000 A 
ATOM     16  C   UNL     1       0.094   9.356  22.279  0.00  0.00    +0.000 A 
ATOM     17  C   UNL     1      -0.701   9.989  23.227  0.00  0.00    +0.000 A 
ATOM     18  C   UNL     1      -1.325  11.188  22.899  0.00  0.00    +0.000 A 
ATOM     19  C   UNL     1      -1.121  11.712  21.630  0.00  0.00    +0.000 A 
ATOM     20  N   UNL     1      -0.351  11.129  20.684  0.00  0.00    +0.000 NA
ENDBRANCH  14  15
ENDBRANCH   3  13
TORSDOF 4
ENDMDL
MODEL 3
REMARK VINA RESULT:      -6.6      5.391      7.364
REMARK  Name = 
REMARK  5 active torsions:
REMARK  status: ('A' for Active; 'I' for Inactive)
REMARK    1  A    between atoms: C_1  and  O_2
REMARK    2  A    between atoms: O_2  and  C_3
REMARK    3  A    between atoms: C_6  and  C_7
REMARK    4  A    between atoms: N_9  and  N_10
REMARK    5  A    between atoms: C_11  and  C_12
REMARK                            x       y       z     vdW  Elec       q    Type
REMARK                         _______ _______ _______ _____ _____    ______ ____
ROOT
ATOM      1  C   UNL     1       3.216   6.280  18.997  0.00  0.00    +0.000 C 
ATOM      2  O   UNL     1       3.228   5.582  20.008  0.00  0.00    +0.000 OA
ATOM      3  N   UNL     1       2.508   7.475  18.892  0.00  0.00    +0.000 N 
ATOM      4  H   UNL     1       2.514   8.045  18.060  0.00  0.00    +0.000 HD
ENDROOT
BRANCH   1   8
ATOM      5  C   UNL     1       5.527   5.161  15.520  0.00  0.00    +0.000 A 
ATOM      6  C   UNL     1       5.376   6.493  15.898  0.00  0.00    +0.000 A 
ATOM      7  C   UNL     1       4.635   6.826  17.035  0.00  0.00    +0.000 A 
ATOM      8  C   UNL     1       4.009   5.833  17.804  0.00  0.00    +0.000 A 
ATOM      9  C   UNL     1       4.153   4.495  17.411  0.00  0.00    +0.000 A 
ATOM     10  C   UNL     1       4.906   4.164  16.272  0.00  0.00    +0.000 A 
BRANCH   5  12
ATOM     11  C   UNL     1       6.000   3.749  13.682  0.00  0.00    +0.000 C 
ATOM     12  O   UNL     1       6.264   4.957  14.386  0.00  0.00    +0.000 OA
ENDBRANCH   5  12
ENDBRANCH   1   8
BRANCH   3  13
ATOM     13  N   UNL     1       1.803   7.907  19.977  0.00  0.00    +0.000 NA
ATOM     14  C   UNL     1       1.271   9.087  19.905  0.00  0.00    +0.000 C 
BRANCH  14  15
ATOM     15  C   UNL     1       0.495   9.643  21.034  0.00  0.00    +0.000 A 
ATOM     16  C   UNL     1       0.479   8.998  22.265  0.00  0.00    +0.000 A 
ATOM     17  C   UNL     1      -0.278   9.555  23.289  0.00  0.00    +0.000 A 
ATOM     18  C   UNL     1      -0.990  10.724  23.048  0.00  0.00    +0.000 A 
ATOM     19  C   UNL     1      -0.911  11.297  21.786  0.00  0.00    +0.000 A 
ATOM     20  N   UNL     1      -0.182  10.789  20.768  0.00  0.00    +0.000 NA
ENDBRANCH  14  15
ENDBRANCH   3  13
TORSDOF 4
ENDMDL
MODEL 4
REMARK VINA RESULT:      -6.5      0.748      1.152
REMARK  Name = 
REMARK  5 active torsions:
REMARK  status: ('A' for Active; 'I' for Inactive)
REMARK    1  A    between atoms: C_1  and  O_2
REMARK    2  A    between atoms: O_2  and  C_3
REMARK    3  A    between atoms: C_6  and  C_7
REMARK    4  A    between atoms: N_9  and  N_10
REMARK    5  A    between atoms: C_11  and  C_12
REMARK                            x       y       z     vdW  Elec       q    Type
REMARK                         _______ _______ _______ _____ _____    ______ ____
ROOT
ATOM      1  C   UNL     1       7.453   6.893  18.027  0.00  0.00    +0.000 C 
ATOM      2  O   UNL     1       8.249   6.506  18.880  0.00  0.00    +0.000 OA
ATOM      3  N   UNL     1       7.566   8.111  17.362  0.00  0.00    +0.000 N 
ATOM      4  H   UNL     1       6.911   8.413  16.656  0.00  0.00    +0.000 HD
ENDROOT
BRANCH   1   8
ATOM      5  C   UNL     1       4.103   4.298  17.176  0.00  0.00    +0.000 A 
ATOM      6  C   UNL     1       4.564   4.491  18.476  0.00  0.00    +0.000 A 
ATOM      7  C   UNL     1       5.640   5.347  18.725  0.00  0.00    +0.000 A 
ATOM      8  C   UNL     1       6.294   6.009  17.673  0.00  0.00    +0.000 A 
ATOM      9  C   UNL     1       5.833   5.799  16.366  0.00  0.00    +0.000 A 
ATOM     10  C   UNL     1       4.745   4.946  16.121  0.00  0.00    +0.000 A 
BRANCH   5  12
ATOM     11  C   UNL     1       2.126   3.423  18.135  0.00  0.00    +0.000 C 
ATOM     12  O   UNL     1       3.051   3.432  17.054  0.00  0.00    +0.000 OA
ENDBRANCH   5  12
ENDBRANCH   1   8
BRANCH   3  13
ATOM     13  N   UNL     1       8.628   8.913  17.655  0.00  0.00    +0.000 NA
ATOM     14  C   UNL     1       8.465   9.796  18.590  0.00  0.00    +0.000 C 
BRANCH  14  15
ATOM     15  C   UNL     1       9.558  10.714  18.971  0.00  0.00    +0.000 A 
ATOM     16  C   UNL     1      10.473  11.156  18.022  0.00  0.00    +0.000 A 
ATOM     17  C   UNL     1      11.490  12.008  18.436  0.00  0.00    +0.000 A 
ATOM     18  C   UNL     1      11.561  12.381  19.773  0.00  0.00    +0.000 A 
ATOM     19  C   UNL     1      10.600  11.890  20.648  0.00  0.00    +0.000 A 
ATOM     20  N   UNL     1       9.594  11.066  20.282  0.00  0.00    +0.000 NA
ENDBRANCH  14  15
ENDBRANCH   3  13
TORSDOF 4
ENDMDL
MODEL 5
REMARK VINA RESULT:      -6.5      0.443      1.170
REMARK  Name = 
REMARK  5 active torsions:
REMARK  status: ('A' for Active; 'I' for Inactive)
REMARK    1  A    between atoms: C_1  and  O_2
REMARK    2  A    between atoms: O_2  and  C_3
REMARK    3  A    between atoms: C_6  and  C_7
REMARK    4  A    between atoms: N_9  and  N_10
REMARK    5  A    between atoms: C_11  and  C_12
REMARK                            x       y       z     vdW  Elec       q    Type
REMARK                         _______ _______ _______ _____ _____    ______ ____
ROOT
ATOM      1  C   UNL     1       7.251   6.684  18.130  0.00  0.00    +0.000 C 
ATOM      2  O   UNL     1       8.111   6.273  18.906  0.00  0.00    +0.000 OA
ATOM      3  N   UNL     1       7.329   7.906  17.468  0.00  0.00    +0.000 N 
ATOM      4  H   UNL     1       6.621   8.228  16.826  0.00  0.00    +0.000 HD
ENDROOT
BRANCH   1   8
ATOM      5  C   UNL     1       3.850   4.174  17.230  0.00  0.00    +0.000 A 
ATOM      6  C   UNL     1       4.936   4.269  16.363  0.00  0.00    +0.000 A 
ATOM      7  C   UNL     1       6.029   5.078  16.685  0.00  0.00    +0.000 A 
ATOM      8  C   UNL     1       6.047   5.827  17.873  0.00  0.00    +0.000 A 
ATOM      9  C   UNL     1       4.945   5.737  18.734  0.00  0.00    +0.000 A 
ATOM     10  C   UNL     1       3.852   4.916  18.411  0.00  0.00    +0.000 A 
BRANCH   5  12
ATOM     11  C   UNL     1       2.462   2.316  17.695  0.00  0.00    +0.000 C 
ATOM     12  O   UNL     1       2.835   3.361  16.805  0.00  0.00    +0.000 OA
ENDBRANCH   5  12
ENDBRANCH   1   8
BRANCH   3  13
ATOM     13  N   UNL     1       8.430   8.685  17.673  0.00  0.00    +0.000 NA
ATOM     14  C   UNL     1       8.297   9.702  18.464  0.00  0.00    +0.000 C 
BRANCH  14  15
ATOM     15  C   UNL     1       9.433  10.607  18.741  0.00  0.00    +0.000 A 
ATOM     16  C   UNL     1       9.762  10.947  20.048  0.00  0.00    +0.000 A 
ATOM     17  C   UNL     1      10.831  11.813  20.252  0.00  0.00    +0.000 A 
ATOM     18  C   UNL     1      11.524  12.307  19.153  0.00  0.00    +0.000 A 
ATOM     19  C   UNL     1      11.122  11.909  17.885  0.00  0.00    +0.000 A 
ATOM     20  N   UNL     1      10.093  11.065  17.647  0.00  0.00    +0.000 NA
ENDBRANCH  14  15
ENDBRANCH   3  13
TORSDOF 4
ENDMDL
MODEL 6
REMARK VINA RESULT:      -6.4      6.938      9.780
REMARK  Name = 
REMARK  5 active torsions:
REMARK  status: ('A' for Active; 'I' for Inactive)
REMARK    1  A    between atoms: C_1  and  O_2
REMARK    2  A    between atoms: O_2  and  C_3
REMARK    3  A    between atoms: C_6  and  C_7
REMARK    4  A    between atoms: N_9  and  N_10
REMARK    5  A    between atoms: C_11  and  C_12
REMARK                            x       y       z     vdW  Elec       q    Type
REMARK                         _______ _______ _______ _____ _____    ______ ____
ROOT
ATOM      1  C   UNL     1       1.443   8.251  20.371  0.00  0.00    +0.000 C 
ATOM      2  O   UNL     1       1.867   8.444  19.233  0.00  0.00    +0.000 OA
ATOM      3  N   UNL     1       1.607   7.054  21.062  0.00  0.00    +0.000 N 
ATOM      4  H   UNL     1       1.263   6.910  21.999  0.00  0.00    +0.000 HD
ENDROOT
BRANCH   1   8
ATOM      5  C   UNL     1      -0.710  11.339  22.495  0.00  0.00    +0.000 A 
ATOM      6  C   UNL     1      -0.542  10.065  23.033  0.00  0.00    +0.000 A 
ATOM      7  C   UNL     1       0.171   9.089  22.330  0.00  0.00    +0.000 A 
ATOM      8  C   UNL     1       0.710   9.362  21.063  0.00  0.00    +0.000 A 
ATOM      9  C   UNL     1       0.526  10.642  20.522  0.00  0.00    +0.000 A 
ATOM     10  C   UNL     1      -0.183  11.622  21.235  0.00  0.00    +0.000 A 
BRANCH   5  12
ATOM     11  C   UNL     1      -1.130  13.586  23.101  0.00  0.00    +0.000 C 
ATOM     12  O   UNL     1      -1.432  12.206  23.268  0.00  0.00    +0.000 OA
ENDBRANCH   5  12
ENDBRANCH   1   8
BRANCH   3  13
ATOM     13  N   UNL     1       2.293   6.043  20.455  0.00  0.00    +0.000 NA
ATOM     14  C   UNL     1       1.611   5.011  20.070  0.00  0.00    +0.000 C 
BRANCH  14  15
ATOM     15  C   UNL     1       2.269   3.865  19.409  0.00  0.00    +0.000 A 
ATOM     16  C   UNL     1       1.733   3.316  18.250  0.00  0.00    +0.000 A 
ATOM     17  C   UNL     1       2.383   2.229  17.676  0.00  0.00    +0.000 A 
ATOM     18  C   UNL     1       3.534   1.731  18.278  0.00  0.00    +0.000 A 
ATOM     19  C   UNL     1       3.994   2.348  19.433  0.00  0.00    +0.000 A 
ATOM     20  N   UNL     1       3.393   3.408  20.017  0.00  0.00    +0.000 NA
ENDBRANCH  14  15
ENDBRANCH   3  13
TORSDOF 4
ENDMDL
MODEL 7
REMARK VINA RESULT:      -6.4      6.929      9.711
REMARK  Name = 
REMARK  5 active torsions:
REMARK  status: ('A' for Active; 'I' for Inactive)
REMARK    1  A    between atoms: C_1  and  O_2
REMARK    2  A    between atoms: O_2  and  C_3
REMARK    3  A    between atoms: C_6  and  C_7
REMARK    4  A    between atoms: N_9  and  N_10
REMARK    5  A    between atoms: C_11  and  C_12
REMARK                            x       y       z     vdW  Elec       q    Type
REMARK                         _______ _______ _______ _____ _____    ______ ____
ROOT
ATOM      1  C   UNL     1       1.400   8.337  20.246  0.00  0.00    +0.000 C 
ATOM      2  O   UNL     1       1.731   8.558  19.083  0.00  0.00    +0.000 OA
ATOM      3  N   UNL     1       1.624   7.125  20.895  0.00  0.00    +0.000 N 
ATOM      4  H   UNL     1       1.356   6.958  21.853  0.00  0.00    +0.000 HD
ENDROOT
BRANCH   1   8
ATOM      5  C   UNL     1      -0.625  11.354  22.586  0.00  0.00    +0.000 A 
ATOM      6  C   UNL     1      -0.613  10.017  22.974  0.00  0.00    +0.000 A 
ATOM      7  C   UNL     1       0.062   9.063  22.206  0.00  0.00    +0.000 A 
ATOM      8  C   UNL     1       0.718   9.426  21.019  0.00  0.00    +0.000 A 
ATOM      9  C   UNL     1       0.690  10.772  20.627  0.00  0.00    +0.000 A 
ATOM     10  C   UNL     1       0.019  11.728  21.407  0.00  0.00    +0.000 A 
BRANCH   5  12
ATOM     11  C   UNL     1      -2.742  12.084  23.347  0.00  0.00    +0.000 C 
ATOM     12  O   UNL     1      -1.325  12.193  23.409  0.00  0.00    +0.000 OA
ENDBRANCH   5  12
ENDBRANCH   1   8
BRANCH   3  13
ATOM     13  N   UNL     1       2.265   6.133  20.213  0.00  0.00    +0.000 NA
ATOM     14  C   UNL     1       1.744   4.948  20.261  0.00  0.00    +0.000 C 
BRANCH  14  15
ATOM     15  C   UNL     1       2.373   3.809  19.559  0.00  0.00    +0.000 A 
ATOM     16  C   UNL     1       3.457   3.145  20.121  0.00  0.00    +0.000 A 
ATOM     17  C   UNL     1       4.020   2.089  19.413  0.00  0.00    +0.000 A 
ATOM     18  C   UNL     1       3.487   1.741  18.177  0.00  0.00    +0.000 A 
ATOM     19  C   UNL     1       2.402   2.462  17.698  0.00  0.00    +0.000 A 
ATOM     20  N   UNL     1       1.825   3.489  18.360  0.00  0.00    +0.000 NA
ENDBRANCH  14  15
ENDBRANCH   3  13
TORSDOF 4
ENDMDL
MODEL 8
REMARK VINA RESULT:      -6.4      5.577      7.559
REMARK  Name = 
REMARK  5 active torsions:
REMARK  status: ('A' for Active; 'I' for Inactive)
REMARK    1  A    between atoms: C_1  and  O_2
REMARK    2  A    between atoms: O_2  and  C_3
REMARK    3  A    between atoms: C_6  and  C_7
REMARK    4  A    between atoms: N_9  and  N_10
REMARK    5  A    between atoms: C_11  and  C_12
REMARK                            x       y       z     vdW  Elec       q    Type
REMARK                         _______ _______ _______ _____ _____    ______ ____
ROOT
ATOM      1  C   UNL     1       2.702   6.113  19.404  0.00  0.00    +0.000 C 
ATOM      2  O   UNL     1       2.385   5.426  20.372  0.00  0.00    +0.000 OA
ATOM      3  N   UNL     1       2.362   7.457  19.267  0.00  0.00    +0.000 N 
ATOM      4  H   UNL     1       2.637   8.014  18.472  0.00  0.00    +0.000 HD
ENDROOT
BRANCH   1   8
ATOM      5  C   UNL     1       5.067   4.451  16.191  0.00  0.00    +0.000 A 
ATOM      6  C   UNL     1       5.126   5.804  16.515  0.00  0.00    +0.000 A 
ATOM      7  C   UNL     1       4.360   6.313  17.568  0.00  0.00    +0.000 A 
ATOM      8  C   UNL     1       3.502   5.481  18.304  0.00  0.00    +0.000 A 
ATOM      9  C   UNL     1       3.438   4.122  17.964  0.00  0.00    +0.000 A 
ATOM     10  C   UNL     1       4.216   3.613  16.911  0.00  0.00    +0.000 A 
BRANCH   5  12
ATOM     11  C   UNL     1       6.952   4.922  14.843  0.00  0.00    +0.000 C 
ATOM     12  O   UNL     1       5.852   4.070  15.138  0.00  0.00    +0.000 OA
ENDBRANCH   5  12
ENDBRANCH   1   8
BRANCH   3  13
ATOM     13  N   UNL     1       1.657   8.053  20.271  0.00  0.00    +0.000 NA
ATOM     14  C   UNL     1       1.014   9.140  19.979  0.00  0.00    +0.000 C 
BRANCH  14  15
ATOM     15  C   UNL     1       0.228   9.859  21.003  0.00  0.00    +0.000 A 
ATOM     16  C   UNL     1      -0.459  11.023  20.676  0.00  0.00    +0.000 A 
ATOM     17  C   UNL     1      -1.172  11.668  21.680  0.00  0.00    +0.000 A 
ATOM     18  C   UNL     1      -1.170  11.136  22.965  0.00  0.00    +0.000 A 
ATOM     19  C   UNL     1      -0.455   9.968  23.194  0.00  0.00    +0.000 A 
ATOM     20  N   UNL     1       0.244   9.309  22.244  0.00  0.00    +0.000 NA
ENDBRANCH  14  15
ENDBRANCH   3  13
TORSDOF 4
ENDMDL
MODEL 9
REMARK VINA RESULT:      -6.3      6.259      7.655
REMARK  Name = 
REMARK  5 active torsions:
REMARK  status: ('A' for Active; 'I' for Inactive)
REMARK    1  A    between atoms: C_1  and  O_2
REMARK    2  A    between atoms: O_2  and  C_3
REMARK    3  A    between atoms: C_6  and  C_7
REMARK    4  A    between atoms: N_9  and  N_10
REMARK    5  A    between atoms: C_11  and  C_12
REMARK                            x       y       z     vdW  Elec       q    Type
REMARK                         _______ _______ _______ _____ _____    ______ ____
ROOT
ATOM      1  C   UNL     1       2.218   8.369  18.313  0.00  0.00    +0.000 C 
ATOM      2  O   UNL     1       2.050   9.315  17.547  0.00  0.00    +0.000 OA
ATOM      3  N   UNL     1       1.706   8.324  19.607  0.00  0.00    +0.000 N 
ATOM      4  H   UNL     1       1.842   7.537  20.224  0.00  0.00    +0.000 HD
ENDROOT
BRANCH   1   8
ATOM      5  C   UNL     1       4.394   4.866  17.020  0.00  0.00    +0.000 A 
ATOM      6  C   UNL     1       3.191   4.762  17.713  0.00  0.00    +0.000 A 
ATOM      7  C   UNL     1       2.500   5.912  18.107  0.00  0.00    +0.000 A 
ATOM      8  C   UNL     1       3.013   7.190  17.836  0.00  0.00    +0.000 A 
ATOM      9  C   UNL     1       4.232   7.287  17.151  0.00  0.00    +0.000 A 
ATOM     10  C   UNL     1       4.918   6.130  16.748  0.00  0.00    +0.000 A 
BRANCH   5  12
ATOM     11  C   UNL     1       6.008   3.738  15.710  0.00  0.00    +0.000 C 
ATOM     12  O   UNL     1       4.984   3.675  16.695  0.00  0.00    +0.000 OA
ENDBRANCH   5  12
ENDBRANCH   1   8
BRANCH   3  13
ATOM     13  N   UNL     1       0.959   9.377  20.046  0.00  0.00    +0.000 NA
ATOM     14  C   UNL     1       0.922   9.586  21.325  0.00  0.00    +0.000 C 
BRANCH  14  15
ATOM     15  C   UNL     1       0.134  10.699  21.893  0.00  0.00    +0.000 A 
ATOM     16  C   UNL     1      -0.904  10.447  22.783  0.00  0.00    +0.000 A 
ATOM     17  C   UNL     1      -1.623  11.529  23.278  0.00  0.00    +0.000 A 
ATOM     18  C   UNL     1      -1.286  12.813  22.867  0.00  0.00    +0.000 A 
ATOM     19  C   UNL     1      -0.232  12.966  21.976  0.00  0.00    +0.000 A 
ATOM     20  N   UNL     1       0.494  11.940  21.478  0.00  0.00    +0.000 NA
ENDBRANCH  14  15
ENDBRANCH   3  13
TORSDOF 4
ENDMDL
