MODEL 1
REMARK VINA RESULT:      -8.0      0.000      0.000
REMARK  Name = 
REMARK  6 active torsions:
REMARK  status: ('A' for Active; 'I' for Inactive)
REMARK    1  A    between atoms: C_1  and  C_2
REMARK    2  A    between atoms: C_5  and  N_6
REMARK    3  A    between atoms: C_7  and  C_9
REMARK    4  A    between atoms: C_11  and  C_12
REMARK    5  A    between atoms: C_15  and  N_16
REMARK    6  A    between atoms: C_17  and  C_19
REMARK                            x       y       z     vdW  Elec       q    Type
REMARK                         _______ _______ _______ _____ _____    ______ ____
ROOT
ATOM      1  C   UNL     1      -2.016  12.839  20.961  0.00  0.00    +0.000 A 
ATOM      2  C   UNL     1      -2.621  14.038  21.410  0.00  0.00    +0.000 A 
ATOM      3  C   UNL     1      -2.749  14.331  22.773  0.00  0.00    +0.000 A 
ATOM      4  C   UNL     1      -3.399  15.595  23.255  0.00  0.00    +0.000 C 
ATOM      5  C   UNL     1      -2.244  13.430  23.700  0.00  0.00    +0.000 A 
ATOM      6  C   UNL     1      -1.594  12.271  23.272  0.00  0.00    +0.000 A 
ATOM      7  C   UNL     1      -1.468  11.941  21.911  0.00  0.00    +0.000 A 
ENDROOT
BRANCH   1   9
ATOM      8  N   UNL     1      -3.018  11.709  19.017  0.00  0.00    +0.000 N 
ATOM      9  C   UNL     1      -1.998  12.529  19.488  0.00  0.00    +0.000 C 
ATOM     10  O   UNL     1      -1.083  13.001  18.813  0.00  0.00    +0.000 OA
ATOM     11  H   UNL     1      -3.700  11.370  19.681  0.00  0.00    +0.000 HD
BRANCH   8  16
ATOM     12  C   UNL     1      -3.100   9.734  13.638  0.00  0.00    +0.000 C 
ATOM     13  C   UNL     1      -3.158  10.182  15.069  0.00  0.00    +0.000 A 
ATOM     14  C   UNL     1      -4.144  11.080  15.502  0.00  0.00    +0.000 A 
ATOM     15  C   UNL     1      -4.147  11.560  16.816  0.00  0.00    +0.000 A 
ATOM     16  C   UNL     1      -3.166  11.163  17.719  0.00  0.00    +0.000 A 
ATOM     17  C   UNL     1      -2.223  10.209  17.307  0.00  0.00    +0.000 A 
ATOM     18  C   UNL     1      -2.224   9.714  15.998  0.00  0.00    +0.000 A 
ENDBRANCH   8  16
ENDBRANCH   1   9
BRANCH   7  19
ATOM     19  N   UNL     1      -0.756  10.757  21.527  0.00  0.00    +0.000 N 
ATOM     20  C   UNL     1       0.570  10.732  21.091  0.00  0.00    +0.000 C 
ATOM     21  O   UNL     1       1.310  11.703  21.261  0.00  0.00    +0.000 OA
ATOM     22  H   UNL     1      -1.258   9.876  21.651  0.00  0.00    +0.000 HD
BRANCH  20  23
ATOM     23  C   UNL     1       1.073   9.525  20.429  0.00  0.00    +0.000 A 
ATOM     24  S   UNL     1       1.041   8.086  21.384  0.00  0.00    +0.000 S 
ATOM     25  C   UNL     1       1.820   7.140  20.195  0.00  0.00    +0.000 A 
ATOM     26  C   UNL     1       2.171   5.780  20.309  0.00  0.00    +0.000 A 
ATOM     27  C   UNL     1       2.823   5.156  19.249  0.00  0.00    +0.000 A 
ATOM     28  C   UNL     1       3.113   5.866  18.094  0.00  0.00    +0.000 A 
ATOM     29  C   UNL     1       2.749   7.219  17.981  0.00  0.00    +0.000 A 
ATOM     30  C   UNL     1       2.085   7.885  19.046  0.00  0.00    +0.000 A 
ATOM     31  C   UNL     1       1.615   9.255  19.186  0.00  0.00    +0.000 A 
ATOM     32 CL   UNL     1       1.788  10.384  17.904  0.00  0.00    +0.000 Cl
ENDBRANCH  20  23
ENDBRANCH   7  19
TORSDOF 4
ENDMDL
MODEL 2
REMARK VINA RESULT:      -7.6      1.548      2.295
REMARK  Name = 
REMARK  6 active torsions:
REMARK  status: ('A' for Active; 'I' for Inactive)
REMARK    1  A    between atoms: C_1  and  C_2
REMARK    2  A    between atoms: C_5  and  N_6
REMARK    3  A    between atoms: C_7  and  C_9
REMARK    4  A    between atoms: C_11  and  C_12
REMARK    5  A    between atoms: C_15  and  N_16
REMARK    6  A    between atoms: C_17  and  C_19
REMARK                            x       y       z     vdW  Elec       q    Type
REMARK                         _______ _______ _______ _____ _____    ______ ____
ROOT
ATOM      1  C   UNL     1      -1.019  10.917  20.641  0.00  0.00    +0.000 A 
ATOM      2  C   UNL     1      -1.487  12.081  21.301  0.00  0.00    +0.000 A 
ATOM      3  C   UNL     1      -1.558  12.154  22.697  0.00  0.00    +0.000 A 
ATOM      4  C   UNL     1      -2.062  13.380  23.402  0.00  0.00    +0.000 C 
ATOM      5  C   UNL     1      -1.131  11.066  23.446  0.00  0.00    +0.000 A 
ATOM      6  C   UNL     1      -0.614   9.936  22.812  0.00  0.00    +0.000 A 
ATOM      7  C   UNL     1      -0.550   9.825  21.411  0.00  0.00    +0.000 A 
ENDROOT
BRANCH   1   9
ATOM      8  N   UNL     1      -2.327  10.834  18.557  0.00  0.00    +0.000 N 
ATOM      9  C   UNL     1      -1.063  10.857  19.138  0.00  0.00    +0.000 C 
ATOM     10  O   UNL     1       0.009  10.811  18.534  0.00  0.00    +0.000 OA
ATOM     11  H   UNL     1      -3.130  10.857  19.168  0.00  0.00    +0.000 HD
BRANCH   8  16
ATOM     12  C   UNL     1      -4.169   9.909  13.210  0.00  0.00    +0.000 C 
ATOM     13  C   UNL     1      -3.606  10.210  14.568  0.00  0.00    +0.000 A 
ATOM     14  C   UNL     1      -2.500   9.505  15.061  0.00  0.00    +0.000 A 
ATOM     15  C   UNL     1      -2.028   9.730  16.358  0.00  0.00    +0.000 A 
ATOM     16  C   UNL     1      -2.653  10.652  17.192  0.00  0.00    +0.000 A 
ATOM     17  C   UNL     1      -3.715  11.410  16.674  0.00  0.00    +0.000 A 
ATOM     18  C   UNL     1      -4.181  11.199  15.371  0.00  0.00    +0.000 A 
ENDBRANCH   8  16
ENDBRANCH   1   9
BRANCH   7  19
ATOM     19  N   UNL     1       0.027   8.655  20.814  0.00  0.00    +0.000 N 
ATOM     20  C   UNL     1       1.321   8.193  21.060  0.00  0.00    +0.000 C 
ATOM     21  O   UNL     1       1.971   8.611  22.020  0.00  0.00    +0.000 OA
ATOM     22  H   UNL     1      -0.596   8.106  20.220  0.00  0.00    +0.000 HD
BRANCH  20  23
ATOM     23  C   UNL     1       1.896   7.191  20.157  0.00  0.00    +0.000 A 
ATOM     24  S   UNL     1       1.910   5.571  20.757  0.00  0.00    +0.000 S 
ATOM     25  C   UNL     1       2.760   4.957  19.410  0.00  0.00    +0.000 A 
ATOM     26  C   UNL     1       3.172   3.622  19.222  0.00  0.00    +0.000 A 
ATOM     27  C   UNL     1       3.878   3.285  18.070  0.00  0.00    +0.000 A 
ATOM     28  C   UNL     1       4.162   4.253  17.119  0.00  0.00    +0.000 A 
ATOM     29  C   UNL     1       3.736   5.580  17.305  0.00  0.00    +0.000 A 
ATOM     30  C   UNL     1       3.017   5.956  18.471  0.00  0.00    +0.000 A 
ATOM     31  C   UNL     1       2.479   7.236  18.905  0.00  0.00    +0.000 A 
ATOM     32 CL   UNL     1       2.629   8.635  17.921  0.00  0.00    +0.000 Cl
ENDBRANCH  20  23
ENDBRANCH   7  19
TORSDOF 4
ENDMDL
MODEL 3
REMARK VINA RESULT:      -7.2      2.621      3.848
REMARK  Name = 
REMARK  6 active torsions:
REMARK  status: ('A' for Active; 'I' for Inactive)
REMARK    1  A    between atoms: C_1  and  C_2
REMARK    2  A    between atoms: C_5  and  N_6
REMARK    3  A    between atoms: C_7  and  C_9
REMARK    4  A    between atoms: C_11  and  C_12
REMARK    5  A    between atoms: C_15  and  N_16
REMARK    6  A    between atoms: C_17  and  C_19
REMARK                            x       y       z     vdW  Elec       q    Type
REMARK                         _______ _______ _______ _____ _____    ______ ____
ROOT
ATOM      1  C   UNL     1      -0.314  12.720  18.862  0.00  0.00    +0.000 A 
ATOM      2  C   UNL     1      -0.298  14.132  18.751  0.00  0.00    +0.000 A 
ATOM      3  C   UNL     1       0.902  14.853  18.724  0.00  0.00    +0.000 A 
ATOM      4  C   UNL     1       0.926  16.350  18.617  0.00  0.00    +0.000 C 
ATOM      5  C   UNL     1       2.102  14.157  18.782  0.00  0.00    +0.000 A 
ATOM      6  C   UNL     1       2.103  12.762  18.835  0.00  0.00    +0.000 A 
ATOM      7  C   UNL     1       0.914  12.012  18.883  0.00  0.00    +0.000 A 
ENDROOT
BRANCH   1   9
ATOM      8  N   UNL     1      -2.752  12.809  19.190  0.00  0.00    +0.000 N 
ATOM      9  C   UNL     1      -1.633  12.006  18.990  0.00  0.00    +0.000 C 
ATOM     10  O   UNL     1      -1.629  10.777  18.929  0.00  0.00    +0.000 OA
ATOM     11  H   UNL     1      -2.616  13.808  19.241  0.00  0.00    +0.000 HD
BRANCH   8  16
ATOM     12  C   UNL     1      -7.899  10.825  20.743  0.00  0.00    +0.000 C 
ATOM     13  C   UNL     1      -6.602  11.422  20.280  0.00  0.00    +0.000 A 
ATOM     14  C   UNL     1      -6.102  11.149  18.999  0.00  0.00    +0.000 A 
ATOM     15  C   UNL     1      -4.855  11.638  18.599  0.00  0.00    +0.000 A 
ATOM     16  C   UNL     1      -4.077  12.398  19.467  0.00  0.00    +0.000 A 
ATOM     17  C   UNL     1      -4.609  12.732  20.723  0.00  0.00    +0.000 A 
ATOM     18  C   UNL     1      -5.864  12.257  21.122  0.00  0.00    +0.000 A 
ENDBRANCH   8  16
ENDBRANCH   1   9
BRANCH   7  19
ATOM     19  N   UNL     1       0.974  10.579  18.897  0.00  0.00    +0.000 N 
ATOM     20  C   UNL     1       1.218   9.804  20.031  0.00  0.00    +0.000 C 
ATOM     21  O   UNL     1       1.134  10.291  21.160  0.00  0.00    +0.000 OA
ATOM     22  H   UNL     1       0.757  10.117  18.012  0.00  0.00    +0.000 HD
BRANCH  20  23
ATOM     23  C   UNL     1       1.573   8.392  19.859  0.00  0.00    +0.000 A 
ATOM     24  S   UNL     1       1.086   7.343  21.142  0.00  0.00    +0.000 S 
ATOM     25  C   UNL     1       1.851   5.973  20.467  0.00  0.00    +0.000 A 
ATOM     26  C   UNL     1       1.894   4.680  21.028  0.00  0.00    +0.000 A 
ATOM     27  C   UNL     1       2.579   3.672  20.357  0.00  0.00    +0.000 A 
ATOM     28  C   UNL     1       3.202   3.938  19.147  0.00  0.00    +0.000 A 
ATOM     29  C   UNL     1       3.144   5.225  18.585  0.00  0.00    +0.000 A 
ATOM     30  C   UNL     1       2.455   6.277  19.247  0.00  0.00    +0.000 A 
ATOM     31  C   UNL     1       2.255   7.674  18.894  0.00  0.00    +0.000 A 
ATOM     32 CL   UNL     1       2.872   8.311  17.424  0.00  0.00    +0.000 Cl
ENDBRANCH  20  23
ENDBRANCH   7  19
TORSDOF 4
ENDMDL
MODEL 4
REMARK VINA RESULT:      -7.2      2.573      3.783
REMARK  Name = 
REMARK  6 active torsions:
REMARK  status: ('A' for Active; 'I' for Inactive)
REMARK    1  A    between atoms: C_1  and  C_2
REMARK    2  A    between atoms: C_5  and  N_6
REMARK    3  A    between atoms: C_7  and  C_9
REMARK    4  A    between atoms: C_11  and  C_12
REMARK    5  A    between atoms: C_15  and  N_16
REMARK    6  A    between atoms: C_17  and  C_19
REMARK                            x       y       z     vdW  Elec       q    Type
REMARK                         _______ _______ _______ _____ _____    ______ ____
ROOT
ATOM      1  C   UNL     1      -0.254  10.207  20.169  0.00  0.00    +0.000 A 
ATOM      2  C   UNL     1      -0.928  11.013  21.120  0.00  0.00    +0.000 A 
ATOM      3  C   UNL     1      -0.771  10.811  22.496  0.00  0.00    +0.000 A 
ATOM      4  C   UNL     1      -1.490  11.654  23.509  0.00  0.00    +0.000 C 
ATOM      5  C   UNL     1       0.090   9.813  22.932  0.00  0.00    +0.000 A 
ATOM      6  C   UNL     1       0.805   9.049  22.008  0.00  0.00    +0.000 A 
ATOM      7  C   UNL     1       0.652   9.215  20.619  0.00  0.00    +0.000 A 
ENDROOT
BRANCH   1   9
ATOM      8  N   UNL     1      -1.868  10.266  18.312  0.00  0.00    +0.000 N 
ATOM      9  C   UNL     1      -0.540  10.402  18.705  0.00  0.00    +0.000 C 
ATOM     10  O   UNL     1       0.410  10.645  17.961  0.00  0.00    +0.000 OA
ATOM     11  H   UNL     1      -2.553  10.045  19.021  0.00  0.00    +0.000 HD
BRANCH   8  16
ATOM     12  C   UNL     1      -4.484  10.097  13.216  0.00  0.00    +0.000 C 
ATOM     13  C   UNL     1      -3.721  10.202  14.505  0.00  0.00    +0.000 A 
ATOM     14  C   UNL     1      -2.599   9.398  14.744  0.00  0.00    +0.000 A 
ATOM     15  C   UNL     1      -1.940   9.438  15.977  0.00  0.00    +0.000 A 
ATOM     16  C   UNL     1      -2.390  10.271  16.997  0.00  0.00    +0.000 A 
ATOM     17  C   UNL     1      -3.470  11.128  16.732  0.00  0.00    +0.000 A 
ATOM     18  C   UNL     1      -4.123  11.103  15.495  0.00  0.00    +0.000 A 
ENDBRANCH   8  16
ENDBRANCH   1   9
BRANCH   7  19
ATOM     19  N   UNL     1       1.442   8.429  19.716  0.00  0.00    +0.000 N 
ATOM     20  C   UNL     1       1.848   7.115  19.952  0.00  0.00    +0.000 C 
ATOM     21  O   UNL     1       1.328   6.442  20.844  0.00  0.00    +0.000 OA
ATOM     22  H   UNL     1       1.654   8.864  18.817  0.00  0.00    +0.000 HD
BRANCH  20  23
ATOM     23  C   UNL     1       2.906   6.542  19.114  0.00  0.00    +0.000 A 
ATOM     24  S   UNL     1       3.417   7.525  17.789  0.00  0.00    +0.000 S 
ATOM     25  C   UNL     1       4.479   6.339  17.170  0.00  0.00    +0.000 A 
ATOM     26  C   UNL     1       5.265   6.450  16.004  0.00  0.00    +0.000 A 
ATOM     27  C   UNL     1       6.069   5.380  15.623  0.00  0.00    +0.000 A 
ATOM     28  C   UNL     1       6.099   4.224  16.388  0.00  0.00    +0.000 A 
ATOM     29  C   UNL     1       5.324   4.124  17.557  0.00  0.00    +0.000 A 
ATOM     30  C   UNL     1       4.491   5.198  17.971  0.00  0.00    +0.000 A 
ATOM     31  C   UNL     1       3.600   5.346  19.111  0.00  0.00    +0.000 A 
ATOM     32 CL   UNL     1       3.445   4.097  20.279  0.00  0.00    +0.000 Cl
ENDBRANCH  20  23
ENDBRANCH   7  19
TORSDOF 4
ENDMDL
MODEL 5
REMARK VINA RESULT:      -7.2      2.091      2.858
REMARK  Name = 
REMARK  6 active torsions:
REMARK  status: ('A' for Active; 'I' for Inactive)
REMARK    1  A    between atoms: C_1  and  C_2
REMARK    2  A    between atoms: C_5  and  N_6
REMARK    3  A    between atoms: C_7  and  C_9
REMARK    4  A    between atoms: C_11  and  C_12
REMARK    5  A    between atoms: C_15  and  N_16
REMARK    6  A    between atoms: C_17  and  C_19
REMARK                            x       y       z     vdW  Elec       q    Type
REMARK                         _______ _______ _______ _____ _____    ______ ____
ROOT
ATOM      1  C   UNL     1      -4.330  13.266  21.850  0.00  0.00    +0.000 A 
ATOM      2  C   UNL     1      -5.244  14.288  22.208  0.00  0.00    +0.000 A 
ATOM      3  C   UNL     1      -5.149  14.962  23.431  0.00  0.00    +0.000 A 
ATOM      4  C   UNL     1      -6.120  16.039  23.821  0.00  0.00    +0.000 C 
ATOM      5  C   UNL     1      -4.115  14.633  24.298  0.00  0.00    +0.000 A 
ATOM      6  C   UNL     1      -3.174  13.669  23.935  0.00  0.00    +0.000 A 
ATOM      7  C   UNL     1      -3.255  12.961  22.722  0.00  0.00    +0.000 A 
ENDROOT
BRANCH   1   9
ATOM      8  N   UNL     1      -3.484  12.511  19.666  0.00  0.00    +0.000 N 
ATOM      9  C   UNL     1      -4.542  12.505  20.570  0.00  0.00    +0.000 C 
ATOM     10  O   UNL     1      -5.629  11.953  20.403  0.00  0.00    +0.000 OA
ATOM     11  H   UNL     1      -2.649  13.021  19.916  0.00  0.00    +0.000 HD
BRANCH   8  16
ATOM     12  C   UNL     1      -3.752   9.989  14.527  0.00  0.00    +0.000 C 
ATOM     13  C   UNL     1      -3.641  10.736  15.824  0.00  0.00    +0.000 A 
ATOM     14  C   UNL     1      -2.412  10.842  16.490  0.00  0.00    +0.000 A 
ATOM     15  C   UNL     1      -2.327  11.468  17.738  0.00  0.00    +0.000 A 
ATOM     16  C   UNL     1      -3.462  11.991  18.349  0.00  0.00    +0.000 A 
ATOM     17  C   UNL     1      -4.678  11.950  17.650  0.00  0.00    +0.000 A 
ATOM     18  C   UNL     1      -4.766  11.338  16.394  0.00  0.00    +0.000 A 
ENDBRANCH   8  16
ENDBRANCH   1   9
BRANCH   7  19
ATOM     19  N   UNL     1      -2.238  12.008  22.383  0.00  0.00    +0.000 N 
ATOM     20  C   UNL     1      -0.984  12.335  21.864  0.00  0.00    +0.000 C 
ATOM     21  O   UNL     1      -0.561  13.491  21.911  0.00  0.00    +0.000 OA
ATOM     22  H   UNL     1      -2.449  11.034  22.606  0.00  0.00    +0.000 HD
BRANCH  20  23
ATOM     23  C   UNL     1      -0.170  11.273  21.264  0.00  0.00    +0.000 A 
ATOM     24  S   UNL     1       0.346  11.562  19.641  0.00  0.00    +0.000 S 
ATOM     25  C   UNL     1       1.075  10.026  19.477  0.00  0.00    +0.000 A 
ATOM     26  C   UNL     1       1.713   9.524  18.324  0.00  0.00    +0.000 A 
ATOM     27  C   UNL     1       2.242   8.237  18.347  0.00  0.00    +0.000 A 
ATOM     28  C   UNL     1       2.148   7.465  19.495  0.00  0.00    +0.000 A 
ATOM     29  C   UNL     1       1.523   7.976  20.646  0.00  0.00    +0.000 A 
ATOM     30  C   UNL     1       0.970   9.285  20.654  0.00  0.00    +0.000 A 
ATOM     31  C   UNL     1       0.277  10.036  21.689  0.00  0.00    +0.000 A 
ATOM     32 CL   UNL     1       0.036   9.368  23.252  0.00  0.00    +0.000 Cl
ENDBRANCH  20  23
ENDBRANCH   7  19
TORSDOF 4
ENDMDL
MODEL 6
REMARK VINA RESULT:      -7.1      5.517     10.506
REMARK  Name = 
REMARK  6 active torsions:
REMARK  status: ('A' for Active; 'I' for Inactive)
REMARK    1  A    between atoms: C_1  and  C_2
REMARK    2  A    between atoms: C_5  and  N_6
REMARK    3  A    between atoms: C_7  and  C_9
REMARK    4  A    between atoms: C_11  and  C_12
REMARK    5  A    between atoms: C_15  and  N_16
REMARK    6  A    between atoms: C_17  and  C_19
REMARK                            x       y       z     vdW  Elec       q    Type
REMARK                         _______ _______ _______ _____ _____    ______ ____
ROOT
ATOM      1  C   UNL     1       6.698   6.336  16.612  0.00  0.00    +0.000 A 
ATOM      2  C   UNL     1       7.409   5.784  15.518  0.00  0.00    +0.000 A 
ATOM      3  C   UNL     1       6.802   4.901  14.617  0.00  0.00    +0.000 A 
ATOM      4  C   UNL     1       7.553   4.305  13.463  0.00  0.00    +0.000 C 
ATOM      5  C   UNL     1       5.461   4.586  14.792  0.00  0.00    +0.000 A 
ATOM      6  C   UNL     1       4.732   5.166  15.831  0.00  0.00    +0.000 A 
ATOM      7  C   UNL     1       5.320   6.040  16.763  0.00  0.00    +0.000 A 
ENDROOT
BRANCH   1   9
ATOM      8  N   UNL     1       7.485   8.558  17.322  0.00  0.00    +0.000 N 
ATOM      9  C   UNL     1       7.429   7.197  17.606  0.00  0.00    +0.000 C 
ATOM     10  O   UNL     1       7.939   6.643  18.580  0.00  0.00    +0.000 OA
ATOM     11  H   UNL     1       7.040   8.885  16.476  0.00  0.00    +0.000 HD
BRANCH   8  16
ATOM     12  C   UNL     1      10.735  12.675  19.629  0.00  0.00    +0.000 C 
ATOM     13  C   UNL     1       9.813  11.614  19.105  0.00  0.00    +0.000 A 
ATOM     14  C   UNL     1       9.787  10.336  19.680  0.00  0.00    +0.000 A 
ATOM     15  C   UNL     1       8.988   9.324  19.138  0.00  0.00    +0.000 A 
ATOM     16  C   UNL     1       8.208   9.561  18.010  0.00  0.00    +0.000 A 
ATOM     17  C   UNL     1       8.178  10.860  17.478  0.00  0.00    +0.000 A 
ATOM     18  C   UNL     1       8.964  11.880  18.026  0.00  0.00    +0.000 A 
ENDBRANCH   8  16
ENDBRANCH   1   9
BRANCH   7  19
ATOM     19  N   UNL     1       4.514   6.638  17.788  0.00  0.00    +0.000 N 
ATOM     20  C   UNL     1       3.221   6.232  18.121  0.00  0.00    +0.000 C 
ATOM     21  O   UNL     1       2.779   5.148  17.734  0.00  0.00    +0.000 OA
ATOM     22  H   UNL     1       4.966   7.369  18.339  0.00  0.00    +0.000 HD
BRANCH  20  23
ATOM     23  C   UNL     1       2.394   7.116  18.947  0.00  0.00    +0.000 A 
ATOM     24  S   UNL     1       2.075   8.675  18.276  0.00  0.00    +0.000 S 
ATOM     25  C   UNL     1       1.249   9.231  19.663  0.00  0.00    +0.000 A 
ATOM     26  C   UNL     1       0.698  10.516  19.847  0.00  0.00    +0.000 A 
ATOM     27  C   UNL     1       0.070  10.819  21.052  0.00  0.00    +0.000 A 
ATOM     28  C   UNL     1      -0.018   9.862  22.052  0.00  0.00    +0.000 A 
ATOM     29  C   UNL     1       0.521   8.579  21.858  0.00  0.00    +0.000 A 
ATOM     30  C   UNL     1       1.171   8.240  20.641  0.00  0.00    +0.000 A 
ATOM     31  C   UNL     1       1.809   7.010  20.195  0.00  0.00    +0.000 A 
ATOM     32 CL   UNL     1       1.832   5.615  21.196  0.00  0.00    +0.000 Cl
ENDBRANCH  20  23
ENDBRANCH   7  19
TORSDOF 4
ENDMDL
MODEL 7
REMARK VINA RESULT:      -7.0      4.597      6.454
REMARK  Name = 
REMARK  6 active torsions:
REMARK  status: ('A' for Active; 'I' for Inactive)
REMARK    1  A    between atoms: C_1  and  C_2
REMARK    2  A    between atoms: C_5  and  N_6
REMARK    3  A    between atoms: C_7  and  C_9
REMARK    4  A    between atoms: C_11  and  C_12
REMARK    5  A    between atoms: C_15  and  N_16
REMARK    6  A    between atoms: C_17  and  C_19
REMARK                            x       y       z     vdW  Elec       q    Type
REMARK                         _______ _______ _______ _____ _____    ______ ____
ROOT
ATOM      1  C   UNL     1      -0.293  12.688  21.906  0.00  0.00    +0.000 A 
ATOM      2  C   UNL     1      -1.507  12.150  22.400  0.00  0.00    +0.000 A 
ATOM      3  C   UNL     1      -2.391  12.916  23.168  0.00  0.00    +0.000 A 
ATOM      4  C   UNL     1      -3.674  12.349  23.703  0.00  0.00    +0.000 C 
ATOM      5  C   UNL     1      -2.075  14.243  23.426  0.00  0.00    +0.000 A 
ATOM      6  C   UNL     1      -0.910  14.803  22.899  0.00  0.00    +0.000 A 
ATOM      7  C   UNL     1       0.006  14.053  22.140  0.00  0.00    +0.000 A 
ENDROOT
BRANCH   1   9
ATOM      8  N   UNL     1       0.100  10.772  20.411  0.00  0.00    +0.000 N 
ATOM      9  C   UNL     1       0.666  11.788  21.174  0.00  0.00    +0.000 C 
ATOM     10  O   UNL     1       1.871  11.998  21.315  0.00  0.00    +0.000 OA
ATOM     11  H   UNL     1      -0.907  10.696  20.395  0.00  0.00    +0.000 HD
BRANCH   8  16
ATOM     12  C   UNL     1       3.254   6.648  17.986  0.00  0.00    +0.000 C 
ATOM     13  C   UNL     1       2.340   7.679  18.580  0.00  0.00    +0.000 A 
ATOM     14  C   UNL     1       1.823   8.719  17.796  0.00  0.00    +0.000 A 
ATOM     15  C   UNL     1       1.039   9.726  18.370  0.00  0.00    +0.000 A 
ATOM     16  C   UNL     1       0.763   9.721  19.734  0.00  0.00    +0.000 A 
ATOM     17  C   UNL     1       1.220   8.641  20.505  0.00  0.00    +0.000 A 
ATOM     18  C   UNL     1       1.992   7.624  19.933  0.00  0.00    +0.000 A 
ENDBRANCH   8  16
ENDBRANCH   1   9
BRANCH   7  19
ATOM     19  N   UNL     1       1.168  14.690  21.590  0.00  0.00    +0.000 N 
ATOM     20  C   UNL     1       1.286  15.123  20.269  0.00  0.00    +0.000 C 
ATOM     21  O   UNL     1       0.294  15.229  19.546  0.00  0.00    +0.000 OA
ATOM     22  H   UNL     1       1.922  14.885  22.250  0.00  0.00    +0.000 HD
BRANCH  20  23
ATOM     23  C   UNL     1       2.617  15.457  19.752  0.00  0.00    +0.000 A 
ATOM     24  S   UNL     1       3.343  14.258  18.743  0.00  0.00    +0.000 S 
ATOM     25  C   UNL     1       4.814  15.112  18.589  0.00  0.00    +0.000 A 
ATOM     26  C   UNL     1       5.956  14.687  17.880  0.00  0.00    +0.000 A 
ATOM     27  C   UNL     1       7.088  15.496  17.868  0.00  0.00    +0.000 A 
ATOM     28  C   UNL     1       7.085  16.709  18.540  0.00  0.00    +0.000 A 
ATOM     29  C   UNL     1       5.939  17.135  19.234  0.00  0.00    +0.000 A 
ATOM     30  C   UNL     1       4.768  16.330  19.268  0.00  0.00    +0.000 A 
ATOM     31  C   UNL     1       3.476  16.528  19.906  0.00  0.00    +0.000 A 
ATOM     32 CL   UNL     1       3.138  17.963  20.787  0.00  0.00    +0.000 Cl
ENDBRANCH  20  23
ENDBRANCH   7  19
TORSDOF 4
ENDMDL
MODEL 8
REMARK VINA RESULT:      -6.9      3.755      5.780
REMARK  Name = 
REMARK  6 active torsions:
REMARK  status: ('A' for Active; 'I' for Inactive)
REMARK    1  A    between atoms: C_1  and  C_2
REMARK    2  A    between atoms: C_5  and  N_6
REMARK    3  A    between atoms: C_7  and  C_9
REMARK    4  A    between atoms: C_11  and  C_12
REMARK    5  A    between atoms: C_15  and  N_16
REMARK    6  A    between atoms: C_17  and  C_19
REMARK                            x       y       z     vdW  Elec       q    Type
REMARK                         _______ _______ _______ _____ _____    ______ ____
ROOT
ATOM      1  C   UNL     1      -1.394  12.225  22.865  0.00  0.00    +0.000 A 
ATOM      2  C   UNL     1      -2.658  11.841  23.380  0.00  0.00    +0.000 A 
ATOM      3  C   UNL     1      -3.515  12.766  23.988  0.00  0.00    +0.000 A 
ATOM      4  C   UNL     1      -4.849  12.364  24.544  0.00  0.00    +0.000 C 
ATOM      5  C   UNL     1      -3.120  14.095  24.061  0.00  0.00    +0.000 A 
ATOM      6  C   UNL     1      -1.904  14.498  23.508  0.00  0.00    +0.000 A 
ATOM      7  C   UNL     1      -1.014  13.589  22.908  0.00  0.00    +0.000 A 
ENDROOT
BRANCH   1   9
ATOM      8  N   UNL     1      -0.381  11.090  20.930  0.00  0.00    +0.000 N 
ATOM      9  C   UNL     1      -0.472  11.170  22.316  0.00  0.00    +0.000 C 
ATOM     10  O   UNL     1       0.115  10.446  23.119  0.00  0.00    +0.000 OA
ATOM     11  H   UNL     1      -0.933  11.733  20.380  0.00  0.00    +0.000 HD
BRANCH   8  16
ATOM     12  C   UNL     1       2.872   7.335  18.074  0.00  0.00    +0.000 C 
ATOM     13  C   UNL     1       1.933   8.262  18.789  0.00  0.00    +0.000 A 
ATOM     14  C   UNL     1       1.243   9.264  18.093  0.00  0.00    +0.000 A 
ATOM     15  C   UNL     1       0.433  10.180  18.773  0.00  0.00    +0.000 A 
ATOM     16  C   UNL     1       0.302  10.121  20.158  0.00  0.00    +0.000 A 
ATOM     17  C   UNL     1       0.935   9.074  20.846  0.00  0.00    +0.000 A 
ATOM     18  C   UNL     1       1.734   8.147  20.168  0.00  0.00    +0.000 A 
ENDBRANCH   8  16
ENDBRANCH   1   9
BRANCH   7  19
ATOM     19  N   UNL     1       0.205  14.065  22.321  0.00  0.00    +0.000 N 
ATOM     20  C   UNL     1       0.393  14.296  20.958  0.00  0.00    +0.000 C 
ATOM     21  O   UNL     1      -0.567  14.361  20.188  0.00  0.00    +0.000 OA
ATOM     22  H   UNL     1       0.950  14.304  22.977  0.00  0.00    +0.000 HD
BRANCH  20  23
ATOM     23  C   UNL     1       1.759  14.467  20.453  0.00  0.00    +0.000 A 
ATOM     24  S   UNL     1       2.845  15.290  21.515  0.00  0.00    +0.000 S 
ATOM     25  C   UNL     1       4.128  15.293  20.387  0.00  0.00    +0.000 A 
ATOM     26  C   UNL     1       5.403  15.864  20.577  0.00  0.00    +0.000 A 
ATOM     27  C   UNL     1       6.336  15.798  19.546  0.00  0.00    +0.000 A 
ATOM     28  C   UNL     1       6.013  15.169  18.352  0.00  0.00    +0.000 A 
ATOM     29  C   UNL     1       4.744  14.590  18.174  0.00  0.00    +0.000 A 
ATOM     30  C   UNL     1       3.769  14.644  19.206  0.00  0.00    +0.000 A 
ATOM     31  C   UNL     1       2.406  14.142  19.275  0.00  0.00    +0.000 A 
ATOM     32 CL   UNL     1       1.717  13.273  17.963  0.00  0.00    +0.000 Cl
ENDBRANCH  20  23
ENDBRANCH   7  19
TORSDOF 4
ENDMDL
MODEL 9
REMARK VINA RESULT:      -6.9      1.661      2.331
REMARK  Name = 
REMARK  6 active torsions:
REMARK  status: ('A' for Active; 'I' for Inactive)
REMARK    1  A    between atoms: C_1  and  C_2
REMARK    2  A    between atoms: C_5  and  N_6
REMARK    3  A    between atoms: C_7  and  C_9
REMARK    4  A    between atoms: C_11  and  C_12
REMARK    5  A    between atoms: C_15  and  N_16
REMARK    6  A    between atoms: C_17  and  C_19
REMARK                            x       y       z     vdW  Elec       q    Type
REMARK                         _______ _______ _______ _____ _____    ______ ____
ROOT
ATOM      1  C   UNL     1      -3.139  13.617  21.801  0.00  0.00    +0.000 A 
ATOM      2  C   UNL     1      -3.966  14.670  22.265  0.00  0.00    +0.000 A 
ATOM      3  C   UNL     1      -4.268  14.822  23.623  0.00  0.00    +0.000 A 
ATOM      4  C   UNL     1      -5.152  15.929  24.120  0.00  0.00    +0.000 C 
ATOM      5  C   UNL     1      -3.718  13.931  24.534  0.00  0.00    +0.000 A 
ATOM      6  C   UNL     1      -2.857  12.923  24.099  0.00  0.00    +0.000 A 
ATOM      7  C   UNL     1      -2.550  12.733  22.739  0.00  0.00    +0.000 A 
ENDROOT
BRANCH   1   9
ATOM      8  N   UNL     1      -3.588  12.366  19.729  0.00  0.00    +0.000 N 
ATOM      9  C   UNL     1      -2.933  13.441  20.321  0.00  0.00    +0.000 C 
ATOM     10  O   UNL     1      -2.192  14.238  19.746  0.00  0.00    +0.000 OA
ATOM     11  H   UNL     1      -4.155  11.773  20.318  0.00  0.00    +0.000 HD
BRANCH   8  16
ATOM     12  C   UNL     1      -3.484  10.065  14.482  0.00  0.00    +0.000 C 
ATOM     13  C   UNL     1      -3.464  10.756  15.814  0.00  0.00    +0.000 A 
ATOM     14  C   UNL     1      -2.294  10.800  16.584  0.00  0.00    +0.000 A 
ATOM     15  C   UNL     1      -2.299  11.372  17.861  0.00  0.00    +0.000 A 
ATOM     16  C   UNL     1      -3.468  11.901  18.398  0.00  0.00    +0.000 A 
ATOM     17  C   UNL     1      -4.622  11.921  17.599  0.00  0.00    +0.000 A 
ATOM     18  C   UNL     1      -4.619  11.364  16.315  0.00  0.00    +0.000 A 
ENDBRANCH   8  16
ENDBRANCH   1   9
BRANCH   7  19
ATOM     19  N   UNL     1      -1.627  11.706  22.352  0.00  0.00    +0.000 N 
ATOM     20  C   UNL     1      -0.340  11.936  21.866  0.00  0.00    +0.000 C 
ATOM     21  O   UNL     1       0.194  13.040  21.986  0.00  0.00    +0.000 OA
ATOM     22  H   UNL     1      -1.937  10.746  22.514  0.00  0.00    +0.000 HD
BRANCH  20  23
ATOM     23  C   UNL     1       0.374  10.836  21.209  0.00  0.00    +0.000 A 
ATOM     24  S   UNL     1       0.739  11.081  19.539  0.00  0.00    +0.000 S 
ATOM     25  C   UNL     1       1.394   9.517  19.334  0.00  0.00    +0.000 A 
ATOM     26  C   UNL     1       1.898   8.974  18.134  0.00  0.00    +0.000 A 
ATOM     27  C   UNL     1       2.382   7.669  18.130  0.00  0.00    +0.000 A 
ATOM     28  C   UNL     1       2.374   6.920  19.297  0.00  0.00    +0.000 A 
ATOM     29  C   UNL     1       1.883   7.471  20.493  0.00  0.00    +0.000 A 
ATOM     30  C   UNL     1       1.380   8.799  20.529  0.00  0.00    +0.000 A 
ATOM     31  C   UNL     1       0.817   9.591  21.612  0.00  0.00    +0.000 A 
ATOM     32 CL   UNL     1       0.707   8.957  23.204  0.00  0.00    +0.000 Cl
ENDBRANCH  20  23
ENDBRANCH   7  19
TORSDOF 4
ENDMDL
