MODEL 1
REMARK VINA RESULT:      -6.7      0.000      0.000
REMARK  Name = 
REMARK  6 active torsions:
REMARK  status: ('A' for Active; 'I' for Inactive)
REMARK    1  A    between atoms: C_1  and  C_2
REMARK    2  A    between atoms: N_4  and  C_5
REMARK    3  A    between atoms: C_5  and  C_6
REMARK    4  A    between atoms: C_5  and  C_10
REMARK    5  A    between atoms: C_6  and  C_7
REMARK    6  A    between atoms: C_7  and  O_9
REMARK                            x       y       z     vdW  Elec       q    Type
REMARK                         _______ _______ _______ _____ _____    ______ ____
ROOT
ATOM      1  C   UNL     1       5.449   4.623  16.571  0.00  0.00    +0.000 C 
ENDROOT
BRANCH   1   2
ATOM      2  C   UNL     1       4.116   4.182  17.180  0.00  0.00    +0.000 A 
ATOM      3  C   UNL     1       3.840   2.810  17.318  0.00  0.00    +0.000 A 
ATOM      4  C   UNL     1       2.635   2.385  17.881  0.00  0.00    +0.000 A 
ATOM      5  C   UNL     1       1.706   3.326  18.306  0.00  0.00    +0.000 A 
ATOM      6  F   UNL     1       0.545   2.915  18.830  0.00  0.00    +0.000 F 
ATOM      7  C   UNL     1       1.963   4.686  18.194  0.00  0.00    +0.000 A 
ATOM      8  C   UNL     1       3.174   5.112  17.651  0.00  0.00    +0.000 A 
ENDBRANCH   1   2
BRANCH   1  12
ATOM      9  C   UNL     1       7.937   6.315  18.908  0.00  0.00    +0.000 C 
ATOM     10  C   UNL     1       7.046   6.181  17.704  0.00  0.00    +0.000 C 
ATOM     11  O   UNL     1       6.969   7.044  16.837  0.00  0.00    +0.000 OA
ATOM     12  N   UNL     1       6.407   4.970  17.623  0.00  0.00    +0.000 N 
ATOM     13  H   UNL     1       6.330   4.448  18.489  0.00  0.00    +0.000 HD
ENDBRANCH   1  12
BRANCH   1  14
ATOM     14  C   UNL     1       5.957   3.615  15.531  0.00  0.00    +0.000 C 
BRANCH  14  15
ATOM     15  C   UNL     1       6.574   4.274  14.329  0.00  0.00    +0.000 C 
ATOM     16  O   UNL     1       6.319   3.970  13.172  0.00  0.00    +0.000 OA
BRANCH  15  17
ATOM     17  O   UNL     1       7.457   5.250  14.641  0.00  0.00    +0.000 OA
ATOM     18  H   UNL     1       7.312   6.071  14.125  0.00  0.00    +0.000 HD
ENDBRANCH  15  17
ENDBRANCH  14  15
ENDBRANCH   1  14
TORSDOF 5
ENDMDL
MODEL 2
REMARK VINA RESULT:      -6.6      1.382      3.318
REMARK  Name = 
REMARK  6 active torsions:
REMARK  status: ('A' for Active; 'I' for Inactive)
REMARK    1  A    between atoms: C_1  and  C_2
REMARK    2  A    between atoms: N_4  and  C_5
REMARK    3  A    between atoms: C_5  and  C_6
REMARK    4  A    between atoms: C_5  and  C_10
REMARK    5  A    between atoms: C_6  and  C_7
REMARK    6  A    between atoms: C_7  and  O_9
REMARK                            x       y       z     vdW  Elec       q    Type
REMARK                         _______ _______ _______ _____ _____    ______ ____
ROOT
ATOM      1  C   UNL     1       5.191   4.291  17.171  0.00  0.00    +0.000 C 
ENDROOT
BRANCH   1   2
ATOM      2  C   UNL     1       3.843   3.734  17.637  0.00  0.00    +0.000 A 
ATOM      3  C   UNL     1       2.729   4.589  17.702  0.00  0.00    +0.000 A 
ATOM      4  C   UNL     1       1.487   4.101  18.114  0.00  0.00    +0.000 A 
ATOM      5  C   UNL     1       1.356   2.762  18.460  0.00  0.00    +0.000 A 
ATOM      6  F   UNL     1       0.168   2.301  18.870  0.00  0.00    +0.000 F 
ATOM      7  C   UNL     1       2.438   1.896  18.388  0.00  0.00    +0.000 A 
ATOM      8  C   UNL     1       3.674   2.377  17.958  0.00  0.00    +0.000 A 
ENDBRANCH   1   2
BRANCH   1  12
ATOM      9  C   UNL     1       6.390   4.081  13.560  0.00  0.00    +0.000 C 
ATOM     10  C   UNL     1       6.511   4.293  15.045  0.00  0.00    +0.000 C 
ATOM     11  O   UNL     1       7.561   4.621  15.584  0.00  0.00    +0.000 OA
ATOM     12  N   UNL     1       5.320   4.179  15.716  0.00  0.00    +0.000 N 
ATOM     13  H   UNL     1       4.588   3.664  15.239  0.00  0.00    +0.000 HD
ENDBRANCH   1  12
BRANCH   1  14
ATOM     14  C   UNL     1       5.455   5.689  17.744  0.00  0.00    +0.000 C 
BRANCH  14  15
ATOM     15  C   UNL     1       6.649   5.733  18.657  0.00  0.00    +0.000 C 
ATOM     16  O   UNL     1       6.662   5.282  19.793  0.00  0.00    +0.000 OA
BRANCH  15  17
ATOM     17  O   UNL     1       7.730   6.328  18.104  0.00  0.00    +0.000 OA
ATOM     18  H   UNL     1       8.410   5.685  17.813  0.00  0.00    +0.000 HD
ENDBRANCH  15  17
ENDBRANCH  14  15
ENDBRANCH   1  14
TORSDOF 5
ENDMDL
MODEL 3
REMARK VINA RESULT:      -6.6      0.453      1.287
REMARK  Name = 
REMARK  6 active torsions:
REMARK  status: ('A' for Active; 'I' for Inactive)
REMARK    1  A    between atoms: C_1  and  C_2
REMARK    2  A    between atoms: N_4  and  C_5
REMARK    3  A    between atoms: C_5  and  C_6
REMARK    4  A    between atoms: C_5  and  C_10
REMARK    5  A    between atoms: C_6  and  C_7
REMARK    6  A    between atoms: C_7  and  O_9
REMARK                            x       y       z     vdW  Elec       q    Type
REMARK                         _______ _______ _______ _____ _____    ______ ____
ROOT
ATOM      1  C   UNL     1       5.441   4.411  16.796  0.00  0.00    +0.000 C 
ENDROOT
BRANCH   1   2
ATOM      2  C   UNL     1       4.096   3.916  17.334  0.00  0.00    +0.000 A 
ATOM      3  C   UNL     1       3.072   4.844  17.593  0.00  0.00    +0.000 A 
ATOM      4  C   UNL     1       1.834   4.413  18.073  0.00  0.00    +0.000 A 
ATOM      5  C   UNL     1       1.617   3.060  18.295  0.00  0.00    +0.000 A 
ATOM      6  F   UNL     1       0.434   2.652  18.773  0.00  0.00    +0.000 F 
ATOM      7  C   UNL     1       2.607   2.123  18.032  0.00  0.00    +0.000 A 
ATOM      8  C   UNL     1       3.837   2.549  17.533  0.00  0.00    +0.000 A 
ENDBRANCH   1   2
BRANCH   1  12
ATOM      9  C   UNL     1       7.872   5.677  19.443  0.00  0.00    +0.000 C 
ATOM     10  C   UNL     1       6.950   5.771  18.258  0.00  0.00    +0.000 C 
ATOM     11  O   UNL     1       6.773   6.812  17.637  0.00  0.00    +0.000 OA
ATOM     12  N   UNL     1       6.407   4.567  17.886  0.00  0.00    +0.000 N 
ATOM     13  H   UNL     1       6.403   3.842  18.595  0.00  0.00    +0.000 HD
ENDBRANCH   1  12
BRANCH   1  14
ATOM     14  C   UNL     1       5.923   3.564  15.611  0.00  0.00    +0.000 C 
BRANCH  14  15
ATOM     15  C   UNL     1       6.622   4.375  14.556  0.00  0.00    +0.000 C 
ATOM     16  O   UNL     1       6.518   4.176  13.354  0.00  0.00    +0.000 OA
BRANCH  15  17
ATOM     17  O   UNL     1       7.396   5.365  15.059  0.00  0.00    +0.000 OA
ATOM     18  H   UNL     1       7.677   5.194  15.982  0.00  0.00    +0.000 HD
ENDBRANCH  15  17
ENDBRANCH  14  15
ENDBRANCH   1  14
TORSDOF 5
ENDMDL
MODEL 4
REMARK VINA RESULT:      -6.5      0.725      1.565
REMARK  Name = 
REMARK  6 active torsions:
REMARK  status: ('A' for Active; 'I' for Inactive)
REMARK    1  A    between atoms: C_1  and  C_2
REMARK    2  A    between atoms: N_4  and  C_5
REMARK    3  A    between atoms: C_5  and  C_6
REMARK    4  A    between atoms: C_5  and  C_10
REMARK    5  A    between atoms: C_6  and  C_7
REMARK    6  A    between atoms: C_7  and  O_9
REMARK                            x       y       z     vdW  Elec       q    Type
REMARK                         _______ _______ _______ _____ _____    ______ ____
ROOT
ATOM      1  C   UNL     1       5.381   4.978  16.633  0.00  0.00    +0.000 C 
ENDROOT
BRANCH   1   2
ATOM      2  C   UNL     1       4.101   4.699  17.424  0.00  0.00    +0.000 A 
ATOM      3  C   UNL     1       3.671   5.624  18.392  0.00  0.00    +0.000 A 
ATOM      4  C   UNL     1       2.501   5.396  19.117  0.00  0.00    +0.000 A 
ATOM      5  C   UNL     1       1.759   4.246  18.878  0.00  0.00    +0.000 A 
ATOM      6  F   UNL     1       0.646   4.021  19.588  0.00  0.00    +0.000 F 
ATOM      7  C   UNL     1       2.154   3.325  17.918  0.00  0.00    +0.000 A 
ATOM      8  C   UNL     1       3.312   3.562  17.178  0.00  0.00    +0.000 A 
ENDBRANCH   1   2
BRANCH   1  12
ATOM      9  C   UNL     1       8.056   6.818  18.628  0.00  0.00    +0.000 C 
ATOM     10  C   UNL     1       6.990   6.644  17.580  0.00  0.00    +0.000 C 
ATOM     11  O   UNL     1       6.686   7.531  16.791  0.00  0.00    +0.000 OA
ATOM     12  N   UNL     1       6.466   5.377  17.533  0.00  0.00    +0.000 N 
ATOM     13  H   UNL     1       6.587   4.814  18.367  0.00  0.00    +0.000 HD
ENDBRANCH   1  12
BRANCH   1  14
ATOM     14  C   UNL     1       5.716   3.828  15.674  0.00  0.00    +0.000 C 
BRANCH  14  15
ATOM     15  C   UNL     1       6.589   4.256  14.528  0.00  0.00    +0.000 C 
ATOM     16  O   UNL     1       7.392   5.177  14.582  0.00  0.00    +0.000 OA
BRANCH  15  17
ATOM     17  O   UNL     1       6.407   3.522  13.406  0.00  0.00    +0.000 OA
ATOM     18  H   UNL     1       7.198   3.512  12.827  0.00  0.00    +0.000 HD
ENDBRANCH  15  17
ENDBRANCH  14  15
ENDBRANCH   1  14
TORSDOF 5
ENDMDL
MODEL 5
REMARK VINA RESULT:      -6.4      1.091      1.368
REMARK  Name = 
REMARK  6 active torsions:
REMARK  status: ('A' for Active; 'I' for Inactive)
REMARK    1  A    between atoms: C_1  and  C_2
REMARK    2  A    between atoms: N_4  and  C_5
REMARK    3  A    between atoms: C_5  and  C_6
REMARK    4  A    between atoms: C_5  and  C_10
REMARK    5  A    between atoms: C_6  and  C_7
REMARK    6  A    between atoms: C_7  and  O_9
REMARK                            x       y       z     vdW  Elec       q    Type
REMARK                         _______ _______ _______ _____ _____    ______ ____
ROOT
ATOM      1  C   UNL     1       5.202   5.279  16.343  0.00  0.00    +0.000 C 
ENDROOT
BRANCH   1   2
ATOM      2  C   UNL     1       3.990   4.943  17.215  0.00  0.00    +0.000 A 
ATOM      3  C   UNL     1       3.479   3.633  17.212  0.00  0.00    +0.000 A 
ATOM      4  C   UNL     1       2.381   3.302  18.008  0.00  0.00    +0.000 A 
ATOM      5  C   UNL     1       1.792   4.275  18.805  0.00  0.00    +0.000 A 
ATOM      6  F   UNL     1       0.728   3.957  19.554  0.00  0.00    +0.000 F 
ATOM      7  C   UNL     1       2.287   5.571  18.836  0.00  0.00    +0.000 A 
ATOM      8  C   UNL     1       3.397   5.899  18.058  0.00  0.00    +0.000 A 
ENDBRANCH   1   2
BRANCH   1  12
ATOM      9  C   UNL     1       7.949   6.589  18.636  0.00  0.00    +0.000 C 
ATOM     10  C   UNL     1       7.008   5.572  18.051  0.00  0.00    +0.000 C 
ATOM     11  O   UNL     1       6.944   4.418  18.458  0.00  0.00    +0.000 OA
ATOM     12  N   UNL     1       6.170   6.084  17.093  0.00  0.00    +0.000 N 
ATOM     13  H   UNL     1       6.469   6.948  16.656  0.00  0.00    +0.000 HD
ENDBRANCH   1  12
BRANCH   1  14
ATOM     14  C   UNL     1       5.778   4.027  15.668  0.00  0.00    +0.000 C 
BRANCH  14  15
ATOM     15  C   UNL     1       6.671   4.348  14.502  0.00  0.00    +0.000 C 
ATOM     16  O   UNL     1       7.501   5.246  14.499  0.00  0.00    +0.000 OA
BRANCH  15  17
ATOM     17  O   UNL     1       6.472   3.545  13.431  0.00  0.00    +0.000 OA
ATOM     18  H   UNL     1       5.664   2.997  13.513  0.00  0.00    +0.000 HD
ENDBRANCH  15  17
ENDBRANCH  14  15
ENDBRANCH   1  14
TORSDOF 5
ENDMDL
MODEL 6
REMARK VINA RESULT:      -6.4      1.197      2.928
REMARK  Name = 
REMARK  6 active torsions:
REMARK  status: ('A' for Active; 'I' for Inactive)
REMARK    1  A    between atoms: C_1  and  C_2
REMARK    2  A    between atoms: N_4  and  C_5
REMARK    3  A    between atoms: C_5  and  C_6
REMARK    4  A    between atoms: C_5  and  C_10
REMARK    5  A    between atoms: C_6  and  C_7
REMARK    6  A    between atoms: C_7  and  O_9
REMARK                            x       y       z     vdW  Elec       q    Type
REMARK                         _______ _______ _______ _____ _____    ______ ____
ROOT
ATOM      1  C   UNL     1       5.083   4.804  16.875  0.00  0.00    +0.000 C 
ENDROOT
BRANCH   1   2
ATOM      2  C   UNL     1       3.799   4.160  17.404  0.00  0.00    +0.000 A 
ATOM      3  C   UNL     1       3.736   2.763  17.549  0.00  0.00    +0.000 A 
ATOM      4  C   UNL     1       2.580   2.155  18.039  0.00  0.00    +0.000 A 
ATOM      5  C   UNL     1       1.486   2.938  18.385  0.00  0.00    +0.000 A 
ATOM      6  F   UNL     1       0.372   2.350  18.839  0.00  0.00    +0.000 F 
ATOM      7  C   UNL     1       1.529   4.320  18.265  0.00  0.00    +0.000 A 
ATOM      8  C   UNL     1       2.691   4.931  17.795  0.00  0.00    +0.000 A 
ENDBRANCH   1   2
BRANCH   1  12
ATOM      9  C   UNL     1       6.403   3.968  13.400  0.00  0.00    +0.000 C 
ATOM     10  C   UNL     1       6.486   4.323  14.859  0.00  0.00    +0.000 C 
ATOM     11  O   UNL     1       7.550   4.514  15.435  0.00  0.00    +0.000 OA
ATOM     12  N   UNL     1       5.262   4.504  15.452  0.00  0.00    +0.000 N 
ATOM     13  H   UNL     1       4.472   4.080  14.981  0.00  0.00    +0.000 HD
ENDBRANCH   1  12
BRANCH   1  14
ATOM     14  C   UNL     1       5.165   6.291  17.245  0.00  0.00    +0.000 C 
BRANCH  14  15
ATOM     15  C   UNL     1       6.573   6.759  17.484  0.00  0.00    +0.000 C 
ATOM     16  O   UNL     1       7.032   7.806  17.050  0.00  0.00    +0.000 OA
BRANCH  15  17
ATOM     17  O   UNL     1       7.307   5.905  18.233  0.00  0.00    +0.000 OA
ATOM     18  H   UNL     1       6.802   5.528  18.983  0.00  0.00    +0.000 HD
ENDBRANCH  15  17
ENDBRANCH  14  15
ENDBRANCH   1  14
TORSDOF 5
ENDMDL
MODEL 7
REMARK VINA RESULT:      -6.4      1.691      3.288
REMARK  Name = 
REMARK  6 active torsions:
REMARK  status: ('A' for Active; 'I' for Inactive)
REMARK    1  A    between atoms: C_1  and  C_2
REMARK    2  A    between atoms: N_4  and  C_5
REMARK    3  A    between atoms: C_5  and  C_6
REMARK    4  A    between atoms: C_5  and  C_10
REMARK    5  A    between atoms: C_6  and  C_7
REMARK    6  A    between atoms: C_7  and  O_9
REMARK                            x       y       z     vdW  Elec       q    Type
REMARK                         _______ _______ _______ _____ _____    ______ ____
ROOT
ATOM      1  C   UNL     1       5.363   4.378  18.094  0.00  0.00    +0.000 C 
ENDROOT
BRANCH   1   2
ATOM      2  C   UNL     1       3.950   3.808  18.239  0.00  0.00    +0.000 A 
ATOM      3  C   UNL     1       3.774   2.537  18.813  0.00  0.00    +0.000 A 
ATOM      4  C   UNL     1       2.494   2.002  18.966  0.00  0.00    +0.000 A 
ATOM      5  C   UNL     1       1.390   2.733  18.546  0.00  0.00    +0.000 A 
ATOM      6  F   UNL     1       0.165   2.210  18.678  0.00  0.00    +0.000 F 
ATOM      7  C   UNL     1       1.537   3.996  17.990  0.00  0.00    +0.000 A 
ATOM      8  C   UNL     1       2.814   4.541  17.856  0.00  0.00    +0.000 A 
ENDBRANCH   1   2
BRANCH   1  12
ATOM      9  C   UNL     1       5.836   5.350  14.440  0.00  0.00    +0.000 C 
ATOM     10  C   UNL     1       5.792   4.429  15.628  0.00  0.00    +0.000 C 
ATOM     11  O   UNL     1       6.064   3.237  15.554  0.00  0.00    +0.000 OA
ATOM     12  N   UNL     1       5.512   5.068  16.810  0.00  0.00    +0.000 N 
ATOM     13  H   UNL     1       5.058   5.970  16.731  0.00  0.00    +0.000 HD
ENDBRANCH   1  12
BRANCH   1  14
ATOM     14  C   UNL     1       5.774   5.195  19.326  0.00  0.00    +0.000 C 
BRANCH  14  15
ATOM     15  C   UNL     1       7.205   5.651  19.277  0.00  0.00    +0.000 C 
ATOM     16  O   UNL     1       7.726   6.177  18.304  0.00  0.00    +0.000 OA
BRANCH  15  17
ATOM     17  O   UNL     1       7.885   5.423  20.424  0.00  0.00    +0.000 OA
ATOM     18  H   UNL     1       8.834   5.232  20.271  0.00  0.00    +0.000 HD
ENDBRANCH  15  17
ENDBRANCH  14  15
ENDBRANCH   1  14
TORSDOF 5
ENDMDL
MODEL 8
REMARK VINA RESULT:      -6.4      0.946      1.624
REMARK  Name = 
REMARK  6 active torsions:
REMARK  status: ('A' for Active; 'I' for Inactive)
REMARK    1  A    between atoms: C_1  and  C_2
REMARK    2  A    between atoms: N_4  and  C_5
REMARK    3  A    between atoms: C_5  and  C_6
REMARK    4  A    between atoms: C_5  and  C_10
REMARK    5  A    between atoms: C_6  and  C_7
REMARK    6  A    between atoms: C_7  and  O_9
REMARK                            x       y       z     vdW  Elec       q    Type
REMARK                         _______ _______ _______ _____ _____    ______ ____
ROOT
ATOM      1  C   UNL     1       5.024   5.795  16.734  0.00  0.00    +0.000 C 
ENDROOT
BRANCH   1   2
ATOM      2  C   UNL     1       3.850   4.974  17.272  0.00  0.00    +0.000 A 
ATOM      3  C   UNL     1       2.868   5.607  18.056  0.00  0.00    +0.000 A 
ATOM      4  C   UNL     1       1.782   4.881  18.549  0.00  0.00    +0.000 A 
ATOM      5  C   UNL     1       1.675   3.526  18.261  0.00  0.00    +0.000 A 
ATOM      6  F   UNL     1       0.641   2.829  18.749  0.00  0.00    +0.000 F 
ATOM      7  C   UNL     1       2.623   2.884  17.477  0.00  0.00    +0.000 A 
ATOM      8  C   UNL     1       3.697   3.611  16.967  0.00  0.00    +0.000 A 
ENDBRANCH   1   2
BRANCH   1  12
ATOM      9  C   UNL     1       8.098   6.508  18.869  0.00  0.00    +0.000 C 
ATOM     10  C   UNL     1       7.067   6.766  17.806  0.00  0.00    +0.000 C 
ATOM     11  O   UNL     1       7.096   7.753  17.080  0.00  0.00    +0.000 OA
ATOM     12  N   UNL     1       6.154   5.751  17.666  0.00  0.00    +0.000 N 
ATOM     13  H   UNL     1       6.057   5.127  18.458  0.00  0.00    +0.000 HD
ENDBRANCH   1  12
BRANCH   1  14
ATOM     14  C   UNL     1       5.359   5.420  15.284  0.00  0.00    +0.000 C 
BRANCH  14  15
ATOM     15  C   UNL     1       6.726   4.814  15.135  0.00  0.00    +0.000 C 
ATOM     16  O   UNL     1       7.639   5.324  14.502  0.00  0.00    +0.000 OA
BRANCH  15  17
ATOM     17  O   UNL     1       6.864   3.628  15.772  0.00  0.00    +0.000 OA
ATOM     18  H   UNL     1       7.798   3.337  15.831  0.00  0.00    +0.000 HD
ENDBRANCH  15  17
ENDBRANCH  14  15
ENDBRANCH   1  14
TORSDOF 5
ENDMDL
MODEL 9
REMARK VINA RESULT:      -6.3      1.015      1.168
REMARK  Name = 
REMARK  6 active torsions:
REMARK  status: ('A' for Active; 'I' for Inactive)
REMARK    1  A    between atoms: C_1  and  C_2
REMARK    2  A    between atoms: N_4  and  C_5
REMARK    3  A    between atoms: C_5  and  C_6
REMARK    4  A    between atoms: C_5  and  C_10
REMARK    5  A    between atoms: C_6  and  C_7
REMARK    6  A    between atoms: C_7  and  O_9
REMARK                            x       y       z     vdW  Elec       q    Type
REMARK                         _______ _______ _______ _____ _____    ______ ____
ROOT
ATOM      1  C   UNL     1       5.588   4.579  16.769  0.00  0.00    +0.000 C 
ENDROOT
BRANCH   1   2
ATOM      2  C   UNL     1       4.496   3.950  17.637  0.00  0.00    +0.000 A 
ATOM      3  C   UNL     1       3.254   3.630  17.061  0.00  0.00    +0.000 A 
ATOM      4  C   UNL     1       2.248   3.045  17.831  0.00  0.00    +0.000 A 
ATOM      5  C   UNL     1       2.479   2.780  19.175  0.00  0.00    +0.000 A 
ATOM      6  F   UNL     1       1.505   2.235  19.915  0.00  0.00    +0.000 F 
ATOM      7  C   UNL     1       3.701   3.073  19.763  0.00  0.00    +0.000 A 
ATOM      8  C   UNL     1       4.715   3.638  18.990  0.00  0.00    +0.000 A 
ENDBRANCH   1   2
BRANCH   1  12
ATOM      9  C   UNL     1       8.033   6.886  18.564  0.00  0.00    +0.000 C 
ATOM     10  C   UNL     1       6.972   6.506  17.568  0.00  0.00    +0.000 C 
ATOM     11  O   UNL     1       6.520   7.295  16.748  0.00  0.00    +0.000 OA
ATOM     12  N   UNL     1       6.632   5.177  17.605  0.00  0.00    +0.000 N 
ATOM     13  H   UNL     1       6.858   4.684  18.461  0.00  0.00    +0.000 HD
ENDBRANCH   1  12
BRANCH   1  14
ATOM     14  C   UNL     1       6.090   3.604  15.695  0.00  0.00    +0.000 C 
BRANCH  14  15
ATOM     15  C   UNL     1       6.542   4.296  14.439  0.00  0.00    +0.000 C 
ATOM     16  O   UNL     1       6.140   4.018  13.319  0.00  0.00    +0.000 OA
BRANCH  15  17
ATOM     17  O   UNL     1       7.453   5.272  14.658  0.00  0.00    +0.000 OA
ATOM     18  H   UNL     1       8.088   5.370  13.918  0.00  0.00    +0.000 HD
ENDBRANCH  15  17
ENDBRANCH  14  15
ENDBRANCH   1  14
TORSDOF 5
ENDMDL
