MODEL 1
REMARK VINA RESULT:      -7.3      0.000      0.000
REMARK  Name = 
REMARK  4 active torsions:
REMARK  status: ('A' for Active; 'I' for Inactive)
REMARK    1  A    between atoms: C_8  and  N_9
REMARK    2  A    between atoms: N_9  and  C_10
REMARK    3  A    between atoms: C_10  and  C_11
REMARK    4  A    between atoms: C_10  and  C_29
REMARK                            x       y       z     vdW  Elec       q    Type
REMARK                         _______ _______ _______ _____ _____    ______ ____
ROOT
ATOM      1  C   UNL     1      -0.216  13.688  20.386  0.00  0.00    +0.000 C 
ENDROOT
BRANCH   1   2
ATOM      2  C   UNL     1      -1.636  13.033  20.259  0.00  0.00    +0.000 A 
ATOM      3  N   UNL     1      -1.891  12.350  19.178  0.00  0.00    +0.000 NA
ATOM      4  C   UNL     1      -3.210  11.938  18.918  0.00  0.00    +0.000 A 
ATOM      5  C   UNL     1      -3.507  11.132  17.803  0.00  0.00    +0.000 A 
ATOM      6 CL   UNL     1      -2.253  10.561  16.758  0.00  0.00    +0.000 Cl
ATOM      7  C   UNL     1      -4.824  10.781  17.490  0.00  0.00    +0.000 A 
ATOM      8  C   UNL     1      -5.858  11.247  18.289  0.00  0.00    +0.000 A 
ATOM      9  F   UNL     1      -7.122  10.926  17.985  0.00  0.00    +0.000 F 
ATOM     10  C   UNL     1      -5.601  12.042  19.397  0.00  0.00    +0.000 A 
ATOM     11  C   UNL     1      -4.277  12.377  19.707  0.00  0.00    +0.000 A 
ATOM     12  C   UNL     1      -3.974  13.193  20.898  0.00  0.00    +0.000 A 
ATOM     13  O   UNL     1      -4.919  13.632  21.554  0.00  0.00    +0.000 OA
ATOM     14  N   UNL     1      -2.622  13.379  21.178  0.00  0.00    +0.000 N 
ATOM     15  C   UNL     1      -2.296  14.007  22.388  0.00  0.00    +0.000 A 
ATOM     16  C   UNL     1      -2.844  15.211  22.909  0.00  0.00    +0.000 A 
ATOM     17  C   UNL     1      -2.053  15.536  23.984  0.00  0.00    +0.000 A 
ATOM     18  N   UNL     1      -1.210  14.481  24.153  0.00  0.00    +0.000 N 
ATOM     19  N   UNL     1      -1.327  13.554  23.193  0.00  0.00    +0.000 NA
ATOM     20  H   UNL     1      -0.498  14.351  24.868  0.00  0.00    +0.000 HD
ENDBRANCH   1   2
BRANCH   1  21
ATOM     21  C   UNL     1       0.222  14.188  19.015  0.00  0.00    +0.000 C 
ATOM     22  C   UNL     1       0.371  15.651  18.665  0.00  0.00    +0.000 C 
ATOM     23  C   UNL     1       1.591  14.803  18.852  0.00  0.00    +0.000 C 
ENDBRANCH   1  21
BRANCH   1  24
ATOM     24  N   UNL     1       0.816  12.739  20.809  0.00  0.00    +0.000 N 
ATOM     25  H   UNL     1       1.771  13.066  20.680  0.00  0.00    +0.000 HD
BRANCH  24  33
ATOM     26  N   UNL     1      -0.508   9.303  23.542  0.00  0.00    +0.000 N 
ATOM     27  C   UNL     1       0.180   9.686  22.410  0.00  0.00    +0.000 A 
ATOM     28  N   UNL     1       0.663   8.716  21.646  0.00  0.00    +0.000 NA
ATOM     29  C   UNL     1       1.119   9.087  20.446  0.00  0.00    +0.000 A 
ATOM     30  N   UNL     1       1.717   8.068  19.692  0.00  0.00    +0.000 N 
ATOM     31  C   UNL     1       1.092  10.408  19.996  0.00  0.00    +0.000 A 
ATOM     32 CL   UNL     1       1.298  10.664  18.298  0.00  0.00    +0.000 Cl
ATOM     33  C   UNL     1       0.769  11.374  20.938  0.00  0.00    +0.000 A 
ATOM     34  N   UNL     1       0.289  10.993  22.146  0.00  0.00    +0.000 NA
ATOM     35  H   UNL     1      -0.251   8.368  23.826  0.00  0.00    +0.000 HD
ATOM     36  H   UNL     1      -0.537  10.032  24.237  0.00  0.00    +0.000 HD
ATOM     37  H   UNL     1       1.555   7.178  20.152  0.00  0.00    +0.000 HD
ATOM     38  H   UNL     1       1.446   8.093  18.719  0.00  0.00    +0.000 HD
ENDBRANCH  24  33
ENDBRANCH   1  24
TORSDOF 4
ENDMDL
MODEL 2
REMARK VINA RESULT:      -7.2      3.565      6.590
REMARK  Name = 
REMARK  4 active torsions:
REMARK  status: ('A' for Active; 'I' for Inactive)
REMARK    1  A    between atoms: C_8  and  N_9
REMARK    2  A    between atoms: N_9  and  C_10
REMARK    3  A    between atoms: C_10  and  C_11
REMARK    4  A    between atoms: C_10  and  C_29
REMARK                            x       y       z     vdW  Elec       q    Type
REMARK                         _______ _______ _______ _____ _____    ______ ____
ROOT
ATOM      1  C   UNL     1      -2.111  12.375  19.812  0.00  0.00    +0.000 C 
ENDROOT
BRANCH   1   2
ATOM      2  C   UNL     1      -0.852  13.274  20.074  0.00  0.00    +0.000 A 
ATOM      3  N   UNL     1      -0.746  14.379  19.390  0.00  0.00    +0.000 NA
ATOM      4  C   UNL     1       0.462  15.098  19.424  0.00  0.00    +0.000 A 
ATOM      5  C   UNL     1       0.583  16.335  18.762  0.00  0.00    +0.000 A 
ATOM      6 CL   UNL     1      -0.767  17.045  17.948  0.00  0.00    +0.000 Cl
ATOM      7  C   UNL     1       1.801  17.021  18.723  0.00  0.00    +0.000 A 
ATOM      8  C   UNL     1       2.912  16.466  19.339  0.00  0.00    +0.000 A 
ATOM      9  F   UNL     1       4.085  17.112  19.292  0.00  0.00    +0.000 F 
ATOM     10  C   UNL     1       2.828  15.250  20.002  0.00  0.00    +0.000 A 
ATOM     11  C   UNL     1       1.600  14.577  20.044  0.00  0.00    +0.000 A 
ATOM     12  C   UNL     1       1.475  13.299  20.771  0.00  0.00    +0.000 A 
ATOM     13  O   UNL     1       2.494  12.811  21.261  0.00  0.00    +0.000 OA
ATOM     14  N   UNL     1       0.190  12.766  20.844  0.00  0.00    +0.000 N 
ATOM     15  C   UNL     1       0.005  11.644  21.664  0.00  0.00    +0.000 A 
ATOM     16  C   UNL     1       0.786  10.457  21.688  0.00  0.00    +0.000 A 
ATOM     17  C   UNL     1       0.085   9.574  22.472  0.00  0.00    +0.000 A 
ATOM     18  N   UNL     1      -0.952  10.287  22.991  0.00  0.00    +0.000 N 
ATOM     19  N   UNL     1      -1.030  11.533  22.506  0.00  0.00    +0.000 NA
ATOM     20  H   UNL     1      -1.671   9.973  23.640  0.00  0.00    +0.000 HD
ENDBRANCH   1   2
BRANCH   1  21
ATOM     21  C   UNL     1      -2.076  11.885  18.369  0.00  0.00    +0.000 C 
ATOM     22  C   UNL     1      -1.603  10.508  17.963  0.00  0.00    +0.000 C 
ATOM     23  C   UNL     1      -3.064  10.836  17.918  0.00  0.00    +0.000 C 
ENDBRANCH   1  21
BRANCH   1  24
ATOM     24  N   UNL     1      -3.373  13.103  19.952  0.00  0.00    +0.000 N 
ATOM     25  H   UNL     1      -3.340  14.072  19.644  0.00  0.00    +0.000 HD
BRANCH  24  33
ATOM     26  N   UNL     1      -5.010  13.857  24.168  0.00  0.00    +0.000 N 
ATOM     27  C   UNL     1      -5.161  13.200  22.966  0.00  0.00    +0.000 A 
ATOM     28  N   UNL     1      -6.272  12.492  22.805  0.00  0.00    +0.000 NA
ATOM     29  C   UNL     1      -6.514  12.057  21.565  0.00  0.00    +0.000 A 
ATOM     30  N   UNL     1      -7.636  11.227  21.431  0.00  0.00    +0.000 N 
ATOM     31  C   UNL     1      -5.671  12.323  20.486  0.00  0.00    +0.000 A 
ATOM     32 CL   UNL     1      -6.323  12.082  18.902  0.00  0.00    +0.000 Cl
ATOM     33  C   UNL     1      -4.438  12.882  20.789  0.00  0.00    +0.000 A 
ATOM     34  N   UNL     1      -4.204  13.341  22.042  0.00  0.00    +0.000 NA
ATOM     35  H   UNL     1      -5.579  13.433  24.889  0.00  0.00    +0.000 HD
ATOM     36  H   UNL     1      -4.047  14.068  24.371  0.00  0.00    +0.000 HD
ATOM     37  H   UNL     1      -8.157  11.233  22.303  0.00  0.00    +0.000 HD
ATOM     38  H   UNL     1      -8.187  11.446  20.613  0.00  0.00    +0.000 HD
ENDBRANCH  24  33
ENDBRANCH   1  24
TORSDOF 4
ENDMDL
MODEL 3
REMARK VINA RESULT:      -7.2      3.629      6.766
REMARK  Name = 
REMARK  4 active torsions:
REMARK  status: ('A' for Active; 'I' for Inactive)
REMARK    1  A    between atoms: C_8  and  N_9
REMARK    2  A    between atoms: N_9  and  C_10
REMARK    3  A    between atoms: C_10  and  C_11
REMARK    4  A    between atoms: C_10  and  C_29
REMARK                            x       y       z     vdW  Elec       q    Type
REMARK                         _______ _______ _______ _____ _____    ______ ____
ROOT
ATOM      1  C   UNL     1      -1.817  12.159  19.467  0.00  0.00    +0.000 C 
ENDROOT
BRANCH   1   2
ATOM      2  C   UNL     1      -0.525  13.038  19.328  0.00  0.00    +0.000 A 
ATOM      3  N   UNL     1      -0.682  14.313  19.112  0.00  0.00    +0.000 NA
ATOM      4  C   UNL     1       0.432  15.096  18.758  0.00  0.00    +0.000 A 
ATOM      5  C   UNL     1       0.311  16.489  18.596  0.00  0.00    +0.000 A 
ATOM      6 CL   UNL     1      -1.189  17.294  18.894  0.00  0.00    +0.000 Cl
ATOM      7  C   UNL     1       1.394  17.266  18.169  0.00  0.00    +0.000 A 
ATOM      8  C   UNL     1       2.603  16.648  17.890  0.00  0.00    +0.000 A 
ATOM      9  F   UNL     1       3.638  17.387  17.467  0.00  0.00    +0.000 F 
ATOM     10  C   UNL     1       2.758  15.278  18.042  0.00  0.00    +0.000 A 
ATOM     11  C   UNL     1       1.670  14.512  18.481  0.00  0.00    +0.000 A 
ATOM     12  C   UNL     1       1.817  13.057  18.682  0.00  0.00    +0.000 A 
ATOM     13  O   UNL     1       2.890  12.537  18.376  0.00  0.00    +0.000 OA
ATOM     14  N   UNL     1       0.711  12.406  19.224  0.00  0.00    +0.000 N 
ATOM     15  C   UNL     1       0.870  11.060  19.582  0.00  0.00    +0.000 A 
ATOM     16  C   UNL     1       1.432  10.019  18.794  0.00  0.00    +0.000 A 
ATOM     17  C   UNL     1       1.156   8.857  19.472  0.00  0.00    +0.000 A 
ATOM     18  N   UNL     1       0.611   9.245  20.659  0.00  0.00    +0.000 N 
ATOM     19  N   UNL     1       0.414  10.567  20.741  0.00  0.00    +0.000 NA
ATOM     20  H   UNL     1       0.306   8.660  21.433  0.00  0.00    +0.000 HD
ENDBRANCH   1   2
BRANCH   1  21
ATOM     21  C   UNL     1      -2.205  11.630  18.092  0.00  0.00    +0.000 C 
ATOM     22  C   UNL     1      -2.176  10.164  17.720  0.00  0.00    +0.000 C 
ATOM     23  C   UNL     1      -3.489  10.853  17.931  0.00  0.00    +0.000 C 
ENDBRANCH   1  21
BRANCH   1  24
ATOM     24  N   UNL     1      -2.977  12.918  19.940  0.00  0.00    +0.000 N 
ATOM     25  H   UNL     1      -3.055  13.856  19.554  0.00  0.00    +0.000 HD
BRANCH  24  33
ATOM     26  N   UNL     1      -7.115  11.847  21.598  0.00  0.00    +0.000 N 
ATOM     27  C   UNL     1      -5.856  12.346  21.856  0.00  0.00    +0.000 A 
ATOM     28  N   UNL     1      -5.561  12.605  23.123  0.00  0.00    +0.000 NA
ATOM     29  C   UNL     1      -4.277  12.862  23.385  0.00  0.00    +0.000 A 
ATOM     30  N   UNL     1      -3.999  13.232  24.708  0.00  0.00    +0.000 N 
ATOM     31  C   UNL     1      -3.284  12.858  22.405  0.00  0.00    +0.000 A 
ATOM     32 CL   UNL     1      -1.644  12.772  22.949  0.00  0.00    +0.000 Cl
ATOM     33  C   UNL     1      -3.716  12.788  21.089  0.00  0.00    +0.000 A 
ATOM     34  N   UNL     1      -5.015  12.507  20.828  0.00  0.00    +0.000 NA
ATOM     35  H   UNL     1      -7.758  12.077  22.344  0.00  0.00    +0.000 HD
ATOM     36  H   UNL     1      -7.401  12.001  20.645  0.00  0.00    +0.000 HD
ATOM     37  H   UNL     1      -4.830  13.086  25.274  0.00  0.00    +0.000 HD
ATOM     38  H   UNL     1      -3.164  12.792  25.069  0.00  0.00    +0.000 HD
ENDBRANCH  24  33
ENDBRANCH   1  24
TORSDOF 4
ENDMDL
MODEL 4
REMARK VINA RESULT:      -7.1      3.612      6.869
REMARK  Name = 
REMARK  4 active torsions:
REMARK  status: ('A' for Active; 'I' for Inactive)
REMARK    1  A    between atoms: C_8  and  N_9
REMARK    2  A    between atoms: N_9  and  C_10
REMARK    3  A    between atoms: C_10  and  C_11
REMARK    4  A    between atoms: C_10  and  C_29
REMARK                            x       y       z     vdW  Elec       q    Type
REMARK                         _______ _______ _______ _____ _____    ______ ____
ROOT
ATOM      1  C   UNL     1      -1.622  12.050  19.013  0.00  0.00    +0.000 C 
ENDROOT
BRANCH   1   2
ATOM      2  C   UNL     1      -0.328  12.939  18.993  0.00  0.00    +0.000 A 
ATOM      3  N   UNL     1      -0.483  14.227  18.875  0.00  0.00    +0.000 NA
ATOM      4  C   UNL     1       0.640  15.037  18.628  0.00  0.00    +0.000 A 
ATOM      5  C   UNL     1       0.520  16.439  18.573  0.00  0.00    +0.000 A 
ATOM      6 CL   UNL     1      -0.995  17.215  18.880  0.00  0.00    +0.000 Cl
ATOM      7  C   UNL     1       1.614  17.249  18.252  0.00  0.00    +0.000 A 
ATOM      8  C   UNL     1       2.836  16.657  17.970  0.00  0.00    +0.000 A 
ATOM      9  F   UNL     1       3.883  17.429  17.646  0.00  0.00    +0.000 F 
ATOM     10  C   UNL     1       2.990  15.279  18.016  0.00  0.00    +0.000 A 
ATOM     11  C   UNL     1       1.890  14.479  18.350  0.00  0.00    +0.000 A 
ATOM     12  C   UNL     1       2.036  13.013  18.439  0.00  0.00    +0.000 A 
ATOM     13  O   UNL     1       3.121  12.520  18.132  0.00  0.00    +0.000 OA
ATOM     14  N   UNL     1       0.913  12.318  18.884  0.00  0.00    +0.000 N 
ATOM     15  C   UNL     1       1.064  10.948  19.138  0.00  0.00    +0.000 A 
ATOM     16  C   UNL     1       1.660   9.975  18.291  0.00  0.00    +0.000 A 
ATOM     17  C   UNL     1       1.363   8.762  18.862  0.00  0.00    +0.000 A 
ATOM     18  N   UNL     1       0.773   9.052  20.055  0.00  0.00    +0.000 N 
ATOM     19  N   UNL     1       0.568  10.363  20.236  0.00  0.00    +0.000 NA
ATOM     20  H   UNL     1       0.441   8.406  20.768  0.00  0.00    +0.000 HD
ENDBRANCH   1   2
BRANCH   1  21
ATOM     21  C   UNL     1      -1.843  11.471  17.620  0.00  0.00    +0.000 C 
ATOM     22  C   UNL     1      -1.984   9.991  17.341  0.00  0.00    +0.000 C 
ATOM     23  C   UNL     1      -3.188  10.880  17.269  0.00  0.00    +0.000 C 
ENDBRANCH   1  21
BRANCH   1  24
ATOM     24  N   UNL     1      -2.834  12.810  19.322  0.00  0.00    +0.000 N 
ATOM     25  H   UNL     1      -2.884  13.726  18.882  0.00  0.00    +0.000 HD
BRANCH  24  33
ATOM     26  N   UNL     1      -3.112  13.117  23.889  0.00  0.00    +0.000 N 
ATOM     27  C   UNL     1      -3.741  12.783  22.708  0.00  0.00    +0.000 A 
ATOM     28  N   UNL     1      -5.024  12.454  22.785  0.00  0.00    +0.000 NA
ATOM     29  C   UNL     1      -5.675  12.361  21.622  0.00  0.00    +0.000 A 
ATOM     30  N   UNL     1      -7.001  11.915  21.713  0.00  0.00    +0.000 N 
ATOM     31  C   UNL     1      -5.068  12.598  20.388  0.00  0.00    +0.000 A 
ATOM     32 CL   UNL     1      -6.114  12.869  19.038  0.00  0.00    +0.000 Cl
ATOM     33  C   UNL     1      -3.687  12.726  20.394  0.00  0.00    +0.000 A 
ATOM     34  N   UNL     1      -3.033  12.840  21.575  0.00  0.00    +0.000 NA
ATOM     35  H   UNL     1      -3.601  12.729  24.685  0.00  0.00    +0.000 HD
ATOM     36  H   UNL     1      -2.112  13.011  23.833  0.00  0.00    +0.000 HD
ATOM     37  H   UNL     1      -7.273  11.887  22.690  0.00  0.00    +0.000 HD
ATOM     38  H   UNL     1      -7.629  12.436  21.117  0.00  0.00    +0.000 HD
ENDBRANCH  24  33
ENDBRANCH   1  24
TORSDOF 4
ENDMDL
MODEL 5
REMARK VINA RESULT:      -7.1      3.471      6.170
REMARK  Name = 
REMARK  4 active torsions:
REMARK  status: ('A' for Active; 'I' for Inactive)
REMARK    1  A    between atoms: C_8  and  N_9
REMARK    2  A    between atoms: N_9  and  C_10
REMARK    3  A    between atoms: C_10  and  C_11
REMARK    4  A    between atoms: C_10  and  C_29
REMARK                            x       y       z     vdW  Elec       q    Type
REMARK                         _______ _______ _______ _____ _____    ______ ____
ROOT
ATOM      1  C   UNL     1      -0.037  12.118  19.053  0.00  0.00    +0.000 C 
ENDROOT
BRANCH   1   2
ATOM      2  C   UNL     1       0.532  10.846  19.775  0.00  0.00    +0.000 A 
ATOM      3  N   UNL     1       1.157   9.966  19.044  0.00  0.00    +0.000 NA
ATOM      4  C   UNL     1       1.483   8.715  19.599  0.00  0.00    +0.000 A 
ATOM      5  C   UNL     1       2.227   7.773  18.863  0.00  0.00    +0.000 A 
ATOM      6 CL   UNL     1       2.826   8.147  17.285  0.00  0.00    +0.000 Cl
ATOM      7  C   UNL     1       2.491   6.498  19.375  0.00  0.00    +0.000 A 
ATOM      8  C   UNL     1       1.999   6.154  20.625  0.00  0.00    +0.000 A 
ATOM      9  F   UNL     1       2.237   4.929  21.113  0.00  0.00    +0.000 F 
ATOM     10  C   UNL     1       1.264   7.059  21.378  0.00  0.00    +0.000 A 
ATOM     11  C   UNL     1       1.016   8.337  20.860  0.00  0.00    +0.000 A 
ATOM     12  C   UNL     1       0.266   9.329  21.654  0.00  0.00    +0.000 A 
ATOM     13  O   UNL     1      -0.199   8.971  22.736  0.00  0.00    +0.000 OA
ATOM     14  N   UNL     1       0.167  10.602  21.095  0.00  0.00    +0.000 N 
ATOM     15  C   UNL     1      -0.393  11.611  21.891  0.00  0.00    +0.000 A 
ATOM     16  C   UNL     1      -1.604  11.551  22.632  0.00  0.00    +0.000 A 
ATOM     17  C   UNL     1      -1.842  12.838  23.048  0.00  0.00    +0.000 A 
ATOM     18  N   UNL     1      -0.735  13.549  22.696  0.00  0.00    +0.000 N 
ATOM     19  N   UNL     1       0.145  12.834  21.983  0.00  0.00    +0.000 NA
ATOM     20  H   UNL     1      -0.537  14.532  22.865  0.00  0.00    +0.000 HD
ENDBRANCH   1   2
BRANCH   1  21
ATOM     21  C   UNL     1      -1.179  11.696  18.136  0.00  0.00    +0.000 C 
ATOM     22  C   UNL     1      -2.111  10.543  18.435  0.00  0.00    +0.000 C 
ATOM     23  C   UNL     1      -2.604  11.952  18.562  0.00  0.00    +0.000 C 
ENDBRANCH   1  21
BRANCH   1  24
ATOM     24  N   UNL     1       0.946  12.771  18.186  0.00  0.00    +0.000 N 
ATOM     25  H   UNL     1       1.345  12.169  17.468  0.00  0.00    +0.000 HD
BRANCH  24  33
ATOM     26  N   UNL     1       5.181  14.466  17.722  0.00  0.00    +0.000 N 
ATOM     27  C   UNL     1       3.917  14.630  18.248  0.00  0.00    +0.000 A 
ATOM     28  N   UNL     1       3.665  15.783  18.854  0.00  0.00    +0.000 NA
ATOM     29  C   UNL     1       2.385  16.021  19.150  0.00  0.00    +0.000 A 
ATOM     30  N   UNL     1       2.147  17.195  19.879  0.00  0.00    +0.000 N 
ATOM     31  C   UNL     1       1.353  15.132  18.844  0.00  0.00    +0.000 A 
ATOM     32 CL   UNL     1      -0.259  15.755  18.884  0.00  0.00    +0.000 Cl
ATOM     33  C   UNL     1       1.735  13.872  18.407  0.00  0.00    +0.000 A 
ATOM     34  N   UNL     1       3.031  13.640  18.089  0.00  0.00    +0.000 NA
ATOM     35  H   UNL     1       5.845  15.083  18.170  0.00  0.00    +0.000 HD
ATOM     36  H   UNL     1       5.423  13.496  17.602  0.00  0.00    +0.000 HD
ATOM     37  H   UNL     1       3.004  17.737  19.919  0.00  0.00    +0.000 HD
ATOM     38  H   UNL     1       1.343  17.706  19.544  0.00  0.00    +0.000 HD
ENDBRANCH  24  33
ENDBRANCH   1  24
TORSDOF 4
ENDMDL
MODEL 6
REMARK VINA RESULT:      -7.1      3.732      6.692
REMARK  Name = 
REMARK  4 active torsions:
REMARK  status: ('A' for Active; 'I' for Inactive)
REMARK    1  A    between atoms: C_8  and  N_9
REMARK    2  A    between atoms: N_9  and  C_10
REMARK    3  A    between atoms: C_10  and  C_11
REMARK    4  A    between atoms: C_10  and  C_29
REMARK                            x       y       z     vdW  Elec       q    Type
REMARK                         _______ _______ _______ _____ _____    ______ ____
ROOT
ATOM      1  C   UNL     1      -2.096  12.356  19.794  0.00  0.00    +0.000 C 
ENDROOT
BRANCH   1   2
ATOM      2  C   UNL     1      -0.846  13.265  20.070  0.00  0.00    +0.000 A 
ATOM      3  N   UNL     1      -0.765  14.392  19.421  0.00  0.00    +0.000 NA
ATOM      4  C   UNL     1       0.434  15.127  19.463  0.00  0.00    +0.000 A 
ATOM      5  C   UNL     1       0.529  16.386  18.841  0.00  0.00    +0.000 A 
ATOM      6 CL   UNL     1      -0.841  17.103  18.067  0.00  0.00    +0.000 Cl
ATOM      7  C   UNL     1       1.738  17.090  18.809  0.00  0.00    +0.000 A 
ATOM      8  C   UNL     1       2.864  16.530  19.393  0.00  0.00    +0.000 A 
ATOM      9  F   UNL     1       4.027  17.195  19.352  0.00  0.00    +0.000 F 
ATOM     10  C   UNL     1       2.805  15.293  20.016  0.00  0.00    +0.000 A 
ATOM     11  C   UNL     1       1.587  14.602  20.052  0.00  0.00    +0.000 A 
ATOM     12  C   UNL     1       1.489  13.299  20.738  0.00  0.00    +0.000 A 
ATOM     13  O   UNL     1       2.520  12.810  21.199  0.00  0.00    +0.000 OA
ATOM     14  N   UNL     1       0.212  12.746  20.810  0.00  0.00    +0.000 N 
ATOM     15  C   UNL     1       0.053  11.596  21.595  0.00  0.00    +0.000 A 
ATOM     16  C   UNL     1       0.851  10.419  21.570  0.00  0.00    +0.000 A 
ATOM     17  C   UNL     1       0.172   9.501  22.333  0.00  0.00    +0.000 A 
ATOM     18  N   UNL     1      -0.868  10.183  22.889  0.00  0.00    +0.000 N 
ATOM     19  N   UNL     1      -0.969  11.443  22.446  0.00  0.00    +0.000 NA
ATOM     20  H   UNL     1      -1.574   9.838  23.536  0.00  0.00    +0.000 HD
ENDBRANCH   1   2
BRANCH   1  21
ATOM     21  C   UNL     1      -2.059  11.892  18.344  0.00  0.00    +0.000 C 
ATOM     22  C   UNL     1      -1.868  10.450  17.930  0.00  0.00    +0.000 C 
ATOM     23  C   UNL     1      -3.214  11.092  17.792  0.00  0.00    +0.000 C 
ENDBRANCH   1  21
BRANCH   1  24
ATOM     24  N   UNL     1      -3.366  13.069  19.950  0.00  0.00    +0.000 N 
ATOM     25  H   UNL     1      -3.395  13.984  19.506  0.00  0.00    +0.000 HD
BRANCH  24  33
ATOM     26  N   UNL     1      -7.316  10.985  20.986  0.00  0.00    +0.000 N 
ATOM     27  C   UNL     1      -6.391  11.950  21.322  0.00  0.00    +0.000 A 
ATOM     28  N   UNL     1      -6.574  12.580  22.475  0.00  0.00    +0.000 NA
ATOM     29  C   UNL     1      -5.558  13.337  22.897  0.00  0.00    +0.000 A 
ATOM     30  N   UNL     1      -5.804  14.074  24.063  0.00  0.00    +0.000 N 
ATOM     31  C   UNL     1      -4.361  13.467  22.191  0.00  0.00    +0.000 A 
ATOM     32 CL   UNL     1      -3.005  14.106  23.054  0.00  0.00    +0.000 Cl
ATOM     33  C   UNL     1      -4.343  12.947  20.905  0.00  0.00    +0.000 A 
ATOM     34  N   UNL     1      -5.367  12.164  20.489  0.00  0.00    +0.000 NA
ATOM     35  H   UNL     1      -8.190  11.131  21.474  0.00  0.00    +0.000 HD
ATOM     36  H   UNL     1      -7.338  10.804  19.995  0.00  0.00    +0.000 HD
ATOM     37  H   UNL     1      -6.686  13.771  24.465  0.00  0.00    +0.000 HD
ATOM     38  H   UNL     1      -5.025  14.059  24.706  0.00  0.00    +0.000 HD
ENDBRANCH  24  33
ENDBRANCH   1  24
TORSDOF 4
ENDMDL
MODEL 7
REMARK VINA RESULT:      -6.9      2.889      5.512
REMARK  Name = 
REMARK  4 active torsions:
REMARK  status: ('A' for Active; 'I' for Inactive)
REMARK    1  A    between atoms: C_8  and  N_9
REMARK    2  A    between atoms: N_9  and  C_10
REMARK    3  A    between atoms: C_10  and  C_11
REMARK    4  A    between atoms: C_10  and  C_29
REMARK                            x       y       z     vdW  Elec       q    Type
REMARK                         _______ _______ _______ _____ _____    ______ ____
ROOT
ATOM      1  C   UNL     1      -0.562  11.532  21.293  0.00  0.00    +0.000 C 
ENDROOT
BRANCH   1   2
ATOM      2  C   UNL     1      -1.645  11.785  20.186  0.00  0.00    +0.000 A 
ATOM      3  N   UNL     1      -2.792  12.277  20.565  0.00  0.00    +0.000 NA
ATOM      4  C   UNL     1      -3.862  12.309  19.654  0.00  0.00    +0.000 A 
ATOM      5  C   UNL     1      -5.089  12.905  20.005  0.00  0.00    +0.000 A 
ATOM      6 CL   UNL     1      -5.297  13.680  21.537  0.00  0.00    +0.000 Cl
ATOM      7  C   UNL     1      -6.185  12.875  19.136  0.00  0.00    +0.000 A 
ATOM      8  C   UNL     1      -6.063  12.235  17.912  0.00  0.00    +0.000 A 
ATOM      9  F   UNL     1      -7.115  12.190  17.084  0.00  0.00    +0.000 F 
ATOM     10  C   UNL     1      -4.868  11.639  17.534  0.00  0.00    +0.000 A 
ATOM     11  C   UNL     1      -3.774  11.685  18.407  0.00  0.00    +0.000 A 
ATOM     12  C   UNL     1      -2.482  11.089  18.015  0.00  0.00    +0.000 A 
ATOM     13  O   UNL     1      -2.426  10.485  16.944  0.00  0.00    +0.000 OA
ATOM     14  N   UNL     1      -1.429  11.284  18.906  0.00  0.00    +0.000 N 
ATOM     15  C   UNL     1      -0.154  10.877  18.493  0.00  0.00    +0.000 A 
ATOM     16  C   UNL     1       0.209   9.626  17.922  0.00  0.00    +0.000 A 
ATOM     17  C   UNL     1       1.582   9.616  17.906  0.00  0.00    +0.000 A 
ATOM     18  N   UNL     1       1.964  10.864  18.296  0.00  0.00    +0.000 N 
ATOM     19  N   UNL     1       0.935  11.636  18.669  0.00  0.00    +0.000 NA
ATOM     20  H   UNL     1       2.906  11.239  18.377  0.00  0.00    +0.000 HD
ENDBRANCH   1   2
BRANCH   1  21
ATOM     21  C   UNL     1      -0.542  10.047  21.634  0.00  0.00    +0.000 C 
ATOM     22  C   UNL     1       0.727   9.236  21.772  0.00  0.00    +0.000 C 
ATOM     23  C   UNL     1      -0.058   9.605  22.994  0.00  0.00    +0.000 C 
ENDBRANCH   1  21
BRANCH   1  24
ATOM     24  N   UNL     1      -0.856  12.223  22.550  0.00  0.00    +0.000 N 
ATOM     25  H   UNL     1      -1.592  11.794  23.107  0.00  0.00    +0.000 HD
BRANCH  24  33
ATOM     26  N   UNL     1       1.694  15.951  21.762  0.00  0.00    +0.000 N 
ATOM     27  C   UNL     1       0.742  15.342  22.552  0.00  0.00    +0.000 A 
ATOM     28  N   UNL     1       0.186  16.086  23.499  0.00  0.00    +0.000 NA
ATOM     29  C   UNL     1      -0.888  15.565  24.098  0.00  0.00    +0.000 A 
ATOM     30  N   UNL     1      -1.404  16.316  25.163  0.00  0.00    +0.000 N 
ATOM     31  C   UNL     1      -1.419  14.318  23.760  0.00  0.00    +0.000 A 
ATOM     32 CL   UNL     1      -3.028  13.979  24.295  0.00  0.00    +0.000 Cl
ATOM     33  C   UNL     1      -0.652  13.529  22.916  0.00  0.00    +0.000 A 
ATOM     34  N   UNL     1       0.425  14.069  22.295  0.00  0.00    +0.000 NA
ATOM     35  H   UNL     1       2.095  16.754  22.227  0.00  0.00    +0.000 HD
ATOM     36  H   UNL     1       2.311  15.285  21.324  0.00  0.00    +0.000 HD
ATOM     37  H   UNL     1      -0.939  17.218  25.186  0.00  0.00    +0.000 HD
ATOM     38  H   UNL     1      -2.413  16.365  25.154  0.00  0.00    +0.000 HD
ENDBRANCH  24  33
ENDBRANCH   1  24
TORSDOF 4
ENDMDL
MODEL 8
REMARK VINA RESULT:      -6.8      3.617      6.637
REMARK  Name = 
REMARK  4 active torsions:
REMARK  status: ('A' for Active; 'I' for Inactive)
REMARK    1  A    between atoms: C_8  and  N_9
REMARK    2  A    between atoms: N_9  and  C_10
REMARK    3  A    between atoms: C_10  and  C_11
REMARK    4  A    between atoms: C_10  and  C_29
REMARK                            x       y       z     vdW  Elec       q    Type
REMARK                         _______ _______ _______ _____ _____    ______ ____
ROOT
ATOM      1  C   UNL     1      -2.246  12.286  19.995  0.00  0.00    +0.000 C 
ENDROOT
BRANCH   1   2
ATOM      2  C   UNL     1      -0.965  13.162  20.230  0.00  0.00    +0.000 A 
ATOM      3  N   UNL     1      -0.866  14.277  19.562  0.00  0.00    +0.000 NA
ATOM      4  C   UNL     1       0.353  14.977  19.567  0.00  0.00    +0.000 A 
ATOM      5  C   UNL     1       0.471  16.224  18.923  0.00  0.00    +0.000 A 
ATOM      6 CL   UNL     1      -0.895  16.968  18.168  0.00  0.00    +0.000 Cl
ATOM      7  C   UNL     1       1.698  16.892  18.855  0.00  0.00    +0.000 A 
ATOM      8  C   UNL     1       2.820  16.309  19.423  0.00  0.00    +0.000 A 
ATOM      9  F   UNL     1       4.000  16.939  19.347  0.00  0.00    +0.000 F 
ATOM     10  C   UNL     1       2.740  15.083  20.067  0.00  0.00    +0.000 A 
ATOM     11  C   UNL     1       1.503  14.428  20.139  0.00  0.00    +0.000 A 
ATOM     12  C   UNL     1       1.384  13.139  20.848  0.00  0.00    +0.000 A 
ATOM     13  O   UNL     1       2.411  12.628  21.294  0.00  0.00    +0.000 OA
ATOM     14  N   UNL     1       0.093  12.625  20.956  0.00  0.00    +0.000 N 
ATOM     15  C   UNL     1      -0.081  11.491  21.761  0.00  0.00    +0.000 A 
ATOM     16  C   UNL     1       0.682  10.292  21.738  0.00  0.00    +0.000 A 
ATOM     17  C   UNL     1      -0.006   9.405  22.530  0.00  0.00    +0.000 A 
ATOM     18  N   UNL     1      -1.014  10.125  23.097  0.00  0.00    +0.000 N 
ATOM     19  N   UNL     1      -1.088  11.380  22.636  0.00  0.00    +0.000 NA
ATOM     20  H   UNL     1      -1.715   9.811  23.764  0.00  0.00    +0.000 HD
ENDBRANCH   1   2
BRANCH   1  21
ATOM     21  C   UNL     1      -2.286  11.850  18.536  0.00  0.00    +0.000 C 
ATOM     22  C   UNL     1      -2.139  10.414  18.086  0.00  0.00    +0.000 C 
ATOM     23  C   UNL     1      -3.479  11.079  18.024  0.00  0.00    +0.000 C 
ENDBRANCH   1  21
BRANCH   1  24
ATOM     24  N   UNL     1      -3.492  13.021  20.223  0.00  0.00    +0.000 N 
ATOM     25  H   UNL     1      -3.870  13.480  19.397  0.00  0.00    +0.000 HD
BRANCH  24  33
ATOM     26  N   UNL     1      -4.938  12.058  24.466  0.00  0.00    +0.000 N 
ATOM     27  C   UNL     1      -4.827  12.998  23.464  0.00  0.00    +0.000 A 
ATOM     28  N   UNL     1      -5.211  14.234  23.756  0.00  0.00    +0.000 NA
ATOM     29  C   UNL     1      -4.885  15.175  22.866  0.00  0.00    +0.000 A 
ATOM     30  N   UNL     1      -5.384  16.456  23.139  0.00  0.00    +0.000 N 
ATOM     31  C   UNL     1      -4.177  14.903  21.695  0.00  0.00    +0.000 A 
ATOM     32 CL   UNL     1      -3.459  16.248  20.880  0.00  0.00    +0.000 Cl
ATOM     33  C   UNL     1      -4.007  13.564  21.373  0.00  0.00    +0.000 A 
ATOM     34  N   UNL     1      -4.320  12.614  22.287  0.00  0.00    +0.000 NA
ATOM     35  H   UNL     1      -5.616  12.343  25.160  0.00  0.00    +0.000 HD
ATOM     36  H   UNL     1      -4.976  11.118  24.107  0.00  0.00    +0.000 HD
ATOM     37  H   UNL     1      -5.789  16.461  24.070  0.00  0.00    +0.000 HD
ATOM     38  H   UNL     1      -4.702  17.183  22.975  0.00  0.00    +0.000 HD
ENDBRANCH  24  33
ENDBRANCH   1  24
TORSDOF 4
ENDMDL
MODEL 9
REMARK VINA RESULT:      -6.8      4.496      7.449
REMARK  Name = 
REMARK  4 active torsions:
REMARK  status: ('A' for Active; 'I' for Inactive)
REMARK    1  A    between atoms: C_8  and  N_9
REMARK    2  A    between atoms: N_9  and  C_10
REMARK    3  A    between atoms: C_10  and  C_11
REMARK    4  A    between atoms: C_10  and  C_29
REMARK                            x       y       z     vdW  Elec       q    Type
REMARK                         _______ _______ _______ _____ _____    ______ ____
ROOT
ATOM      1  C   UNL     1       1.014  10.137  18.819  0.00  0.00    +0.000 C 
ENDROOT
BRANCH   1   2
ATOM      2  C   UNL     1       1.800   8.810  19.108  0.00  0.00    +0.000 A 
ATOM      3  N   UNL     1       2.526   8.316  18.145  0.00  0.00    +0.000 NA
ATOM      4  C   UNL     1       3.064   7.023  18.279  0.00  0.00    +0.000 A 
ATOM      5  C   UNL     1       3.917   6.492  17.293  0.00  0.00    +0.000 A 
ATOM      6 CL   UNL     1       4.392   7.435  15.924  0.00  0.00    +0.000 Cl
ATOM      7  C   UNL     1       4.395   5.180  17.378  0.00  0.00    +0.000 A 
ATOM      8  C   UNL     1       4.009   4.385  18.447  0.00  0.00    +0.000 A 
ATOM      9  F   UNL     1       4.452   3.123  18.523  0.00  0.00    +0.000 F 
ATOM     10  C   UNL     1       3.170   4.878  19.437  0.00  0.00    +0.000 A 
ATOM     11  C   UNL     1       2.708   6.197  19.348  0.00  0.00    +0.000 A 
ATOM     12  C   UNL     1       1.842   6.755  20.404  0.00  0.00    +0.000 A 
ATOM     13  O   UNL     1       1.479   6.005  21.310  0.00  0.00    +0.000 OA
ATOM     14  N   UNL     1       1.527   8.107  20.278  0.00  0.00    +0.000 N 
ATOM     15  C   UNL     1       0.847   8.710  21.344  0.00  0.00    +0.000 A 
ATOM     16  C   UNL     1      -0.313   8.228  22.011  0.00  0.00    +0.000 A 
ATOM     17  C   UNL     1      -0.732   9.263  22.810  0.00  0.00    +0.000 A 
ATOM     18  N   UNL     1       0.237  10.215  22.718  0.00  0.00    +0.000 N 
ATOM     19  N   UNL     1       1.191   9.911  21.828  0.00  0.00    +0.000 NA
ATOM     20  H   UNL     1       0.286  11.113  23.193  0.00  0.00    +0.000 HD
ENDBRANCH   1   2
BRANCH   1  21
ATOM     21  C   UNL     1      -0.079   9.851  17.796  0.00  0.00    +0.000 C 
ATOM     22  C   UNL     1      -1.536   9.673  18.156  0.00  0.00    +0.000 C 
ATOM     23  C   UNL     1      -1.087  10.926  17.468  0.00  0.00    +0.000 C 
ENDBRANCH   1  21
BRANCH   1  24
ATOM     24  N   UNL     1       1.852  11.179  18.222  0.00  0.00    +0.000 N 
ATOM     25  H   UNL     1       2.562  10.836  17.579  0.00  0.00    +0.000 HD
BRANCH  24  33
ATOM     26  N   UNL     1       4.476  14.863  17.469  0.00  0.00    +0.000 N 
ATOM     27  C   UNL     1       3.582  14.226  18.303  0.00  0.00    +0.000 A 
ATOM     28  N   UNL     1       3.159  14.909  19.360  0.00  0.00    +0.000 NA
ATOM     29  C   UNL     1       2.129  14.379  20.025  0.00  0.00    +0.000 A 
ATOM     30  N   UNL     1       1.759  15.057  21.194  0.00  0.00    +0.000 N 
ATOM     31  C   UNL     1       1.510  13.186  19.647  0.00  0.00    +0.000 A 
ATOM     32 CL   UNL     1      -0.050  12.863  20.319  0.00  0.00    +0.000 Cl
ATOM     33  C   UNL     1       2.151  12.442  18.667  0.00  0.00    +0.000 A 
ATOM     34  N   UNL     1       3.183  12.991  17.982  0.00  0.00    +0.000 NA
ATOM     35  H   UNL     1       4.958  15.609  17.951  0.00  0.00    +0.000 HD
ATOM     36  H   UNL     1       5.014  14.213  16.918  0.00  0.00    +0.000 HD
ATOM     37  H   UNL     1       2.264  15.937  21.240  0.00  0.00    +0.000 HD
ATOM     38  H   UNL     1       0.757  15.144  21.295  0.00  0.00    +0.000 HD
ENDBRANCH  24  33
ENDBRANCH   1  24
TORSDOF 4
ENDMDL
