MODEL 1
REMARK VINA RESULT:      -7.5      0.000      0.000
REMARK  Name = 
REMARK  6 active torsions:
REMARK  status: ('A' for Active; 'I' for Inactive)
REMARK    1  A    between atoms: C_1  and  C_2
REMARK    2  A    between atoms: C_2  and  O_3
REMARK    3  A    between atoms: C_2  and  C_4
REMARK    4  A    between atoms: C_4  and  N_5
REMARK    5  A    between atoms: N_11  and  C_12
REMARK    6  A    between atoms: C_21  and  C_22
REMARK                            x       y       z     vdW  Elec       q    Type
REMARK                         _______ _______ _______ _____ _____    ______ ____
ROOT
ATOM      1  N   UNL     1       5.259   5.015  17.933  0.00  0.00    +0.000 NA
ATOM      2  C   UNL     1       5.407   6.417  17.486  0.00  0.00    +0.000 C 
ATOM      3  C   UNL     1       4.086   7.167  17.250  0.00  0.00    +0.000 C 
ATOM      4  N   UNL     1       3.175   7.090  18.402  0.00  0.00    +0.000 N 
ATOM      5  C   UNL     1       2.236   8.133  18.442  0.00  0.00    +0.000 C 
ATOM      6  O   UNL     1       2.099   8.906  17.497  0.00  0.00    +0.000 OA
ATOM      7  N   UNL     1       1.622   8.286  19.661  0.00  0.00    +0.000 N 
ATOM      8  C   UNL     1       2.944   5.687  18.849  0.00  0.00    +0.000 C 
ATOM      9  C   UNL     1       2.079   5.443  20.086  0.00  0.00    +0.000 C 
ATOM     10  C   UNL     1       4.319   4.980  19.076  0.00  0.00    +0.000 C 
ATOM     11  H   UNL     1       2.072   7.796  20.415  0.00  0.00    +0.000 HD
ENDROOT
BRANCH   7  12
ATOM     12  C   UNL     1       0.727   9.306  20.056  0.00  0.00    +0.000 A 
ATOM     13  C   UNL     1       0.011  10.116  19.153  0.00  0.00    +0.000 A 
ATOM     14  C   UNL     1      -0.786  11.175  19.605  0.00  0.00    +0.000 A 
ATOM     15  C   UNL     1      -0.847  11.398  20.963  0.00  0.00    +0.000 A 
ATOM     16  C   UNL     1      -0.184  10.586  21.852  0.00  0.00    +0.000 A 
ATOM     17  C   UNL     1       0.592   9.527  21.435  0.00  0.00    +0.000 A 
ATOM     18  O   UNL     1      -0.371  10.976  23.142  0.00  0.00    +0.000 OA
ATOM     19  C   UNL     1      -1.146  12.180  22.951  0.00  0.00    +0.000 C 
ATOM     20  O   UNL     1      -1.525  12.402  21.576  0.00  0.00    +0.000 OA
ENDBRANCH   7  12
BRANCH   1  21
ATOM     21  C   UNL     1       4.832   4.098  16.865  0.00  0.00    +0.000 C 
BRANCH  21  23
ATOM     22  C   UNL     1       5.732   4.351  14.470  0.00  0.00    +0.000 C 
ATOM     23  C   UNL     1       5.914   3.697  15.833  0.00  0.00    +0.000 C 
BRANCH  23  24
ATOM     24  O   UNL     1       7.201   4.063  16.345  0.00  0.00    +0.000 OA
ATOM     25  H   UNL     1       7.223   5.032  16.427  0.00  0.00    +0.000 HD
ENDBRANCH  23  24
ENDBRANCH  21  23
ENDBRANCH   1  21
TORSDOF 4
ENDMDL
MODEL 2
REMARK VINA RESULT:      -7.4      1.655      8.742
REMARK  Name = 
REMARK  6 active torsions:
REMARK  status: ('A' for Active; 'I' for Inactive)
REMARK    1  A    between atoms: C_1  and  C_2
REMARK    2  A    between atoms: C_2  and  O_3
REMARK    3  A    between atoms: C_2  and  C_4
REMARK    4  A    between atoms: C_4  and  N_5
REMARK    5  A    between atoms: N_11  and  C_12
REMARK    6  A    between atoms: C_21  and  C_22
REMARK                            x       y       z     vdW  Elec       q    Type
REMARK                         _______ _______ _______ _____ _____    ______ ____
ROOT
ATOM      1  N   UNL     1       0.672  10.759  21.799  0.00  0.00    +0.000 NA
ATOM      2  C   UNL     1       1.322   9.598  22.443  0.00  0.00    +0.000 C 
ATOM      3  C   UNL     1       1.222   8.279  21.659  0.00  0.00    +0.000 C 
ATOM      4  N   UNL     1       1.674   8.412  20.265  0.00  0.00    +0.000 N 
ATOM      5  C   UNL     1       2.077   7.197  19.691  0.00  0.00    +0.000 C 
ATOM      6  O   UNL     1       1.884   6.125  20.261  0.00  0.00    +0.000 OA
ATOM      7  N   UNL     1       2.820   7.339  18.543  0.00  0.00    +0.000 N 
ATOM      8  C   UNL     1       0.996   9.533  19.555  0.00  0.00    +0.000 C 
ATOM      9  C   UNL     1       1.412   9.851  18.117  0.00  0.00    +0.000 C 
ATOM     10  C   UNL     1       1.135  10.843  20.396  0.00  0.00    +0.000 C 
ATOM     11  H   UNL     1       3.165   8.270  18.389  0.00  0.00    +0.000 HD
ENDROOT
BRANCH   7  12
ATOM     12  C   UNL     1       3.467   6.325  17.802  0.00  0.00    +0.000 A 
ATOM     13  C   UNL     1       3.071   4.974  17.807  0.00  0.00    +0.000 A 
ATOM     14  C   UNL     1       3.813   3.999  17.127  0.00  0.00    +0.000 A 
ATOM     15  C   UNL     1       4.942   4.407  16.454  0.00  0.00    +0.000 A 
ATOM     16  C   UNL     1       5.312   5.730  16.410  0.00  0.00    +0.000 A 
ATOM     17  C   UNL     1       4.590   6.710  17.054  0.00  0.00    +0.000 A 
ATOM     18  O   UNL     1       6.455   5.921  15.698  0.00  0.00    +0.000 OA
ATOM     19  C   UNL     1       6.809   4.557  15.383  0.00  0.00    +0.000 C 
ATOM     20  O   UNL     1       5.806   3.600  15.784  0.00  0.00    +0.000 OA
ENDBRANCH   7  12
BRANCH   1  21
ATOM     21  C   UNL     1      -0.797  10.729  21.874  0.00  0.00    +0.000 C 
BRANCH  21  23
ATOM     22  C   UNL     1      -2.615  11.772  23.364  0.00  0.00    +0.000 C 
ATOM     23  C   UNL     1      -1.485  12.023  22.374  0.00  0.00    +0.000 C 
BRANCH  23  24
ATOM     24  O   UNL     1      -0.504  12.856  23.004  0.00  0.00    +0.000 OA
ATOM     25  H   UNL     1       0.337  12.734  22.531  0.00  0.00    +0.000 HD
ENDBRANCH  23  24
ENDBRANCH  21  23
ENDBRANCH   1  21
TORSDOF 4
ENDMDL
MODEL 3
REMARK VINA RESULT:      -7.3      1.762      2.395
REMARK  Name = 
REMARK  6 active torsions:
REMARK  status: ('A' for Active; 'I' for Inactive)
REMARK    1  A    between atoms: C_1  and  C_2
REMARK    2  A    between atoms: C_2  and  O_3
REMARK    3  A    between atoms: C_2  and  C_4
REMARK    4  A    between atoms: C_4  and  N_5
REMARK    5  A    between atoms: N_11  and  C_12
REMARK    6  A    between atoms: C_21  and  C_22
REMARK                            x       y       z     vdW  Elec       q    Type
REMARK                         _______ _______ _______ _____ _____    ______ ____
ROOT
ATOM      1  N   UNL     1       4.869   4.673  18.628  0.00  0.00    +0.000 NA
ATOM      2  C   UNL     1       5.179   5.950  17.950  0.00  0.00    +0.000 C 
ATOM      3  C   UNL     1       3.952   6.781  17.537  0.00  0.00    +0.000 C 
ATOM      4  N   UNL     1       3.018   7.005  18.650  0.00  0.00    +0.000 N 
ATOM      5  C   UNL     1       2.199   8.131  18.474  0.00  0.00    +0.000 C 
ATOM      6  O   UNL     1       2.165   8.735  17.404  0.00  0.00    +0.000 OA
ATOM      7  N   UNL     1       1.583   8.562  19.624  0.00  0.00    +0.000 N 
ATOM      8  C   UNL     1       2.626   5.736  19.326  0.00  0.00    +0.000 C 
ATOM      9  C   UNL     1       1.717   5.807  20.555  0.00  0.00    +0.000 C 
ATOM     10  C   UNL     1       3.911   4.939  19.724  0.00  0.00    +0.000 C 
ATOM     11  H   UNL     1       1.963   8.169  20.467  0.00  0.00    +0.000 HD
ENDROOT
BRANCH   7  12
ATOM     12  C   UNL     1       0.799   9.724  19.801  0.00  0.00    +0.000 A 
ATOM     13  C   UNL     1       1.097  10.739  20.730  0.00  0.00    +0.000 A 
ATOM     14  C   UNL     1       0.227  11.819  20.927  0.00  0.00    +0.000 A 
ATOM     15  C   UNL     1      -0.930  11.855  20.181  0.00  0.00    +0.000 A 
ATOM     16  C   UNL     1      -1.208  10.890  19.243  0.00  0.00    +0.000 A 
ATOM     17  C   UNL     1      -0.361   9.827  19.017  0.00  0.00    +0.000 A 
ATOM     18  O   UNL     1      -2.397  11.106  18.618  0.00  0.00    +0.000 OA
ATOM     19  C   UNL     1      -2.875  12.262  19.341  0.00  0.00    +0.000 C 
ATOM     20  O   UNL     1      -1.908  12.793  20.271  0.00  0.00    +0.000 OA
ENDBRANCH   7  12
BRANCH   1  21
ATOM     21  C   UNL     1       4.364   3.631  17.721  0.00  0.00    +0.000 C 
BRANCH  21  23
ATOM     22  C   UNL     1       2.139   2.356  17.909  0.00  0.00    +0.000 C 
ATOM     23  C   UNL     1       3.583   2.468  18.381  0.00  0.00    +0.000 C 
BRANCH  23  24
ATOM     24  O   UNL     1       4.254   1.236  18.091  0.00  0.00    +0.000 OA
ATOM     25  H   UNL     1       5.208   1.420  18.051  0.00  0.00    +0.000 HD
ENDBRANCH  23  24
ENDBRANCH  21  23
ENDBRANCH   1  21
TORSDOF 4
ENDMDL
MODEL 4
REMARK VINA RESULT:      -7.3      1.421      1.744
REMARK  Name = 
REMARK  6 active torsions:
REMARK  status: ('A' for Active; 'I' for Inactive)
REMARK    1  A    between atoms: C_1  and  C_2
REMARK    2  A    between atoms: C_2  and  O_3
REMARK    3  A    between atoms: C_2  and  C_4
REMARK    4  A    between atoms: C_4  and  N_5
REMARK    5  A    between atoms: N_11  and  C_12
REMARK    6  A    between atoms: C_21  and  C_22
REMARK                            x       y       z     vdW  Elec       q    Type
REMARK                         _______ _______ _______ _____ _____    ______ ____
ROOT
ATOM      1  N   UNL     1       4.918   4.563  18.453  0.00  0.00    +0.000 NA
ATOM      2  C   UNL     1       5.100   5.882  17.812  0.00  0.00    +0.000 C 
ATOM      3  C   UNL     1       3.806   6.683  17.592  0.00  0.00    +0.000 C 
ATOM      4  N   UNL     1       3.005   6.815  18.818  0.00  0.00    +0.000 N 
ATOM      5  C   UNL     1       2.134   7.915  18.800  0.00  0.00    +0.000 C 
ATOM      6  O   UNL     1       1.951   8.569  17.775  0.00  0.00    +0.000 OA
ATOM      7  N   UNL     1       1.646   8.264  20.036  0.00  0.00    +0.000 N 
ATOM      8  C   UNL     1       2.740   5.500  19.467  0.00  0.00    +0.000 C 
ATOM      9  C   UNL     1       1.983   5.474  20.796  0.00  0.00    +0.000 C 
ATOM     10  C   UNL     1       4.090   4.736  19.666  0.00  0.00    +0.000 C 
ATOM     11  H   UNL     1       2.138   7.845  20.807  0.00  0.00    +0.000 HD
ENDROOT
BRANCH   7  12
ATOM     12  C   UNL     1       0.850   9.384  20.367  0.00  0.00    +0.000 A 
ATOM     13  C   UNL     1       0.748  10.539  19.568  0.00  0.00    +0.000 A 
ATOM     14  C   UNL     1       0.019  11.655  19.998  0.00  0.00    +0.000 A 
ATOM     15  C   UNL     1      -0.595  11.585  21.228  0.00  0.00    +0.000 A 
ATOM     16  C   UNL     1      -0.534  10.446  21.995  0.00  0.00    +0.000 A 
ATOM     17  C   UNL     1       0.160   9.328  21.588  0.00  0.00    +0.000 A 
ATOM     18  O   UNL     1      -1.202  10.582  23.172  0.00  0.00    +0.000 OA
ATOM     19  C   UNL     1      -1.605  11.968  23.095  0.00  0.00    +0.000 C 
ATOM     20  O   UNL     1      -1.299  12.581  21.826  0.00  0.00    +0.000 OA
ENDBRANCH   7  12
BRANCH   1  21
ATOM     21  C   UNL     1       4.342   3.547  17.557  0.00  0.00    +0.000 C 
BRANCH  21  23
ATOM     22  C   UNL     1       2.116   2.282  17.792  0.00  0.00    +0.000 C 
ATOM     23  C   UNL     1       3.568   2.392  18.239  0.00  0.00    +0.000 C 
BRANCH  23  24
ATOM     24  O   UNL     1       4.229   1.155  17.946  0.00  0.00    +0.000 OA
ATOM     25  H   UNL     1       4.860   0.979  18.665  0.00  0.00    +0.000 HD
ENDBRANCH  23  24
ENDBRANCH  21  23
ENDBRANCH   1  21
TORSDOF 4
ENDMDL
MODEL 5
REMARK VINA RESULT:      -7.2      2.043      2.589
REMARK  Name = 
REMARK  6 active torsions:
REMARK  status: ('A' for Active; 'I' for Inactive)
REMARK    1  A    between atoms: C_1  and  C_2
REMARK    2  A    between atoms: C_2  and  O_3
REMARK    3  A    between atoms: C_2  and  C_4
REMARK    4  A    between atoms: C_4  and  N_5
REMARK    5  A    between atoms: N_11  and  C_12
REMARK    6  A    between atoms: C_21  and  C_22
REMARK                            x       y       z     vdW  Elec       q    Type
REMARK                         _______ _______ _______ _____ _____    ______ ____
ROOT
ATOM      1  N   UNL     1       4.766   4.753  18.639  0.00  0.00    +0.000 NA
ATOM      2  C   UNL     1       5.119   5.978  17.889  0.00  0.00    +0.000 C 
ATOM      3  C   UNL     1       3.921   6.822  17.423  0.00  0.00    +0.000 C 
ATOM      4  N   UNL     1       2.990   7.141  18.517  0.00  0.00    +0.000 N 
ATOM      5  C   UNL     1       2.209   8.280  18.271  0.00  0.00    +0.000 C 
ATOM      6  O   UNL     1       2.197   8.821  17.168  0.00  0.00    +0.000 OA
ATOM      7  N   UNL     1       1.603   8.796  19.392  0.00  0.00    +0.000 N 
ATOM      8  C   UNL     1       2.556   5.926  19.263  0.00  0.00    +0.000 C 
ATOM      9  C   UNL     1       1.646   6.097  20.480  0.00  0.00    +0.000 C 
ATOM     10  C   UNL     1       3.813   5.113  19.712  0.00  0.00    +0.000 C 
ATOM     11  H   UNL     1       1.968   8.440  20.258  0.00  0.00    +0.000 HD
ENDROOT
BRANCH   7  12
ATOM     12  C   UNL     1       0.856   9.991  19.497  0.00  0.00    +0.000 A 
ATOM     13  C   UNL     1      -0.499  10.039  19.877  0.00  0.00    +0.000 A 
ATOM     14  C   UNL     1      -1.211  11.245  19.869  0.00  0.00    +0.000 A 
ATOM     15  C   UNL     1      -0.541  12.383  19.476  0.00  0.00    +0.000 A 
ATOM     16  C   UNL     1       0.792  12.350  19.143  0.00  0.00    +0.000 A 
ATOM     17  C   UNL     1       1.520  11.181  19.160  0.00  0.00    +0.000 A 
ATOM     18  O   UNL     1       1.262  13.575  18.782  0.00  0.00    +0.000 OA
ATOM     19  C   UNL     1       0.048  14.356  18.834  0.00  0.00    +0.000 C 
ATOM     20  O   UNL     1      -1.079  13.624  19.360  0.00  0.00    +0.000 OA
ENDBRANCH   7  12
BRANCH   1  21
ATOM     21  C   UNL     1       4.230   3.677  17.791  0.00  0.00    +0.000 C 
BRANCH  21  23
ATOM     22  C   UNL     1       2.061   2.339  18.131  0.00  0.00    +0.000 C 
ATOM     23  C   UNL     1       3.521   2.513  18.527  0.00  0.00    +0.000 C 
BRANCH  23  24
ATOM     24  O   UNL     1       4.218   1.294  18.245  0.00  0.00    +0.000 OA
ATOM     25  H   UNL     1       3.948   0.996  17.359  0.00  0.00    +0.000 HD
ENDBRANCH  23  24
ENDBRANCH  21  23
ENDBRANCH   1  21
TORSDOF 4
ENDMDL
MODEL 6
REMARK VINA RESULT:      -7.2      1.561      8.597
REMARK  Name = 
REMARK  6 active torsions:
REMARK  status: ('A' for Active; 'I' for Inactive)
REMARK    1  A    between atoms: C_1  and  C_2
REMARK    2  A    between atoms: C_2  and  O_3
REMARK    3  A    between atoms: C_2  and  C_4
REMARK    4  A    between atoms: C_4  and  N_5
REMARK    5  A    between atoms: N_11  and  C_12
REMARK    6  A    between atoms: C_21  and  C_22
REMARK                            x       y       z     vdW  Elec       q    Type
REMARK                         _______ _______ _______ _____ _____    ______ ____
ROOT
ATOM      1  N   UNL     1      -0.917  10.870  20.745  0.00  0.00    +0.000 NA
ATOM      2  C   UNL     1      -0.886  10.842  19.267  0.00  0.00    +0.000 C 
ATOM      3  C   UNL     1       0.480  10.495  18.652  0.00  0.00    +0.000 C 
ATOM      4  N   UNL     1       1.052   9.256  19.201  0.00  0.00    +0.000 N 
ATOM      5  C   UNL     1       1.988   8.648  18.350  0.00  0.00    +0.000 C 
ATOM      6  O   UNL     1       2.400   9.218  17.342  0.00  0.00    +0.000 OA
ATOM      7  N   UNL     1       2.266   7.340  18.666  0.00  0.00    +0.000 N 
ATOM      8  C   UNL     1       1.101   9.266  20.690  0.00  0.00    +0.000 C 
ATOM      9  C   UNL     1       1.600   8.016  21.418  0.00  0.00    +0.000 C 
ATOM     10  C   UNL     1      -0.313   9.620  21.256  0.00  0.00    +0.000 C 
ATOM     11  H   UNL     1       1.614   6.924  19.308  0.00  0.00    +0.000 HD
ENDROOT
BRANCH   7  12
ATOM     12  C   UNL     1       3.066   6.427  17.942  0.00  0.00    +0.000 A 
ATOM     13  C   UNL     1       2.781   5.053  17.827  0.00  0.00    +0.000 A 
ATOM     14  C   UNL     1       3.666   4.183  17.177  0.00  0.00    +0.000 A 
ATOM     15  C   UNL     1       4.823   4.716  16.655  0.00  0.00    +0.000 A 
ATOM     16  C   UNL     1       5.087   6.062  16.728  0.00  0.00    +0.000 A 
ATOM     17  C   UNL     1       4.226   6.943  17.345  0.00  0.00    +0.000 A 
ATOM     18  O   UNL     1       6.279   6.384  16.156  0.00  0.00    +0.000 OA
ATOM     19  C   UNL     1       6.773   5.073  15.805  0.00  0.00    +0.000 C 
ATOM     20  O   UNL     1       5.813   4.021  16.038  0.00  0.00    +0.000 OA
ENDBRANCH   7  12
BRANCH   1  21
ATOM     21  C   UNL     1      -0.261  12.053  21.325  0.00  0.00    +0.000 C 
BRANCH  21  23
ATOM     22  C   UNL     1      -2.181  12.123  23.034  0.00  0.00    +0.000 C 
ATOM     23  C   UNL     1      -1.124  12.917  22.277  0.00  0.00    +0.000 C 
BRANCH  23  24
ATOM     24  O   UNL     1      -0.265  13.555  23.230  0.00  0.00    +0.000 OA
ATOM     25  H   UNL     1       0.605  13.672  22.813  0.00  0.00    +0.000 HD
ENDBRANCH  23  24
ENDBRANCH  21  23
ENDBRANCH   1  21
TORSDOF 4
ENDMDL
MODEL 7
REMARK VINA RESULT:      -7.0      2.337      3.093
REMARK  Name = 
REMARK  6 active torsions:
REMARK  status: ('A' for Active; 'I' for Inactive)
REMARK    1  A    between atoms: C_1  and  C_2
REMARK    2  A    between atoms: C_2  and  O_3
REMARK    3  A    between atoms: C_2  and  C_4
REMARK    4  A    between atoms: C_4  and  N_5
REMARK    5  A    between atoms: N_11  and  C_12
REMARK    6  A    between atoms: C_21  and  C_22
REMARK                            x       y       z     vdW  Elec       q    Type
REMARK                         _______ _______ _______ _____ _____    ______ ____
ROOT
ATOM      1  N   UNL     1       4.747   4.123  18.108  0.00  0.00    +0.000 NA
ATOM      2  C   UNL     1       3.591   4.128  19.031  0.00  0.00    +0.000 C 
ATOM      3  C   UNL     1       3.262   5.495  19.654  0.00  0.00    +0.000 C 
ATOM      4  N   UNL     1       3.120   6.558  18.647  0.00  0.00    +0.000 N 
ATOM      5  C   UNL     1       2.348   7.644  19.088  0.00  0.00    +0.000 C 
ATOM      6  O   UNL     1       2.000   7.746  20.262  0.00  0.00    +0.000 OA
ATOM      7  N   UNL     1       1.909   8.466  18.078  0.00  0.00    +0.000 N 
ATOM      8  C   UNL     1       4.293   6.633  17.732  0.00  0.00    +0.000 C 
ATOM      9  C   UNL     1       4.264   7.639  16.580  0.00  0.00    +0.000 C 
ATOM     10  C   UNL     1       4.576   5.219  17.129  0.00  0.00    +0.000 C 
ATOM     11  H   UNL     1       2.001   8.073  17.157  0.00  0.00    +0.000 HD
ENDROOT
BRANCH   7  12
ATOM     12  C   UNL     1       1.025   9.564  18.179  0.00  0.00    +0.000 A 
ATOM     13  C   UNL     1       1.400  10.832  18.662  0.00  0.00    +0.000 A 
ATOM     14  C   UNL     1       0.454  11.851  18.830  0.00  0.00    +0.000 A 
ATOM     15  C   UNL     1      -0.855  11.571  18.507  0.00  0.00    +0.000 A 
ATOM     16  C   UNL     1      -1.221  10.349  17.996  0.00  0.00    +0.000 A 
ATOM     17  C   UNL     1      -0.308   9.336  17.804  0.00  0.00    +0.000 A 
ATOM     18  O   UNL     1      -2.556  10.275  17.746  0.00  0.00    +0.000 OA
ATOM     19  C   UNL     1      -2.997  11.555  18.249  0.00  0.00    +0.000 C 
ATOM     20  O   UNL     1      -1.909  12.415  18.650  0.00  0.00    +0.000 OA
ENDBRANCH   7  12
BRANCH   1  21
ATOM     21  C   UNL     1       6.046   4.218  18.791  0.00  0.00    +0.000 C 
BRANCH  21  23
ATOM     22  C   UNL     1       7.815   6.084  18.830  0.00  0.00    +0.000 C 
ATOM     23  C   UNL     1       7.169   4.963  18.027  0.00  0.00    +0.000 C 
BRANCH  23  24
ATOM     24  O   UNL     1       8.184   4.021  17.663  0.00  0.00    +0.000 OA
ATOM     25  H   UNL     1       9.041   4.381  17.951  0.00  0.00    +0.000 HD
ENDBRANCH  23  24
ENDBRANCH  21  23
ENDBRANCH   1  21
TORSDOF 4
ENDMDL
MODEL 8
REMARK VINA RESULT:      -7.0      1.786      2.419
REMARK  Name = 
REMARK  6 active torsions:
REMARK  status: ('A' for Active; 'I' for Inactive)
REMARK    1  A    between atoms: C_1  and  C_2
REMARK    2  A    between atoms: C_2  and  O_3
REMARK    3  A    between atoms: C_2  and  C_4
REMARK    4  A    between atoms: C_4  and  N_5
REMARK    5  A    between atoms: N_11  and  C_12
REMARK    6  A    between atoms: C_21  and  C_22
REMARK                            x       y       z     vdW  Elec       q    Type
REMARK                         _______ _______ _______ _____ _____    ______ ____
ROOT
ATOM      1  N   UNL     1       4.947   4.064  18.986  0.00  0.00    +0.000 NA
ATOM      2  C   UNL     1       5.268   5.439  18.545  0.00  0.00    +0.000 C 
ATOM      3  C   UNL     1       4.048   6.338  18.281  0.00  0.00    +0.000 C 
ATOM      4  N   UNL     1       3.110   6.369  19.413  0.00  0.00    +0.000 N 
ATOM      5  C   UNL     1       2.299   7.514  19.436  0.00  0.00    +0.000 C 
ATOM      6  O   UNL     1       2.274   8.297  18.489  0.00  0.00    +0.000 OA
ATOM      7  N   UNL     1       1.680   7.739  20.641  0.00  0.00    +0.000 N 
ATOM      8  C   UNL     1       2.707   5.003  19.853  0.00  0.00    +0.000 C 
ATOM      9  C   UNL     1       1.793   4.862  21.071  0.00  0.00    +0.000 C 
ATOM     10  C   UNL     1       3.985   4.139  20.108  0.00  0.00    +0.000 C 
ATOM     11  H   UNL     1       2.054   7.200  21.403  0.00  0.00    +0.000 HD
ENDROOT
BRANCH   7  12
ATOM     12  C   UNL     1       0.902   8.857  21.018  0.00  0.00    +0.000 A 
ATOM     13  C   UNL     1       0.609   9.196  22.353  0.00  0.00    +0.000 A 
ATOM     14  C   UNL     1      -0.250  10.260  22.658  0.00  0.00    +0.000 A 
ATOM     15  C   UNL     1      -0.796  10.964  21.608  0.00  0.00    +0.000 A 
ATOM     16  C   UNL     1      -0.482  10.665  20.304  0.00  0.00    +0.000 A 
ATOM     17  C   UNL     1       0.373   9.636  19.977  0.00  0.00    +0.000 A 
ATOM     18  O   UNL     1      -1.127  11.474  19.421  0.00  0.00    +0.000 OA
ATOM     19  C   UNL     1      -1.954  12.248  20.318  0.00  0.00    +0.000 C 
ATOM     20  O   UNL     1      -1.681  11.989  21.711  0.00  0.00    +0.000 OA
ENDBRANCH   7  12
BRANCH   1  21
ATOM     21  C   UNL     1       4.439   3.202  17.907  0.00  0.00    +0.000 C 
BRANCH  21  23
ATOM     22  C   UNL     1       2.200   1.963  17.662  0.00  0.00    +0.000 C 
ATOM     23  C   UNL     1       3.561   2.004  18.343  0.00  0.00    +0.000 C 
BRANCH  23  24
ATOM     24  O   UNL     1       4.256   0.788  18.045  0.00  0.00    +0.000 OA
ATOM     25  H   UNL     1       5.209   0.980  18.055  0.00  0.00    +0.000 HD
ENDBRANCH  23  24
ENDBRANCH  21  23
ENDBRANCH   1  21
TORSDOF 4
ENDMDL
MODEL 9
REMARK VINA RESULT:      -7.0      1.088      1.838
REMARK  Name = 
REMARK  6 active torsions:
REMARK  status: ('A' for Active; 'I' for Inactive)
REMARK    1  A    between atoms: C_1  and  C_2
REMARK    2  A    between atoms: C_2  and  O_3
REMARK    3  A    between atoms: C_2  and  C_4
REMARK    4  A    between atoms: C_4  and  N_5
REMARK    5  A    between atoms: N_11  and  C_12
REMARK    6  A    between atoms: C_21  and  C_22
REMARK                            x       y       z     vdW  Elec       q    Type
REMARK                         _______ _______ _______ _____ _____    ______ ____
ROOT
ATOM      1  N   UNL     1       5.645   5.185  17.892  0.00  0.00    +0.000 NA
ATOM      2  C   UNL     1       5.787   6.578  17.417  0.00  0.00    +0.000 C 
ATOM      3  C   UNL     1       4.465   7.289  17.083  0.00  0.00    +0.000 C 
ATOM      4  N   UNL     1       3.490   7.219  18.182  0.00  0.00    +0.000 N 
ATOM      5  C   UNL     1       2.527   8.239  18.140  0.00  0.00    +0.000 C 
ATOM      6  O   UNL     1       2.428   8.984  17.168  0.00  0.00    +0.000 OA
ATOM      7  N   UNL     1       1.838   8.409  19.317  0.00  0.00    +0.000 N 
ATOM      8  C   UNL     1       3.265   5.823  18.652  0.00  0.00    +0.000 C 
ATOM      9  C   UNL     1       2.334   5.589  19.844  0.00  0.00    +0.000 C 
ATOM     10  C   UNL     1       4.641   5.155  18.978  0.00  0.00    +0.000 C 
ATOM     11  H   UNL     1       2.254   7.949  20.108  0.00  0.00    +0.000 HD
ENDROOT
BRANCH   7  12
ATOM     12  C   UNL     1       0.898   9.416  19.631  0.00  0.00    +0.000 A 
ATOM     13  C   UNL     1       0.770  10.001  20.905  0.00  0.00    +0.000 A 
ATOM     14  C   UNL     1      -0.247  10.925  21.178  0.00  0.00    +0.000 A 
ATOM     15  C   UNL     1      -1.117  11.242  20.159  0.00  0.00    +0.000 A 
ATOM     16  C   UNL     1      -0.973  10.706  18.902  0.00  0.00    +0.000 A 
ATOM     17  C   UNL     1       0.029   9.809  18.601  0.00  0.00    +0.000 A 
ATOM     18  O   UNL     1      -1.933  11.144  18.043  0.00  0.00    +0.000 OA
ATOM     19  C   UNL     1      -2.749  11.938  18.931  0.00  0.00    +0.000 C 
ATOM     20  O   UNL     1      -2.185  12.075  20.253  0.00  0.00    +0.000 OA
ENDBRANCH   7  12
BRANCH   1  21
ATOM     21  C   UNL     1       5.303   4.231  16.826  0.00  0.00    +0.000 C 
BRANCH  21  23
ATOM     22  C   UNL     1       6.204   4.644  14.453  0.00  0.00    +0.000 C 
ATOM     23  C   UNL     1       6.413   3.938  15.786  0.00  0.00    +0.000 C 
BRANCH  23  24
ATOM     24  O   UNL     1       7.674   4.349  16.326  0.00  0.00    +0.000 OA
ATOM     25  H   UNL     1       7.581   5.269  16.630  0.00  0.00    +0.000 HD
ENDBRANCH  23  24
ENDBRANCH  21  23
ENDBRANCH   1  21
TORSDOF 4
ENDMDL
