MODEL 1
REMARK VINA RESULT:      -8.0      0.000      0.000
REMARK  Name = 
REMARK  8 active torsions:
REMARK  status: ('A' for Active; 'I' for Inactive)
REMARK    1  A    between atoms: C_6  and  C_7
REMARK    2  A    between atoms: C_10  and  O_11
REMARK    3  A    between atoms: O_11  and  C_12
REMARK    4  A    between atoms: C_12  and  C_13
REMARK    5  A    between atoms: N_20  and  C1*_21
REMARK    6  A    between atoms: C3*_23  and  O3*_24
REMARK    7  A    between atoms: C4*_25  and  C5*_26
REMARK    8  A    between atoms: C5*_26  and  O5*_27
REMARK                            x       y       z     vdW  Elec       q    Type
REMARK                         _______ _______ _______ _____ _____    ______ ____
ROOT
ATOM      1  O   UNL     1       3.279   2.944  20.114  0.00  0.00    +0.000 OA
ATOM      2  C   UNL     1       3.029   4.136  19.962  0.00  0.00    +0.000 A 
ATOM      3  N   UNL     1       2.163   4.792  20.819  0.00  0.00    +0.000 NA
ATOM      4  C   UNL     1       1.945   6.027  20.571  0.00  0.00    +0.000 A 
ATOM      5  O   UNL     1       1.125   6.849  21.309  0.00  0.00    +0.000 OA
ATOM      6  C   UNL     1       1.195   8.107  20.651  0.00  0.00    +0.000 A 
ATOM      7  C   UNL     1       1.976   8.142  19.567  0.00  0.00    +0.000 A 
ATOM      8  C   UNL     1       2.487   6.829  19.479  0.00  0.00    +0.000 A 
ATOM      9  C   UNL     1       3.319   6.195  18.670  0.00  0.00    +0.000 A 
ATOM     10  N   UNL     1       3.627   4.865  18.910  0.00  0.00    +0.000 N 
ENDROOT
BRANCH   6  11
ATOM     11  C   UNL     1       0.376   9.201  21.179  0.00  0.00    +0.000 A 
ATOM     12  C   UNL     1       0.002  10.236  20.326  0.00  0.00    +0.000 A 
ATOM     13  C   UNL     1      -0.759  11.304  20.790  0.00  0.00    +0.000 A 
ATOM     14  C   UNL     1      -1.172  11.373  22.121  0.00  0.00    +0.000 A 
ATOM     15  C   UNL     1      -0.813  10.333  22.986  0.00  0.00    +0.000 A 
ATOM     16  C   UNL     1      -0.049   9.258  22.518  0.00  0.00    +0.000 A 
BRANCH  14  17
ATOM     17  O   UNL     1      -1.916  12.406  22.643  0.00  0.00    +0.000 OA
BRANCH  17  18
ATOM     18  C   UNL     1      -2.824  12.002  23.678  0.00  0.00    +0.000 C 
BRANCH  18  19
ATOM     19  C   UNL     1      -4.122  12.775  23.638  0.00  0.00    +0.000 C 
ATOM     20  F   UNL     1      -4.824  12.490  24.770  0.00  0.00    +0.000 F 
ENDBRANCH  18  19
ENDBRANCH  17  18
ENDBRANCH  14  17
ENDBRANCH   6  11
BRANCH  10  21
ATOM     21  C1* UNL     1       4.592   4.169  18.068  0.00  0.00    +0.000 C 
ATOM     22  C2* UNL     1       4.664   4.679  16.635  0.00  0.00    +0.000 C 
ATOM     23  C3* UNL     1       6.088   4.344  16.247  0.00  0.00    +0.000 C 
ATOM     24  C4* UNL     1       6.863   4.521  17.550  0.00  0.00    +0.000 C 
ATOM     25  O4* UNL     1       5.920   4.307  18.626  0.00  0.00    +0.000 OA
BRANCH  23  26
ATOM     26  O3* UNL     1       6.151   2.993  15.787  0.00  0.00    +0.000 OA
ATOM     27  H3* UNL     1       5.864   2.391  16.496  0.00  0.00    +0.000 HD
ENDBRANCH  23  26
BRANCH  24  28
ATOM     28  C5* UNL     1       7.451   5.930  17.692  0.00  0.00    +0.000 C 
BRANCH  28  29
ATOM     29  O5* UNL     1       7.584   6.558  16.418  0.00  0.00    +0.000 OA
ATOM     30  H5* UNL     1       6.733   6.992  16.225  0.00  0.00    +0.000 HD
ENDBRANCH  28  29
ENDBRANCH  24  28
ENDBRANCH  10  21
TORSDOF 8
ENDMDL
MODEL 2
REMARK VINA RESULT:      -7.8      4.098      9.899
REMARK  Name = 
REMARK  8 active torsions:
REMARK  status: ('A' for Active; 'I' for Inactive)
REMARK    1  A    between atoms: C_6  and  C_7
REMARK    2  A    between atoms: C_10  and  O_11
REMARK    3  A    between atoms: O_11  and  C_12
REMARK    4  A    between atoms: C_12  and  C_13
REMARK    5  A    between atoms: N_20  and  C1*_21
REMARK    6  A    between atoms: C3*_23  and  O3*_24
REMARK    7  A    between atoms: C4*_25  and  C5*_26
REMARK    8  A    between atoms: C5*_26  and  O5*_27
REMARK                            x       y       z     vdW  Elec       q    Type
REMARK                         _______ _______ _______ _____ _____    ______ ____
ROOT
ATOM      1  O   UNL     1       0.237   9.159  22.578  0.00  0.00    +0.000 OA
ATOM      2  C   UNL     1       0.714   8.978  21.462  0.00  0.00    +0.000 A 
ATOM      3  N   UNL     1       1.435   7.830  21.178  0.00  0.00    +0.000 NA
ATOM      4  C   UNL     1       1.914   7.739  19.997  0.00  0.00    +0.000 A 
ATOM      5  O   UNL     1       2.649   6.676  19.523  0.00  0.00    +0.000 OA
ATOM      6  C   UNL     1       2.961   7.029  18.182  0.00  0.00    +0.000 A 
ATOM      7  C   UNL     1       2.496   8.215  17.780  0.00  0.00    +0.000 A 
ATOM      8  C   UNL     1       1.808   8.707  18.911  0.00  0.00    +0.000 A 
ATOM      9  C   UNL     1       1.113   9.796  19.190  0.00  0.00    +0.000 A 
ATOM     10  N   UNL     1       0.534   9.937  20.441  0.00  0.00    +0.000 N 
ENDROOT
BRANCH   6  11
ATOM     11  C   UNL     1       3.793   6.104  17.408  0.00  0.00    +0.000 A 
ATOM     12  C   UNL     1       4.769   6.623  16.561  0.00  0.00    +0.000 A 
ATOM     13  C   UNL     1       5.569   5.782  15.794  0.00  0.00    +0.000 A 
ATOM     14  C   UNL     1       5.421   4.395  15.848  0.00  0.00    +0.000 A 
ATOM     15  C   UNL     1       4.451   3.861  16.705  0.00  0.00    +0.000 A 
ATOM     16  C   UNL     1       3.649   4.707  17.478  0.00  0.00    +0.000 A 
BRANCH  14  17
ATOM     17  O   UNL     1       6.172   3.512  15.107  0.00  0.00    +0.000 OA
BRANCH  17  18
ATOM     18  C   UNL     1       6.716   4.078  13.907  0.00  0.00    +0.000 C 
BRANCH  18  19
ATOM     19  C   UNL     1       6.073   3.512  12.661  0.00  0.00    +0.000 C 
ATOM     20  F   UNL     1       4.735   3.768  12.717  0.00  0.00    +0.000 F 
ENDBRANCH  18  19
ENDBRANCH  17  18
ENDBRANCH  14  17
ENDBRANCH   6  11
BRANCH  10  21
ATOM     21  C1* UNL     1      -0.292  11.100  20.744  0.00  0.00    +0.000 C 
ATOM     22  C2* UNL     1       0.249  12.416  20.202  0.00  0.00    +0.000 C 
ATOM     23  C3* UNL     1      -1.015  13.230  20.021  0.00  0.00    +0.000 C 
ATOM     24  C4* UNL     1      -2.057  12.188  19.626  0.00  0.00    +0.000 C 
ATOM     25  O4* UNL     1      -1.611  10.927  20.177  0.00  0.00    +0.000 OA
BRANCH  23  26
ATOM     26  O3* UNL     1      -1.355  13.861  21.257  0.00  0.00    +0.000 OA
ATOM     27  H3* UNL     1      -1.895  13.256  21.796  0.00  0.00    +0.000 HD
ENDBRANCH  23  26
BRANCH  24  28
ATOM     28  C5* UNL     1      -2.182  12.037  18.105  0.00  0.00    +0.000 C 
BRANCH  28  29
ATOM     29  O5* UNL     1      -1.174  12.790  17.433  0.00  0.00    +0.000 OA
ATOM     30  H5* UNL     1      -0.753  12.189  16.790  0.00  0.00    +0.000 HD
ENDBRANCH  28  29
ENDBRANCH  24  28
ENDBRANCH  10  21
TORSDOF 8
ENDMDL
MODEL 3
REMARK VINA RESULT:      -7.7      1.096      1.492
REMARK  Name = 
REMARK  8 active torsions:
REMARK  status: ('A' for Active; 'I' for Inactive)
REMARK    1  A    between atoms: C_6  and  C_7
REMARK    2  A    between atoms: C_10  and  O_11
REMARK    3  A    between atoms: O_11  and  C_12
REMARK    4  A    between atoms: C_12  and  C_13
REMARK    5  A    between atoms: N_20  and  C1*_21
REMARK    6  A    between atoms: C3*_23  and  O3*_24
REMARK    7  A    between atoms: C4*_25  and  C5*_26
REMARK    8  A    between atoms: C5*_26  and  O5*_27
REMARK                            x       y       z     vdW  Elec       q    Type
REMARK                         _______ _______ _______ _____ _____    ______ ____
ROOT
ATOM      1  O   UNL     1       3.283   3.063  20.229  0.00  0.00    +0.000 OA
ATOM      2  C   UNL     1       3.019   4.247  20.040  0.00  0.00    +0.000 A 
ATOM      3  N   UNL     1       2.159   4.924  20.887  0.00  0.00    +0.000 NA
ATOM      4  C   UNL     1       1.924   6.147  20.599  0.00  0.00    +0.000 A 
ATOM      5  O   UNL     1       1.107   6.986  21.321  0.00  0.00    +0.000 OA
ATOM      6  C   UNL     1       1.154   8.221  20.618  0.00  0.00    +0.000 A 
ATOM      7  C   UNL     1       1.918   8.226  19.522  0.00  0.00    +0.000 A 
ATOM      8  C   UNL     1       2.442   6.915  19.472  0.00  0.00    +0.000 A 
ATOM      9  C   UNL     1       3.268   6.262  18.673  0.00  0.00    +0.000 A 
ATOM     10  N   UNL     1       3.593   4.944  18.954  0.00  0.00    +0.000 N 
ENDROOT
BRANCH   6  11
ATOM     11  C   UNL     1       0.332   9.325  21.121  0.00  0.00    +0.000 A 
ATOM     12  C   UNL     1      -0.005   9.354  22.471  0.00  0.00    +0.000 A 
ATOM     13  C   UNL     1      -0.800  10.373  22.987  0.00  0.00    +0.000 A 
ATOM     14  C   UNL     1      -1.283  11.396  22.170  0.00  0.00    +0.000 A 
ATOM     15  C   UNL     1      -0.942  11.385  20.813  0.00  0.00    +0.000 A 
ATOM     16  C   UNL     1      -0.141  10.360  20.296  0.00  0.00    +0.000 A 
BRANCH  14  17
ATOM     17  O   UNL     1      -2.082  12.425  22.616  0.00  0.00    +0.000 OA
BRANCH  17  18
ATOM     18  C   UNL     1      -1.680  13.718  22.142  0.00  0.00    +0.000 C 
BRANCH  18  19
ATOM     19  C   UNL     1      -0.647  14.363  23.038  0.00  0.00    +0.000 C 
ATOM     20  F   UNL     1      -1.084  14.274  24.326  0.00  0.00    +0.000 F 
ENDBRANCH  18  19
ENDBRANCH  17  18
ENDBRANCH  14  17
ENDBRANCH   6  11
BRANCH  10  21
ATOM     21  C1* UNL     1       4.552   4.229  18.122  0.00  0.00    +0.000 C 
ATOM     22  C2* UNL     1       4.577   4.670  16.665  0.00  0.00    +0.000 C 
ATOM     23  C3* UNL     1       5.998   4.346  16.257  0.00  0.00    +0.000 C 
ATOM     24  C4* UNL     1       6.801   4.603  17.529  0.00  0.00    +0.000 C 
ATOM     25  O4* UNL     1       5.889   4.421  18.638  0.00  0.00    +0.000 OA
BRANCH  23  26
ATOM     26  O3* UNL     1       6.080   2.976  15.860  0.00  0.00    +0.000 OA
ATOM     27  H3* UNL     1       6.980   2.642  16.018  0.00  0.00    +0.000 HD
ENDBRANCH  23  26
BRANCH  24  28
ATOM     28  C5* UNL     1       7.360   6.029  17.588  0.00  0.00    +0.000 C 
BRANCH  28  29
ATOM     29  O5* UNL     1       7.666   6.512  16.281  0.00  0.00    +0.000 OA
ATOM     30  H5* UNL     1       8.629   6.417  16.161  0.00  0.00    +0.000 HD
ENDBRANCH  28  29
ENDBRANCH  24  28
ENDBRANCH  10  21
TORSDOF 8
ENDMDL
MODEL 4
REMARK VINA RESULT:      -7.7      0.828      1.301
REMARK  Name = 
REMARK  8 active torsions:
REMARK  status: ('A' for Active; 'I' for Inactive)
REMARK    1  A    between atoms: C_6  and  C_7
REMARK    2  A    between atoms: C_10  and  O_11
REMARK    3  A    between atoms: O_11  and  C_12
REMARK    4  A    between atoms: C_12  and  C_13
REMARK    5  A    between atoms: N_20  and  C1*_21
REMARK    6  A    between atoms: C3*_23  and  O3*_24
REMARK    7  A    between atoms: C4*_25  and  C5*_26
REMARK    8  A    between atoms: C5*_26  and  O5*_27
REMARK                            x       y       z     vdW  Elec       q    Type
REMARK                         _______ _______ _______ _____ _____    ______ ____
ROOT
ATOM      1  O   UNL     1       3.265   3.416  20.225  0.00  0.00    +0.000 OA
ATOM      2  C   UNL     1       2.990   4.595  20.023  0.00  0.00    +0.000 A 
ATOM      3  N   UNL     1       2.082   5.258  20.831  0.00  0.00    +0.000 NA
ATOM      4  C   UNL     1       1.839   6.476  20.532  0.00  0.00    +0.000 A 
ATOM      5  O   UNL     1       0.977   7.302  21.216  0.00  0.00    +0.000 OA
ATOM      6  C   UNL     1       1.035   8.538  20.515  0.00  0.00    +0.000 A 
ATOM      7  C   UNL     1       1.847   8.555  19.454  0.00  0.00    +0.000 A 
ATOM      8  C   UNL     1       2.394   7.254  19.428  0.00  0.00    +0.000 A 
ATOM      9  C   UNL     1       3.265   6.614  18.667  0.00  0.00    +0.000 A 
ATOM     10  N   UNL     1       3.599   5.302  18.964  0.00  0.00    +0.000 N 
ENDROOT
BRANCH   6  11
ATOM     11  C   UNL     1       0.173   9.627  20.980  0.00  0.00    +0.000 A 
ATOM     12  C   UNL     1      -0.139   9.710  22.334  0.00  0.00    +0.000 A 
ATOM     13  C   UNL     1      -0.969  10.717  22.816  0.00  0.00    +0.000 A 
ATOM     14  C   UNL     1      -1.516  11.675  21.960  0.00  0.00    +0.000 A 
ATOM     15  C   UNL     1      -1.201  11.609  20.597  0.00  0.00    +0.000 A 
ATOM     16  C   UNL     1      -0.363  10.597  20.115  0.00  0.00    +0.000 A 
BRANCH  14  17
ATOM     17  O   UNL     1      -2.351  12.687  22.372  0.00  0.00    +0.000 OA
BRANCH  17  18
ATOM     18  C   UNL     1      -2.706  12.617  23.760  0.00  0.00    +0.000 C 
BRANCH  18  19
ATOM     19  C   UNL     1      -4.186  12.828  23.986  0.00  0.00    +0.000 C 
ATOM     20  F   UNL     1      -4.605  11.936  24.927  0.00  0.00    +0.000 F 
ENDBRANCH  18  19
ENDBRANCH  17  18
ENDBRANCH  14  17
ENDBRANCH   6  11
BRANCH  10  21
ATOM     21  C1* UNL     1       4.607   4.603  18.176  0.00  0.00    +0.000 C 
ATOM     22  C2* UNL     1       5.100   5.370  16.957  0.00  0.00    +0.000 C 
ATOM     23  C3* UNL     1       6.499   4.821  16.777  0.00  0.00    +0.000 C 
ATOM     24  C4* UNL     1       6.962   4.552  18.206  0.00  0.00    +0.000 C 
ATOM     25  O4* UNL     1       5.768   4.330  18.993  0.00  0.00    +0.000 OA
BRANCH  23  26
ATOM     26  O3* UNL     1       6.443   3.615  16.015  0.00  0.00    +0.000 OA
ATOM     27  H3* UNL     1       7.200   3.047  16.243  0.00  0.00    +0.000 HD
ENDBRANCH  23  26
BRANCH  24  28
ATOM     28  C5* UNL     1       7.725   5.739  18.805  0.00  0.00    +0.000 C 
BRANCH  28  29
ATOM     29  O5* UNL     1       7.848   5.605  20.221  0.00  0.00    +0.000 OA
ATOM     30  H5* UNL     1       7.106   5.047  20.518  0.00  0.00    +0.000 HD
ENDBRANCH  28  29
ENDBRANCH  24  28
ENDBRANCH  10  21
TORSDOF 8
ENDMDL
MODEL 5
REMARK VINA RESULT:      -7.6      1.168      1.168
REMARK  Name = 
REMARK  8 active torsions:
REMARK  status: ('A' for Active; 'I' for Inactive)
REMARK    1  A    between atoms: C_6  and  C_7
REMARK    2  A    between atoms: C_10  and  O_11
REMARK    3  A    between atoms: O_11  and  C_12
REMARK    4  A    between atoms: C_12  and  C_13
REMARK    5  A    between atoms: N_20  and  C1*_21
REMARK    6  A    between atoms: C3*_23  and  O3*_24
REMARK    7  A    between atoms: C4*_25  and  C5*_26
REMARK    8  A    between atoms: C5*_26  and  O5*_27
REMARK                            x       y       z     vdW  Elec       q    Type
REMARK                         _______ _______ _______ _____ _____    ______ ____
ROOT
ATOM      1  O   UNL     1       2.930   2.912  19.881  0.00  0.00    +0.000 OA
ATOM      2  C   UNL     1       2.769   4.128  19.830  0.00  0.00    +0.000 A 
ATOM      3  N   UNL     1       1.888   4.761  20.690  0.00  0.00    +0.000 NA
ATOM      4  C   UNL     1       1.768   6.026  20.549  0.00  0.00    +0.000 A 
ATOM      5  O   UNL     1       0.952   6.832  21.310  0.00  0.00    +0.000 OA
ATOM      6  C   UNL     1       1.151   8.137  20.784  0.00  0.00    +0.000 A 
ATOM      7  C   UNL     1       2.008   8.217  19.762  0.00  0.00    +0.000 A 
ATOM      8  C   UNL     1       2.438   6.885  19.579  0.00  0.00    +0.000 A 
ATOM      9  C   UNL     1       3.283   6.272  18.768  0.00  0.00    +0.000 A 
ATOM     10  N   UNL     1       3.486   4.907  18.896  0.00  0.00    +0.000 N 
ENDROOT
BRANCH   6  11
ATOM     11  C   UNL     1       0.368   9.233  21.362  0.00  0.00    +0.000 A 
ATOM     12  C   UNL     1       0.133  10.371  20.595  0.00  0.00    +0.000 A 
ATOM     13  C   UNL     1      -0.589  11.443  21.110  0.00  0.00    +0.000 A 
ATOM     14  C   UNL     1      -1.099  11.413  22.409  0.00  0.00    +0.000 A 
ATOM     15  C   UNL     1      -0.879  10.269  23.186  0.00  0.00    +0.000 A 
ATOM     16  C   UNL     1      -0.155   9.191  22.666  0.00  0.00    +0.000 A 
BRANCH  14  17
ATOM     17  O   UNL     1      -1.810  12.443  22.981  0.00  0.00    +0.000 OA
BRANCH  17  18
ATOM     18  C   UNL     1      -2.539  13.238  22.035  0.00  0.00    +0.000 C 
BRANCH  18  19
ATOM     19  C   UNL     1      -3.981  12.802  21.909  0.00  0.00    +0.000 C 
ATOM     20  F   UNL     1      -4.173  12.322  20.648  0.00  0.00    +0.000 F 
ENDBRANCH  18  19
ENDBRANCH  17  18
ENDBRANCH  14  17
ENDBRANCH   6  11
BRANCH  10  21
ATOM     21  C1* UNL     1       4.462   4.225  18.055  0.00  0.00    +0.000 C 
ATOM     22  C2* UNL     1       4.763   4.929  16.739  0.00  0.00    +0.000 C 
ATOM     23  C3* UNL     1       6.177   4.475  16.448  0.00  0.00    +0.000 C 
ATOM     24  C4* UNL     1       6.804   4.354  17.834  0.00  0.00    +0.000 C 
ATOM     25  O4* UNL     1       5.720   4.106  18.759  0.00  0.00    +0.000 OA
BRANCH  23  26
ATOM     26  O3* UNL     1       6.144   3.211  15.783  0.00  0.00    +0.000 OA
ATOM     27  H3* UNL     1       6.825   2.625  16.157  0.00  0.00    +0.000 HD
ENDBRANCH  23  26
BRANCH  24  28
ATOM     28  C5* UNL     1       7.524   5.638  18.262  0.00  0.00    +0.000 C 
BRANCH  28  29
ATOM     29  O5* UNL     1       7.835   5.609  19.654  0.00  0.00    +0.000 OA
ATOM     30  H5* UNL     1       7.728   4.686  19.950  0.00  0.00    +0.000 HD
ENDBRANCH  28  29
ENDBRANCH  24  28
ENDBRANCH  10  21
TORSDOF 8
ENDMDL
MODEL 6
REMARK VINA RESULT:      -7.5      1.215      1.245
REMARK  Name = 
REMARK  8 active torsions:
REMARK  status: ('A' for Active; 'I' for Inactive)
REMARK    1  A    between atoms: C_6  and  C_7
REMARK    2  A    between atoms: C_10  and  O_11
REMARK    3  A    between atoms: O_11  and  C_12
REMARK    4  A    between atoms: C_12  and  C_13
REMARK    5  A    between atoms: N_20  and  C1*_21
REMARK    6  A    between atoms: C3*_23  and  O3*_24
REMARK    7  A    between atoms: C4*_25  and  C5*_26
REMARK    8  A    between atoms: C5*_26  and  O5*_27
REMARK                            x       y       z     vdW  Elec       q    Type
REMARK                         _______ _______ _______ _____ _____    ______ ____
ROOT
ATOM      1  O   UNL     1       3.255   3.244  20.278  0.00  0.00    +0.000 OA
ATOM      2  C   UNL     1       2.996   4.416  20.020  0.00  0.00    +0.000 A 
ATOM      3  N   UNL     1       2.139   5.144  20.827  0.00  0.00    +0.000 NA
ATOM      4  C   UNL     1       1.909   6.349  20.468  0.00  0.00    +0.000 A 
ATOM      5  O   UNL     1       1.095   7.232  21.140  0.00  0.00    +0.000 OA
ATOM      6  C   UNL     1       1.147   8.424  20.367  0.00  0.00    +0.000 A 
ATOM      7  C   UNL     1       1.912   8.362  19.273  0.00  0.00    +0.000 A 
ATOM      8  C   UNL     1       2.430   7.049  19.299  0.00  0.00    +0.000 A 
ATOM      9  C   UNL     1       3.254   6.347  18.540  0.00  0.00    +0.000 A 
ATOM     10  N   UNL     1       3.574   5.047  18.897  0.00  0.00    +0.000 N 
ENDROOT
BRANCH   6  11
ATOM     11  C   UNL     1       0.329   9.558  20.804  0.00  0.00    +0.000 A 
ATOM     12  C   UNL     1      -0.250  10.382  19.842  0.00  0.00    +0.000 A 
ATOM     13  C   UNL     1      -1.018  11.481  20.213  0.00  0.00    +0.000 A 
ATOM     14  C   UNL     1      -1.234  11.793  21.556  0.00  0.00    +0.000 A 
ATOM     15  C   UNL     1      -0.667  10.965  22.532  0.00  0.00    +0.000 A 
ATOM     16  C   UNL     1       0.104   9.859  22.159  0.00  0.00    +0.000 A 
BRANCH  14  17
ATOM     17  O   UNL     1      -1.973  12.870  21.986  0.00  0.00    +0.000 OA
BRANCH  17  18
ATOM     18  C   UNL     1      -1.981  13.036  23.412  0.00  0.00    +0.000 C 
BRANCH  18  19
ATOM     19  C   UNL     1      -1.496  14.404  23.834  0.00  0.00    +0.000 C 
ATOM     20  F   UNL     1      -0.289  14.630  23.242  0.00  0.00    +0.000 F 
ENDBRANCH  18  19
ENDBRANCH  17  18
ENDBRANCH  14  17
ENDBRANCH   6  11
BRANCH  10  21
ATOM     21  C1* UNL     1       4.531   4.281  18.108  0.00  0.00    +0.000 C 
ATOM     22  C2* UNL     1       4.630   4.704  16.649  0.00  0.00    +0.000 C 
ATOM     23  C3* UNL     1       6.050   4.314  16.299  0.00  0.00    +0.000 C 
ATOM     24  C4* UNL     1       6.815   4.549  17.598  0.00  0.00    +0.000 C 
ATOM     25  O4* UNL     1       5.855   4.420  18.673  0.00  0.00    +0.000 OA
BRANCH  23  26
ATOM     26  O3* UNL     1       6.085   2.938  15.918  0.00  0.00    +0.000 OA
ATOM     27  H3* UNL     1       6.975   2.709  15.596  0.00  0.00    +0.000 HD
ENDBRANCH  23  26
BRANCH  24  28
ATOM     28  C5* UNL     1       7.435   5.949  17.665  0.00  0.00    +0.000 C 
BRANCH  28  29
ATOM     29  O5* UNL     1       7.585   6.504  16.359  0.00  0.00    +0.000 OA
ATOM     30  H5* UNL     1       7.375   5.795  15.724  0.00  0.00    +0.000 HD
ENDBRANCH  28  29
ENDBRANCH  24  28
ENDBRANCH  10  21
TORSDOF 8
ENDMDL
MODEL 7
REMARK VINA RESULT:      -7.4      1.181      1.568
REMARK  Name = 
REMARK  8 active torsions:
REMARK  status: ('A' for Active; 'I' for Inactive)
REMARK    1  A    between atoms: C_6  and  C_7
REMARK    2  A    between atoms: C_10  and  O_11
REMARK    3  A    between atoms: O_11  and  C_12
REMARK    4  A    between atoms: C_12  and  C_13
REMARK    5  A    between atoms: N_20  and  C1*_21
REMARK    6  A    between atoms: C3*_23  and  O3*_24
REMARK    7  A    between atoms: C4*_25  and  C5*_26
REMARK    8  A    between atoms: C5*_26  and  O5*_27
REMARK                            x       y       z     vdW  Elec       q    Type
REMARK                         _______ _______ _______ _____ _____    ______ ____
ROOT
ATOM      1  O   UNL     1       3.262   3.268  20.126  0.00  0.00    +0.000 OA
ATOM      2  C   UNL     1       2.995   4.458  19.992  0.00  0.00    +0.000 A 
ATOM      3  N   UNL     1       2.093   5.081  20.838  0.00  0.00    +0.000 NA
ATOM      4  C   UNL     1       1.859   6.316  20.608  0.00  0.00    +0.000 A 
ATOM      5  O   UNL     1       1.003   7.108  21.339  0.00  0.00    +0.000 OA
ATOM      6  C   UNL     1       1.069   8.380  20.709  0.00  0.00    +0.000 A 
ATOM      7  C   UNL     1       1.880   8.452  19.650  0.00  0.00    +0.000 A 
ATOM      8  C   UNL     1       2.417   7.150  19.550  0.00  0.00    +0.000 A 
ATOM      9  C   UNL     1       3.283   6.549  18.752  0.00  0.00    +0.000 A 
ATOM     10  N   UNL     1       3.609   5.220  18.973  0.00  0.00    +0.000 N 
ENDROOT
BRANCH   6  11
ATOM     11  C   UNL     1       0.215   9.448  21.236  0.00  0.00    +0.000 A 
ATOM     12  C   UNL     1      -0.099   9.453  22.593  0.00  0.00    +0.000 A 
ATOM     13  C   UNL     1      -0.922  10.437  23.131  0.00  0.00    +0.000 A 
ATOM     14  C   UNL     1      -1.458  11.449  22.332  0.00  0.00    +0.000 A 
ATOM     15  C   UNL     1      -1.140  11.461  20.969  0.00  0.00    +0.000 A 
ATOM     16  C   UNL     1      -0.310  10.472  20.429  0.00  0.00    +0.000 A 
BRANCH  14  17
ATOM     17  O   UNL     1      -2.286  12.442  22.802  0.00  0.00    +0.000 OA
BRANCH  17  18
ATOM     18  C   UNL     1      -2.027  13.732  22.228  0.00  0.00    +0.000 C 
BRANCH  18  19
ATOM     19  C   UNL     1      -3.258  14.334  21.589  0.00  0.00    +0.000 C 
ATOM     20  F   UNL     1      -4.194  13.352  21.459  0.00  0.00    +0.000 F 
ENDBRANCH  18  19
ENDBRANCH  17  18
ENDBRANCH  14  17
ENDBRANCH   6  11
BRANCH  10  21
ATOM     21  C1* UNL     1       4.610   4.559  18.145  0.00  0.00    +0.000 C 
ATOM     22  C2* UNL     1       5.069   5.370  16.942  0.00  0.00    +0.000 C 
ATOM     23  C3* UNL     1       6.472   4.847  16.720  0.00  0.00    +0.000 C 
ATOM     24  C4* UNL     1       6.966   4.540  18.131  0.00  0.00    +0.000 C 
ATOM     25  O4* UNL     1       5.790   4.278  18.933  0.00  0.00    +0.000 OA
BRANCH  23  26
ATOM     26  O3* UNL     1       6.418   3.663  15.921  0.00  0.00    +0.000 OA
ATOM     27  H3* UNL     1       6.829   3.832  15.055  0.00  0.00    +0.000 HD
ENDBRANCH  23  26
BRANCH  24  28
ATOM     28  C5* UNL     1       7.724   5.719  18.752  0.00  0.00    +0.000 C 
BRANCH  28  29
ATOM     29  O5* UNL     1       7.839   5.564  20.165  0.00  0.00    +0.000 OA
ATOM     30  H5* UNL     1       8.710   5.920  20.420  0.00  0.00    +0.000 HD
ENDBRANCH  28  29
ENDBRANCH  24  28
ENDBRANCH  10  21
TORSDOF 8
ENDMDL
MODEL 8
REMARK VINA RESULT:      -7.4      4.022     10.100
REMARK  Name = 
REMARK  8 active torsions:
REMARK  status: ('A' for Active; 'I' for Inactive)
REMARK    1  A    between atoms: C_6  and  C_7
REMARK    2  A    between atoms: C_10  and  O_11
REMARK    3  A    between atoms: O_11  and  C_12
REMARK    4  A    between atoms: C_12  and  C_13
REMARK    5  A    between atoms: N_20  and  C1*_21
REMARK    6  A    between atoms: C3*_23  and  O3*_24
REMARK    7  A    between atoms: C4*_25  and  C5*_26
REMARK    8  A    between atoms: C5*_26  and  O5*_27
REMARK                            x       y       z     vdW  Elec       q    Type
REMARK                         _______ _______ _______ _____ _____    ______ ____
ROOT
ATOM      1  O   UNL     1      -0.029  10.192  23.330  0.00  0.00    +0.000 OA
ATOM      2  C   UNL     1       0.349   9.915  22.196  0.00  0.00    +0.000 A 
ATOM      3  N   UNL     1       1.027   8.734  21.946  0.00  0.00    +0.000 NA
ATOM      4  C   UNL     1       1.402   8.540  20.740  0.00  0.00    +0.000 A 
ATOM      5  O   UNL     1       2.079   7.429  20.292  0.00  0.00    +0.000 OA
ATOM      6  C   UNL     1       2.279   7.668  18.905  0.00  0.00    +0.000 A 
ATOM      7  C   UNL     1       1.797   8.829  18.450  0.00  0.00    +0.000 A 
ATOM      8  C   UNL     1       1.216   9.422  19.592  0.00  0.00    +0.000 A 
ATOM      9  C   UNL     1       0.561  10.543  19.840  0.00  0.00    +0.000 A 
ATOM     10  N   UNL     1       0.093  10.793  21.121  0.00  0.00    +0.000 N 
ENDROOT
BRANCH   6  11
ATOM     11  C   UNL     1       3.030   6.669  18.141  0.00  0.00    +0.000 A 
ATOM     12  C   UNL     1       2.600   5.345  18.156  0.00  0.00    +0.000 A 
ATOM     13  C   UNL     1       3.294   4.360  17.460  0.00  0.00    +0.000 A 
ATOM     14  C   UNL     1       4.440   4.666  16.725  0.00  0.00    +0.000 A 
ATOM     15  C   UNL     1       4.876   5.996  16.692  0.00  0.00    +0.000 A 
ATOM     16  C   UNL     1       4.176   6.986  17.391  0.00  0.00    +0.000 A 
BRANCH  14  17
ATOM     17  O   UNL     1       5.177   3.738  16.026  0.00  0.00    +0.000 OA
BRANCH  17  18
ATOM     18  C   UNL     1       6.262   4.303  15.277  0.00  0.00    +0.000 C 
BRANCH  18  19
ATOM     19  C   UNL     1       6.258   3.856  13.833  0.00  0.00    +0.000 C 
ATOM     20  F   UNL     1       4.997   4.016  13.340  0.00  0.00    +0.000 F 
ENDBRANCH  18  19
ENDBRANCH  17  18
ENDBRANCH  14  17
ENDBRANCH   6  11
BRANCH  10  21
ATOM     21  C1* UNL     1      -0.688  11.993  21.398  0.00  0.00    +0.000 C 
ATOM     22  C2* UNL     1      -0.449  13.140  20.426  0.00  0.00    +0.000 C 
ATOM     23  C3* UNL     1      -1.767  13.883  20.479  0.00  0.00    +0.000 C 
ATOM     24  C4* UNL     1      -2.793  12.773  20.687  0.00  0.00    +0.000 C 
ATOM     25  O4* UNL     1      -2.099  11.684  21.339  0.00  0.00    +0.000 OA
BRANCH  23  26
ATOM     26  O3* UNL     1      -1.757  14.793  21.581  0.00  0.00    +0.000 OA
ATOM     27  H3* UNL     1      -0.908  14.728  22.052  0.00  0.00    +0.000 HD
ENDBRANCH  23  26
BRANCH  24  28
ATOM     28  C5* UNL     1      -3.372  12.258  19.364  0.00  0.00    +0.000 C 
BRANCH  28  29
ATOM     29  O5* UNL     1      -4.627  12.875  19.081  0.00  0.00    +0.000 OA
ATOM     30  H5* UNL     1      -5.259  12.552  19.750  0.00  0.00    +0.000 HD
ENDBRANCH  28  29
ENDBRANCH  24  28
ENDBRANCH  10  21
TORSDOF 8
ENDMDL
MODEL 9
REMARK VINA RESULT:      -7.4      4.207      9.951
REMARK  Name = 
REMARK  8 active torsions:
REMARK  status: ('A' for Active; 'I' for Inactive)
REMARK    1  A    between atoms: C_6  and  C_7
REMARK    2  A    between atoms: C_10  and  O_11
REMARK    3  A    between atoms: O_11  and  C_12
REMARK    4  A    between atoms: C_12  and  C_13
REMARK    5  A    between atoms: N_20  and  C1*_21
REMARK    6  A    between atoms: C3*_23  and  O3*_24
REMARK    7  A    between atoms: C4*_25  and  C5*_26
REMARK    8  A    between atoms: C5*_26  and  O5*_27
REMARK                            x       y       z     vdW  Elec       q    Type
REMARK                         _______ _______ _______ _____ _____    ______ ____
ROOT
ATOM      1  O   UNL     1       0.270   9.753  23.004  0.00  0.00    +0.000 OA
ATOM      2  C   UNL     1       0.616   9.483  21.858  0.00  0.00    +0.000 A 
ATOM      3  N   UNL     1       1.403   8.374  21.599  0.00  0.00    +0.000 NA
ATOM      4  C   UNL     1       1.734   8.186  20.379  0.00  0.00    +0.000 A 
ATOM      5  O   UNL     1       2.502   7.140  19.921  0.00  0.00    +0.000 OA
ATOM      6  C   UNL     1       2.603   7.358  18.520  0.00  0.00    +0.000 A 
ATOM      7  C   UNL     1       1.975   8.446  18.065  0.00  0.00    +0.000 A 
ATOM      8  C   UNL     1       1.394   9.008  19.223  0.00  0.00    +0.000 A 
ATOM      9  C   UNL     1       0.636  10.060  19.479  0.00  0.00    +0.000 A 
ATOM     10  N   UNL     1       0.212  10.298  20.777  0.00  0.00    +0.000 N 
ENDROOT
BRANCH   6  11
ATOM     11  C   UNL     1       3.416   6.422  17.739  0.00  0.00    +0.000 A 
ATOM     12  C   UNL     1       4.434   6.924  16.933  0.00  0.00    +0.000 A 
ATOM     13  C   UNL     1       5.218   6.072  16.160  0.00  0.00    +0.000 A 
ATOM     14  C   UNL     1       5.010   4.692  16.168  0.00  0.00    +0.000 A 
ATOM     15  C   UNL     1       3.997   4.174  16.984  0.00  0.00    +0.000 A 
ATOM     16  C   UNL     1       3.211   5.031  17.762  0.00  0.00    +0.000 A 
BRANCH  14  17
ATOM     17  O   UNL     1       5.743   3.800  15.420  0.00  0.00    +0.000 OA
BRANCH  17  18
ATOM     18  C   UNL     1       5.616   3.991  14.003  0.00  0.00    +0.000 C 
BRANCH  18  19
ATOM     19  C   UNL     1       6.956   4.011  13.304  0.00  0.00    +0.000 C 
ATOM     20  F   UNL     1       7.436   5.286  13.338  0.00  0.00    +0.000 F 
ENDBRANCH  18  19
ENDBRANCH  17  18
ENDBRANCH  14  17
ENDBRANCH   6  11
BRANCH  10  21
ATOM     21  C1* UNL     1      -0.678  11.415  21.068  0.00  0.00    +0.000 C 
ATOM     22  C2* UNL     1       0.026  12.670  21.567  0.00  0.00    +0.000 C 
ATOM     23  C3* UNL     1      -0.919  13.765  21.121  0.00  0.00    +0.000 C 
ATOM     24  C4* UNL     1      -1.485  13.234  19.808  0.00  0.00    +0.000 C 
ATOM     25  O4* UNL     1      -1.401  11.791  19.874  0.00  0.00    +0.000 OA
BRANCH  23  26
ATOM     26  O3* UNL     1      -1.947  13.934  22.098  0.00  0.00    +0.000 OA
ATOM     27  H3* UNL     1      -2.409  14.778  21.947  0.00  0.00    +0.000 HD
ENDBRANCH  23  26
BRANCH  24  28
ATOM     28  C5* UNL     1      -0.684  13.712  18.591  0.00  0.00    +0.000 C 
BRANCH  28  29
ATOM     29  O5* UNL     1      -0.984  12.924  17.441  0.00  0.00    +0.000 OA
ATOM     30  H5* UNL     1      -1.955  12.851  17.392  0.00  0.00    +0.000 HD
ENDBRANCH  28  29
ENDBRANCH  24  28
ENDBRANCH  10  21
TORSDOF 8
ENDMDL
