MODEL 1
REMARK VINA RESULT:      -6.8      0.000      0.000
REMARK  Name = 
REMARK  6 active torsions:
REMARK  status: ('A' for Active; 'I' for Inactive)
REMARK    1  A    between atoms: C_4  and  C_5
REMARK    2  A    between atoms: C_5  and  C_6
REMARK    3  A    between atoms: N_9  and  C_10
REMARK    4  A    between atoms: C_10  and  C_11
REMARK    5  A    between atoms: C_11  and  S_12
REMARK    6  A    between atoms: S_12  and  C_13
REMARK                            x       y       z     vdW  Elec       q    Type
REMARK                         _______ _______ _______ _____ _____    ______ ____
ROOT
ATOM      1  C   UNL     1       6.316   5.759  16.767  0.00  0.00    +0.000 C 
ATOM      2  C   UNL     1       6.609   5.828  18.272  0.00  0.00    +0.000 C 
ATOM      3  C   UNL     1       5.493   5.317  19.190  0.00  0.00    +0.000 C 
ATOM      4  N   UNL     1       4.186   5.903  18.862  0.00  0.00    +0.000 NA
ATOM      5  C   UNL     1       3.826   5.543  17.482  0.00  0.00    +0.000 C 
ATOM      6  C   UNL     1       4.838   6.079  16.466  0.00  0.00    +0.000 C 
ENDROOT
BRANCH   1   7
ATOM      7  C   UNL     1       6.770   4.437  16.099  0.00  0.00    +0.000 C 
BRANCH   7  11
ATOM      8  C   UNL     1       6.968   4.286  11.765  0.00  0.00    +0.000 A 
ATOM      9  C   UNL     1       7.757   5.186  12.479  0.00  0.00    +0.000 A 
ATOM     10  C   UNL     1       7.667   5.253  13.874  0.00  0.00    +0.000 A 
ATOM     11  C   UNL     1       6.785   4.424  14.580  0.00  0.00    +0.000 A 
ATOM     12  C   UNL     1       5.997   3.522  13.844  0.00  0.00    +0.000 A 
ATOM     13  C   UNL     1       6.083   3.455  12.449  0.00  0.00    +0.000 A 
ENDBRANCH   7  11
ENDBRANCH   1   7
BRANCH   4  14
ATOM     14  C   UNL     1       3.120   5.444  19.796  0.00  0.00    +0.000 C 
BRANCH  14  15
ATOM     15  C   UNL     1       1.786   5.075  19.119  0.00  0.00    +0.000 C 
BRANCH  15  16
ATOM     16  S   UNL     1       1.236   3.420  19.649  0.00  0.00    +0.000 S 
BRANCH  16  17
ATOM     17  C   UNL     1       2.734   2.536  19.530  0.00  0.00    +0.000 A 
ATOM     18  N   UNL     1       3.645   2.430  20.548  0.00  0.00    +0.000 NA
ATOM     19  C   UNL     1       4.592   1.686  20.025  0.00  0.00    +0.000 A 
ATOM     20  N   UNL     1       4.259   1.364  18.747  0.00  0.00    +0.000 N 
ATOM     21  N   UNL     1       3.078   1.900  18.407  0.00  0.00    +0.000 NA
ATOM     22  H   UNL     1       4.770   0.812  18.069  0.00  0.00    +0.000 HD
ENDBRANCH  16  17
ENDBRANCH  15  16
ENDBRANCH  14  15
ENDBRANCH   4  14
TORSDOF 6
ENDMDL
MODEL 2
REMARK VINA RESULT:      -6.7      0.746      1.349
REMARK  Name = 
REMARK  6 active torsions:
REMARK  status: ('A' for Active; 'I' for Inactive)
REMARK    1  A    between atoms: C_4  and  C_5
REMARK    2  A    between atoms: C_5  and  C_6
REMARK    3  A    between atoms: N_9  and  C_10
REMARK    4  A    between atoms: C_10  and  C_11
REMARK    5  A    between atoms: C_11  and  S_12
REMARK    6  A    between atoms: S_12  and  C_13
REMARK                            x       y       z     vdW  Elec       q    Type
REMARK                         _______ _______ _______ _____ _____    ______ ____
ROOT
ATOM      1  C   UNL     1       6.270   5.635  16.686  0.00  0.00    +0.000 C 
ATOM      2  C   UNL     1       6.745   5.657  18.146  0.00  0.00    +0.000 C 
ATOM      3  C   UNL     1       5.686   5.299  19.194  0.00  0.00    +0.000 C 
ATOM      4  N   UNL     1       4.441   6.058  19.015  0.00  0.00    +0.000 NA
ATOM      5  C   UNL     1       3.876   5.756  17.691  0.00  0.00    +0.000 C 
ATOM      6  C   UNL     1       4.824   6.154  16.557  0.00  0.00    +0.000 C 
ENDROOT
BRANCH   1   7
ATOM      7  C   UNL     1       6.459   4.267  15.985  0.00  0.00    +0.000 C 
BRANCH   7  11
ATOM      8  C   UNL     1       7.183   4.503  11.712  0.00  0.00    +0.000 A 
ATOM      9  C   UNL     1       6.311   3.548  12.231  0.00  0.00    +0.000 A 
ATOM     10  C   UNL     1       6.105   3.455  13.612  0.00  0.00    +0.000 A 
ATOM     11  C   UNL     1       6.768   4.312  14.499  0.00  0.00    +0.000 A 
ATOM     12  C   UNL     1       7.644   5.270  13.958  0.00  0.00    +0.000 A 
ATOM     13  C   UNL     1       7.854   5.364  12.578  0.00  0.00    +0.000 A 
ENDBRANCH   7  11
ENDBRANCH   1   7
BRANCH   4  14
ATOM     14  C   UNL     1       3.440   5.744  20.073  0.00  0.00    +0.000 C 
BRANCH  14  15
ATOM     15  C   UNL     1       1.983   5.659  19.576  0.00  0.00    +0.000 C 
BRANCH  15  16
ATOM     16  S   UNL     1       1.196   4.123  20.163  0.00  0.00    +0.000 S 
BRANCH  16  17
ATOM     17  C   UNL     1       2.035   2.946  19.188  0.00  0.00    +0.000 A 
ATOM     18  N   UNL     1       3.157   2.273  19.595  0.00  0.00    +0.000 NA
ATOM     19  C   UNL     1       3.432   1.503  18.568  0.00  0.00    +0.000 A 
ATOM     20  N   UNL     1       2.514   1.713  17.589  0.00  0.00    +0.000 N 
ATOM     21  N   UNL     1       1.612   2.634  17.960  0.00  0.00    +0.000 NA
ATOM     22  H   UNL     1       2.442   1.287  16.672  0.00  0.00    +0.000 HD
ENDBRANCH  16  17
ENDBRANCH  15  16
ENDBRANCH  14  15
ENDBRANCH   4  14
TORSDOF 6
ENDMDL
MODEL 3
REMARK VINA RESULT:      -6.6      4.715      8.119
REMARK  Name = 
REMARK  6 active torsions:
REMARK  status: ('A' for Active; 'I' for Inactive)
REMARK    1  A    between atoms: C_4  and  C_5
REMARK    2  A    between atoms: C_5  and  C_6
REMARK    3  A    between atoms: N_9  and  C_10
REMARK    4  A    between atoms: C_10  and  C_11
REMARK    5  A    between atoms: C_11  and  S_12
REMARK    6  A    between atoms: S_12  and  C_13
REMARK                            x       y       z     vdW  Elec       q    Type
REMARK                         _______ _______ _______ _____ _____    ______ ____
ROOT
ATOM      1  C   UNL     1       4.238   5.004  16.836  0.00  0.00    +0.000 C 
ATOM      2  C   UNL     1       5.385   5.236  15.841  0.00  0.00    +0.000 C 
ATOM      3  C   UNL     1       6.688   5.770  16.444  0.00  0.00    +0.000 C 
ATOM      4  N   UNL     1       6.470   6.940  17.305  0.00  0.00    +0.000 NA
ATOM      5  C   UNL     1       5.587   6.563  18.419  0.00  0.00    +0.000 C 
ATOM      6  C   UNL     1       4.216   6.089  17.932  0.00  0.00    +0.000 C 
ENDROOT
BRANCH   1   7
ATOM      7  C   UNL     1       4.205   3.576  17.434  0.00  0.00    +0.000 C 
BRANCH   7  11
ATOM      8  C   UNL     1       1.287   2.694  20.524  0.00  0.00    +0.000 A 
ATOM      9  C   UNL     1       0.883   2.900  19.207  0.00  0.00    +0.000 A 
ATOM     10  C   UNL     1       1.824   3.215  18.220  0.00  0.00    +0.000 A 
ATOM     11  C   UNL     1       3.184   3.333  18.533  0.00  0.00    +0.000 A 
ATOM     12  C   UNL     1       3.574   3.120  19.866  0.00  0.00    +0.000 A 
ATOM     13  C   UNL     1       2.636   2.808  20.856  0.00  0.00    +0.000 A 
ENDBRANCH   7  11
ENDBRANCH   1   7
BRANCH   4  14
ATOM     14  C   UNL     1       7.749   7.486  17.840  0.00  0.00    +0.000 C 
BRANCH  14  15
ATOM     15  C   UNL     1       7.948   8.998  17.617  0.00  0.00    +0.000 C 
BRANCH  15  16
ATOM     16  S   UNL     1       9.019   9.699  18.915  0.00  0.00    +0.000 S 
BRANCH  16  17
ATOM     17  C   UNL     1       9.475  11.207  18.166  0.00  0.00    +0.000 A 
ATOM     18  N   UNL     1      10.765  11.550  17.858  0.00  0.00    +0.000 NA
ATOM     19  C   UNL     1      10.636  12.739  17.316  0.00  0.00    +0.000 A 
ATOM     20  N   UNL     1       9.323  13.090  17.306  0.00  0.00    +0.000 N 
ATOM     21  N   UNL     1       8.562  12.128  17.848  0.00  0.00    +0.000 NA
ATOM     22  H   UNL     1       8.887  13.939  16.967  0.00  0.00    +0.000 HD
ENDBRANCH  16  17
ENDBRANCH  15  16
ENDBRANCH  14  15
ENDBRANCH   4  14
TORSDOF 6
ENDMDL
MODEL 4
REMARK VINA RESULT:      -6.6      1.081      1.923
REMARK  Name = 
REMARK  6 active torsions:
REMARK  status: ('A' for Active; 'I' for Inactive)
REMARK    1  A    between atoms: C_4  and  C_5
REMARK    2  A    between atoms: C_5  and  C_6
REMARK    3  A    between atoms: N_9  and  C_10
REMARK    4  A    between atoms: C_10  and  C_11
REMARK    5  A    between atoms: C_11  and  S_12
REMARK    6  A    between atoms: S_12  and  C_13
REMARK                            x       y       z     vdW  Elec       q    Type
REMARK                         _______ _______ _______ _____ _____    ______ ____
ROOT
ATOM      1  C   UNL     1       5.504   4.310  16.748  0.00  0.00    +0.000 C 
ATOM      2  C   UNL     1       3.974   4.191  16.710  0.00  0.00    +0.000 C 
ATOM      3  C   UNL     1       3.213   5.101  17.679  0.00  0.00    +0.000 C 
ATOM      4  N   UNL     1       3.731   5.017  19.051  0.00  0.00    +0.000 NA
ATOM      5  C   UNL     1       5.141   5.436  19.063  0.00  0.00    +0.000 C 
ATOM      6  C   UNL     1       6.015   4.537  18.186  0.00  0.00    +0.000 C 
ENDROOT
BRANCH   1   7
ATOM      7  C   UNL     1       6.078   5.355  15.759  0.00  0.00    +0.000 C 
BRANCH   7  11
ATOM      8  C   UNL     1       7.076   3.977  11.766  0.00  0.00    +0.000 A 
ATOM      9  C   UNL     1       6.017   3.405  12.468  0.00  0.00    +0.000 A 
ATOM     10  C   UNL     1       5.719   3.831  13.767  0.00  0.00    +0.000 A 
ATOM     11  C   UNL     1       6.475   4.833  14.389  0.00  0.00    +0.000 A 
ATOM     12  C   UNL     1       7.539   5.399  13.665  0.00  0.00    +0.000 A 
ATOM     13  C   UNL     1       7.842   4.974  12.368  0.00  0.00    +0.000 A 
ENDBRANCH   7  11
ENDBRANCH   1   7
BRANCH   4  14
ATOM     14  C   UNL     1       2.948   5.862  19.996  0.00  0.00    +0.000 C 
BRANCH  14  15
ATOM     15  C   UNL     1       1.702   5.178  20.591  0.00  0.00    +0.000 C 
BRANCH  15  16
ATOM     16  S   UNL     1       2.167   3.642  21.456  0.00  0.00    +0.000 S 
BRANCH  16  17
ATOM     17  C   UNL     1       2.499   2.602  20.097  0.00  0.00    +0.000 A 
ATOM     18  N   UNL     1       3.731   2.068  19.824  0.00  0.00    +0.000 NA
ATOM     19  C   UNL     1       3.516   1.362  18.738  0.00  0.00    +0.000 A 
ATOM     20  N   UNL     1       2.210   1.475  18.378  0.00  0.00    +0.000 N 
ATOM     21  N   UNL     1       1.541   2.266  19.230  0.00  0.00    +0.000 NA
ATOM     22  H   UNL     1       1.722   1.064  17.591  0.00  0.00    +0.000 HD
ENDBRANCH  16  17
ENDBRANCH  15  16
ENDBRANCH  14  15
ENDBRANCH   4  14
TORSDOF 6
ENDMDL
MODEL 5
REMARK VINA RESULT:      -6.6      3.483      6.811
REMARK  Name = 
REMARK  6 active torsions:
REMARK  status: ('A' for Active; 'I' for Inactive)
REMARK    1  A    between atoms: C_4  and  C_5
REMARK    2  A    between atoms: C_5  and  C_6
REMARK    3  A    between atoms: N_9  and  C_10
REMARK    4  A    between atoms: C_10  and  C_11
REMARK    5  A    between atoms: C_11  and  S_12
REMARK    6  A    between atoms: S_12  and  C_13
REMARK                            x       y       z     vdW  Elec       q    Type
REMARK                         _______ _______ _______ _____ _____    ______ ____
ROOT
ATOM      1  C   UNL     1       3.612   6.600  18.527  0.00  0.00    +0.000 C 
ATOM      2  C   UNL     1       4.266   7.194  17.271  0.00  0.00    +0.000 C 
ATOM      3  C   UNL     1       5.107   6.222  16.438  0.00  0.00    +0.000 C 
ATOM      4  N   UNL     1       6.075   5.476  17.254  0.00  0.00    +0.000 NA
ATOM      5  C   UNL     1       5.351   4.686  18.262  0.00  0.00    +0.000 C 
ATOM      6  C   UNL     1       4.535   5.570  19.209  0.00  0.00    +0.000 C 
ENDROOT
BRANCH   1   7
ATOM      7  C   UNL     1       2.190   6.033  18.286  0.00  0.00    +0.000 C 
BRANCH   7  11
ATOM      8  C   UNL     1       1.139   2.227  20.088  0.00  0.00    +0.000 A 
ATOM      9  C   UNL     1       1.161   3.390  20.854  0.00  0.00    +0.000 A 
ATOM     10  C   UNL     1       1.532   4.610  20.276  0.00  0.00    +0.000 A 
ATOM     11  C   UNL     1       1.888   4.688  18.923  0.00  0.00    +0.000 A 
ATOM     12  C   UNL     1       1.859   3.504  18.165  0.00  0.00    +0.000 A 
ATOM     13  C   UNL     1       1.492   2.283  18.741  0.00  0.00    +0.000 A 
ENDBRANCH   7  11
ENDBRANCH   1   7
BRANCH   4  14
ATOM     14  C   UNL     1       6.926   4.576  16.427  0.00  0.00    +0.000 C 
BRANCH  14  15
ATOM     15  C   UNL     1       6.201   3.916  15.238  0.00  0.00    +0.000 C 
BRANCH  15  16
ATOM     16  S   UNL     1       6.891   4.511  13.659  0.00  0.00    +0.000 S 
BRANCH  16  17
ATOM     17  C   UNL     1       6.053   3.472  12.537  0.00  0.00    +0.000 A 
ATOM     18  N   UNL     1       6.628   2.396  11.913  0.00  0.00    +0.000 NA
ATOM     19  C   UNL     1       5.648   1.915  11.183  0.00  0.00    +0.000 A 
ATOM     20  N   UNL     1       4.537   2.677  11.363  0.00  0.00    +0.000 N 
ATOM     21  N   UNL     1       4.772   3.681  12.221  0.00  0.00    +0.000 NA
ATOM     22  H   UNL     1       3.618   2.583  10.946  0.00  0.00    +0.000 HD
ENDBRANCH  16  17
ENDBRANCH  15  16
ENDBRANCH  14  15
ENDBRANCH   4  14
TORSDOF 6
ENDMDL
MODEL 6
REMARK VINA RESULT:      -6.5      1.376      2.291
REMARK  Name = 
REMARK  6 active torsions:
REMARK  status: ('A' for Active; 'I' for Inactive)
REMARK    1  A    between atoms: C_4  and  C_5
REMARK    2  A    between atoms: C_5  and  C_6
REMARK    3  A    between atoms: N_9  and  C_10
REMARK    4  A    between atoms: C_10  and  C_11
REMARK    5  A    between atoms: C_11  and  S_12
REMARK    6  A    between atoms: S_12  and  C_13
REMARK                            x       y       z     vdW  Elec       q    Type
REMARK                         _______ _______ _______ _____ _____    ______ ____
ROOT
ATOM      1  C   UNL     1       6.874   4.456  15.232  0.00  0.00    +0.000 C 
ATOM      2  C   UNL     1       5.652   3.658  15.707  0.00  0.00    +0.000 C 
ATOM      3  C   UNL     1       4.533   4.481  16.354  0.00  0.00    +0.000 C 
ATOM      4  N   UNL     1       5.033   5.384  17.400  0.00  0.00    +0.000 NA
ATOM      5  C   UNL     1       5.992   6.328  16.806  0.00  0.00    +0.000 C 
ATOM      6  C   UNL     1       7.201   5.613  16.198  0.00  0.00    +0.000 C 
ENDROOT
BRANCH   1   7
ATOM      7  C   UNL     1       6.777   4.939  13.763  0.00  0.00    +0.000 C 
BRANCH   7  11
ATOM      8  C   UNL     1       5.647   1.810  10.975  0.00  0.00    +0.000 A 
ATOM      9  C   UNL     1       6.987   2.035  11.281  0.00  0.00    +0.000 A 
ATOM     10  C   UNL     1       7.349   3.066  12.156  0.00  0.00    +0.000 A 
ATOM     11  C   UNL     1       6.378   3.890  12.739  0.00  0.00    +0.000 A 
ATOM     12  C   UNL     1       5.031   3.648  12.420  0.00  0.00    +0.000 A 
ATOM     13  C   UNL     1       4.666   2.620  11.543  0.00  0.00    +0.000 A 
ENDBRANCH   7  11
ENDBRANCH   1   7
BRANCH   4  14
ATOM     14  C   UNL     1       3.931   6.136  18.061  0.00  0.00    +0.000 C 
BRANCH  14  15
ATOM     15  C   UNL     1       3.682   5.753  19.533  0.00  0.00    +0.000 C 
BRANCH  15  16
ATOM     16  S   UNL     1       2.088   4.886  19.708  0.00  0.00    +0.000 S 
BRANCH  16  17
ATOM     17  C   UNL     1       2.480   3.354  18.974  0.00  0.00    +0.000 A 
ATOM     18  N   UNL     1       3.556   2.586  19.331  0.00  0.00    +0.000 NA
ATOM     19  C   UNL     1       3.455   1.543  18.539  0.00  0.00    +0.000 A 
ATOM     20  N   UNL     1       2.364   1.688  17.741  0.00  0.00    +0.000 N 
ATOM     21  N   UNL     1       1.727   2.840  17.997  0.00  0.00    +0.000 NA
ATOM     22  H   UNL     1       2.008   1.071  17.020  0.00  0.00    +0.000 HD
ENDBRANCH  16  17
ENDBRANCH  15  16
ENDBRANCH  14  15
ENDBRANCH   4  14
TORSDOF 6
ENDMDL
MODEL 7
REMARK VINA RESULT:      -6.5      3.072      6.473
REMARK  Name = 
REMARK  6 active torsions:
REMARK  status: ('A' for Active; 'I' for Inactive)
REMARK    1  A    between atoms: C_4  and  C_5
REMARK    2  A    between atoms: C_5  and  C_6
REMARK    3  A    between atoms: N_9  and  C_10
REMARK    4  A    between atoms: C_10  and  C_11
REMARK    5  A    between atoms: C_11  and  S_12
REMARK    6  A    between atoms: S_12  and  C_13
REMARK                            x       y       z     vdW  Elec       q    Type
REMARK                         _______ _______ _______ _____ _____    ______ ____
ROOT
ATOM      1  C   UNL     1       2.968   6.711  18.599  0.00  0.00    +0.000 C 
ATOM      2  C   UNL     1       3.640   7.645  17.581  0.00  0.00    +0.000 C 
ATOM      3  C   UNL     1       4.867   7.074  16.865  0.00  0.00    +0.000 C 
ATOM      4  N   UNL     1       5.843   6.495  17.799  0.00  0.00    +0.000 NA
ATOM      5  C   UNL     1       5.209   5.395  18.541  0.00  0.00    +0.000 C 
ATOM      6  C   UNL     1       4.010   5.871  19.365  0.00  0.00    +0.000 C 
ENDROOT
BRANCH   1   7
ATOM      7  C   UNL     1       1.845   5.831  17.996  0.00  0.00    +0.000 C 
BRANCH   7  11
ATOM      8  C   UNL     1       1.867   1.739  19.444  0.00  0.00    +0.000 A 
ATOM      9  C   UNL     1       2.433   2.057  18.212  0.00  0.00    +0.000 A 
ATOM     10  C   UNL     1       2.396   3.372  17.735  0.00  0.00    +0.000 A 
ATOM     11  C   UNL     1       1.790   4.392  18.479  0.00  0.00    +0.000 A 
ATOM     12  C   UNL     1       1.224   4.053  19.721  0.00  0.00    +0.000 A 
ATOM     13  C   UNL     1       1.257   2.739  20.199  0.00  0.00    +0.000 A 
ENDBRANCH   7  11
ENDBRANCH   1   7
BRANCH   4  14
ATOM     14  C   UNL     1       7.058   5.994  17.098  0.00  0.00    +0.000 C 
BRANCH  14  15
ATOM     15  C   UNL     1       7.097   4.468  16.887  0.00  0.00    +0.000 C 
BRANCH  15  16
ATOM     16  S   UNL     1       5.895   3.968  15.612  0.00  0.00    +0.000 S 
BRANCH  16  17
ATOM     17  C   UNL     1       6.736   4.470  14.169  0.00  0.00    +0.000 A 
ATOM     18  N   UNL     1       6.560   3.894  12.939  0.00  0.00    +0.000 NA
ATOM     19  C   UNL     1       7.372   4.580  12.169  0.00  0.00    +0.000 A 
ATOM     20  N   UNL     1       8.009   5.523  12.912  0.00  0.00    +0.000 N 
ATOM     21  N   UNL     1       7.622   5.469  14.195  0.00  0.00    +0.000 NA
ATOM     22  H   UNL     1       8.699   6.208  12.628  0.00  0.00    +0.000 HD
ENDBRANCH  16  17
ENDBRANCH  15  16
ENDBRANCH  14  15
ENDBRANCH   4  14
TORSDOF 6
ENDMDL
MODEL 8
REMARK VINA RESULT:      -6.5      3.867      7.577
REMARK  Name = 
REMARK  6 active torsions:
REMARK  status: ('A' for Active; 'I' for Inactive)
REMARK    1  A    between atoms: C_4  and  C_5
REMARK    2  A    between atoms: C_5  and  C_6
REMARK    3  A    between atoms: N_9  and  C_10
REMARK    4  A    between atoms: C_10  and  C_11
REMARK    5  A    between atoms: C_11  and  S_12
REMARK    6  A    between atoms: S_12  and  C_13
REMARK                            x       y       z     vdW  Elec       q    Type
REMARK                         _______ _______ _______ _____ _____    ______ ____
ROOT
ATOM      1  C   UNL     1       3.795   4.581  17.012  0.00  0.00    +0.000 C 
ATOM      2  C   UNL     1       5.029   4.532  16.100  0.00  0.00    +0.000 C 
ATOM      3  C   UNL     1       6.384   4.556  16.815  0.00  0.00    +0.000 C 
ATOM      4  N   UNL     1       6.479   5.642  17.800  0.00  0.00    +0.000 NA
ATOM      5  C   UNL     1       5.440   5.458  18.824  0.00  0.00    +0.000 C 
ATOM      6  C   UNL     1       4.031   5.500  18.228  0.00  0.00    +0.000 C 
ENDROOT
BRANCH   1   7
ATOM      7  C   UNL     1       3.270   3.187  17.434  0.00  0.00    +0.000 C 
BRANCH   7  11
ATOM      8  C   UNL     1       1.484   3.109  21.389  0.00  0.00    +0.000 A 
ATOM      9  C   UNL     1       2.755   2.579  21.176  0.00  0.00    +0.000 A 
ATOM     10  C   UNL     1       3.313   2.578  19.893  0.00  0.00    +0.000 A 
ATOM     11  C   UNL     1       2.612   3.103  18.801  0.00  0.00    +0.000 A 
ATOM     12  C   UNL     1       1.331   3.635  19.034  0.00  0.00    +0.000 A 
ATOM     13  C   UNL     1       0.769   3.635  20.315  0.00  0.00    +0.000 A 
ENDBRANCH   7  11
ENDBRANCH   1   7
BRANCH   4  14
ATOM     14  C   UNL     1       7.820   5.692  18.448  0.00  0.00    +0.000 C 
BRANCH  14  15
ATOM     15  C   UNL     1       8.278   7.101  18.872  0.00  0.00    +0.000 C 
BRANCH  15  16
ATOM     16  S   UNL     1       7.769   8.339  17.635  0.00  0.00    +0.000 S 
BRANCH  16  17
ATOM     17  C   UNL     1       8.549   9.762  18.272  0.00  0.00    +0.000 A 
ATOM     18  N   UNL     1       8.485  10.999  17.687  0.00  0.00    +0.000 NA
ATOM     19  C   UNL     1       9.196  11.750  18.496  0.00  0.00    +0.000 A 
ATOM     20  N   UNL     1       9.667  10.989  19.519  0.00  0.00    +0.000 N 
ATOM     21  N   UNL     1       9.270   9.714  19.396  0.00  0.00    +0.000 NA
ATOM     22  H   UNL     1      10.249  11.256  20.304  0.00  0.00    +0.000 HD
ENDBRANCH  16  17
ENDBRANCH  15  16
ENDBRANCH  14  15
ENDBRANCH   4  14
TORSDOF 6
ENDMDL
MODEL 9
REMARK VINA RESULT:      -6.5      1.156      1.863
REMARK  Name = 
REMARK  6 active torsions:
REMARK  status: ('A' for Active; 'I' for Inactive)
REMARK    1  A    between atoms: C_4  and  C_5
REMARK    2  A    between atoms: C_5  and  C_6
REMARK    3  A    between atoms: N_9  and  C_10
REMARK    4  A    between atoms: C_10  and  C_11
REMARK    5  A    between atoms: C_11  and  S_12
REMARK    6  A    between atoms: S_12  and  C_13
REMARK                            x       y       z     vdW  Elec       q    Type
REMARK                         _______ _______ _______ _____ _____    ______ ____
ROOT
ATOM      1  C   UNL     1       6.700   5.931  16.751  0.00  0.00    +0.000 C 
ATOM      2  C   UNL     1       6.616   5.916  18.284  0.00  0.00    +0.000 C 
ATOM      3  C   UNL     1       5.274   5.466  18.870  0.00  0.00    +0.000 C 
ATOM      4  N   UNL     1       4.134   6.172  18.270  0.00  0.00    +0.000 NA
ATOM      5  C   UNL     1       4.101   5.899  16.825  0.00  0.00    +0.000 C 
ATOM      6  C   UNL     1       5.368   6.386  16.118  0.00  0.00    +0.000 C 
ENDROOT
BRANCH   1   7
ATOM      7  C   UNL     1       7.208   4.603  16.137  0.00  0.00    +0.000 C 
BRANCH   7  11
ATOM      8  C   UNL     1       6.872   4.415  11.813  0.00  0.00    +0.000 A 
ATOM      9  C   UNL     1       6.107   3.576  12.619  0.00  0.00    +0.000 A 
ATOM     10  C   UNL     1       6.241   3.618  14.012  0.00  0.00    +0.000 A 
ATOM     11  C   UNL     1       7.145   4.497  14.622  0.00  0.00    +0.000 A 
ATOM     12  C   UNL     1       7.908   5.338  13.793  0.00  0.00    +0.000 A 
ATOM     13  C   UNL     1       7.778   5.296  12.401  0.00  0.00    +0.000 A 
ENDBRANCH   7  11
ENDBRANCH   1   7
BRANCH   4  14
ATOM     14  C   UNL     1       2.840   5.769  18.888  0.00  0.00    +0.000 C 
BRANCH  14  15
ATOM     15  C   UNL     1       1.937   4.905  17.986  0.00  0.00    +0.000 C 
BRANCH  15  16
ATOM     16  S   UNL     1       2.393   3.145  18.123  0.00  0.00    +0.000 S 
BRANCH  16  17
ATOM     17  C   UNL     1       2.202   2.902  19.839  0.00  0.00    +0.000 A 
ATOM     18  N   UNL     1       1.005   2.992  20.498  0.00  0.00    +0.000 NA
ATOM     19  C   UNL     1       1.329   2.733  21.744  0.00  0.00    +0.000 A 
ATOM     20  N   UNL     1       2.666   2.501  21.823  0.00  0.00    +0.000 N 
ATOM     21  N   UNL     1       3.247   2.608  20.618  0.00  0.00    +0.000 NA
ATOM     22  H   UNL     1       3.234   2.281  22.632  0.00  0.00    +0.000 HD
ENDBRANCH  16  17
ENDBRANCH  15  16
ENDBRANCH  14  15
ENDBRANCH   4  14
TORSDOF 6
ENDMDL
