MODEL 1
REMARK VINA RESULT:      -6.2      0.000      0.000
REMARK  Name = 
REMARK  13 active torsions:
REMARK  status: ('A' for Active; 'I' for Inactive)
REMARK    1  A    between atoms: C_1  and  O_2
REMARK    2  A    between atoms: O_2  and  C_3
REMARK    3  A    between atoms: C_3  and  C_5
REMARK    4  A    between atoms: C_5  and  C_6
REMARK    5  A    between atoms: C_6  and  N_7
REMARK    6  A    between atoms: N_7  and  C_8
REMARK    7  A    between atoms: N_7  and  S_19
REMARK    8  A    between atoms: C_8  and  C_9
REMARK    9  A    between atoms: C_11  and  O_12
REMARK   10  A    between atoms: O_12  and  C_13
REMARK   11  A    between atoms: C_16  and  O_17
REMARK   12  A    between atoms: O_17  and  C_18
REMARK   13  A    between atoms: S_19  and  C_22
REMARK                            x       y       z     vdW  Elec       q    Type
REMARK                         _______ _______ _______ _____ _____    ______ ____
ROOT
ATOM      1  N   UNL     1       3.190   6.708  17.808  0.00  0.00    +0.000 NA
ENDROOT
BRANCH   1   2
ATOM      2  S   UNL     1       3.158   5.849  19.319  0.00  0.00    +0.000 S 
ATOM      3  O   UNL     1       4.471   5.793  19.920  0.00  0.00    +0.000 OA
ATOM      4  O   UNL     1       2.034   6.403  20.050  0.00  0.00    +0.000 OA
BRANCH   2   5
ATOM      5  C   UNL     1       2.755   4.176  18.903  0.00  0.00    +0.000 A 
ATOM      6  C   UNL     1       2.833   3.819  17.549  0.00  0.00    +0.000 A 
ATOM      7  C   UNL     1       2.506   2.530  17.140  0.00  0.00    +0.000 A 
ATOM      8  C   UNL     1       2.097   1.590  18.079  0.00  0.00    +0.000 A 
ATOM      9  C   UNL     1       2.007   1.941  19.426  0.00  0.00    +0.000 A 
ATOM     10  C   UNL     1       2.331   3.237  19.850  0.00  0.00    +0.000 A 
ATOM     11 BR   UNL     1       2.158   3.581  21.707  0.00  0.00    +0.000 Br
ENDBRANCH   2   5
ENDBRANCH   1   2
BRANCH   1  12
ATOM     12  C   UNL     1       2.086   7.738  17.690  0.00  0.00    +0.000 C 
BRANCH  12  13
ATOM     13  C   UNL     1       2.597   9.144  17.988  0.00  0.00    +0.000 C 
BRANCH  13  14
ATOM     14  C   UNL     1       1.474  10.121  18.240  0.00  0.00    +0.000 C 
ATOM     15  O   UNL     1       0.299   9.836  18.402  0.00  0.00    +0.000 OA
BRANCH  14  17
ATOM     16  C   UNL     1       1.332  12.297  19.143  0.00  0.00    +0.000 C 
ATOM     17  O   UNL     1       1.995  11.383  18.270  0.00  0.00    +0.000 OA
ENDBRANCH  14  17
ENDBRANCH  13  14
ENDBRANCH  12  13
ENDBRANCH   1  12
BRANCH   1  18
ATOM     18  C   UNL     1       4.547   7.328  17.540  0.00  0.00    +0.000 C 
BRANCH  18  19
ATOM     19  C   UNL     1       5.553   6.451  16.836  0.00  0.00    +0.000 A 
ATOM     20  C   UNL     1       5.125   5.829  15.640  0.00  0.00    +0.000 A 
ATOM     21  C   UNL     1       5.845   4.788  15.050  0.00  0.00    +0.000 A 
ATOM     22  C   UNL     1       7.051   4.398  15.620  0.00  0.00    +0.000 A 
ATOM     23  C   UNL     1       7.534   5.065  16.752  0.00  0.00    +0.000 A 
ATOM     24  C   UNL     1       6.807   6.098  17.359  0.00  0.00    +0.000 A 
BRANCH  21  25
ATOM     25  O   UNL     1       5.243   4.215  13.963  0.00  0.00    +0.000 OA
ATOM     26  C   UNL     1       6.102   3.635  12.989  0.00  0.00    +0.000 C 
ENDBRANCH  21  25
BRANCH  24  27
ATOM     27  O   UNL     1       7.353   6.535  18.535  0.00  0.00    +0.000 OA
ATOM     28  C   UNL     1       7.903   5.554  19.405  0.00  0.00    +0.000 C 
ENDBRANCH  24  27
ENDBRANCH  18  19
ENDBRANCH   1  18
TORSDOF 10
ENDMDL
MODEL 2
REMARK VINA RESULT:      -6.2      1.393      1.706
REMARK  Name = 
REMARK  13 active torsions:
REMARK  status: ('A' for Active; 'I' for Inactive)
REMARK    1  A    between atoms: C_1  and  O_2
REMARK    2  A    between atoms: O_2  and  C_3
REMARK    3  A    between atoms: C_3  and  C_5
REMARK    4  A    between atoms: C_5  and  C_6
REMARK    5  A    between atoms: C_6  and  N_7
REMARK    6  A    between atoms: N_7  and  C_8
REMARK    7  A    between atoms: N_7  and  S_19
REMARK    8  A    between atoms: C_8  and  C_9
REMARK    9  A    between atoms: C_11  and  O_12
REMARK   10  A    between atoms: O_12  and  C_13
REMARK   11  A    between atoms: C_16  and  O_17
REMARK   12  A    between atoms: O_17  and  C_18
REMARK   13  A    between atoms: S_19  and  C_22
REMARK                            x       y       z     vdW  Elec       q    Type
REMARK                         _______ _______ _______ _____ _____    ______ ____
ROOT
ATOM      1  N   UNL     1       3.185   6.502  17.768  0.00  0.00    +0.000 NA
ENDROOT
BRANCH   1   2
ATOM      2  S   UNL     1       3.387   5.825  19.357  0.00  0.00    +0.000 S 
ATOM      3  O   UNL     1       4.750   5.402  19.579  0.00  0.00    +0.000 OA
ATOM      4  O   UNL     1       2.749   6.767  20.259  0.00  0.00    +0.000 OA
BRANCH   2   5
ATOM      5  C   UNL     1       2.422   4.340  19.364  0.00  0.00    +0.000 A 
ATOM      6  C   UNL     1       1.300   4.313  20.206  0.00  0.00    +0.000 A 
ATOM      7  C   UNL     1       0.508   3.173  20.288  0.00  0.00    +0.000 A 
ATOM      8  C   UNL     1       0.831   2.051  19.531  0.00  0.00    +0.000 A 
ATOM      9  C   UNL     1       1.950   2.068  18.700  0.00  0.00    +0.000 A 
ATOM     10  C   UNL     1       2.759   3.210  18.612  0.00  0.00    +0.000 A 
ATOM     11 BR   UNL     1       4.253   3.094  17.450  0.00  0.00    +0.000 Br
ENDBRANCH   2   5
ENDBRANCH   1   2
BRANCH   1  12
ATOM     12  C   UNL     1       1.914   7.316  17.630  0.00  0.00    +0.000 C 
BRANCH  12  13
ATOM     13  C   UNL     1       2.193   8.812  17.741  0.00  0.00    +0.000 C 
BRANCH  13  14
ATOM     14  C   UNL     1       1.015   9.574  18.298  0.00  0.00    +0.000 C 
ATOM     15  O   UNL     1      -0.036   9.792  17.719  0.00  0.00    +0.000 OA
BRANCH  14  17
ATOM     16  C   UNL     1       0.482   9.422  20.593  0.00  0.00    +0.000 C 
ATOM     17  O   UNL     1       1.315   9.969  19.571  0.00  0.00    +0.000 OA
ENDBRANCH  14  17
ENDBRANCH  13  14
ENDBRANCH  12  13
ENDBRANCH   1  12
BRANCH   1  18
ATOM     18  C   UNL     1       4.397   7.304  17.339  0.00  0.00    +0.000 C 
BRANCH  18  19
ATOM     19  C   UNL     1       5.454   6.551  16.567  0.00  0.00    +0.000 A 
ATOM     20  C   UNL     1       5.020   5.850  15.418  0.00  0.00    +0.000 A 
ATOM     21  C   UNL     1       5.825   4.900  14.785  0.00  0.00    +0.000 A 
ATOM     22  C   UNL     1       7.114   4.688  15.261  0.00  0.00    +0.000 A 
ATOM     23  C   UNL     1       7.590   5.440  16.341  0.00  0.00    +0.000 A 
ATOM     24  C   UNL     1       6.780   6.381  16.991  0.00  0.00    +0.000 A 
BRANCH  21  25
ATOM     25  O   UNL     1       5.222   4.226  13.759  0.00  0.00    +0.000 OA
ATOM     26  C   UNL     1       6.082   3.591  12.819  0.00  0.00    +0.000 C 
ENDBRANCH  21  25
BRANCH  24  27
ATOM     27  O   UNL     1       7.353   6.916  18.113  0.00  0.00    +0.000 OA
ATOM     28  C   UNL     1       8.052   8.146  17.967  0.00  0.00    +0.000 C 
ENDBRANCH  24  27
ENDBRANCH  18  19
ENDBRANCH   1  18
TORSDOF 10
ENDMDL
MODEL 3
REMARK VINA RESULT:      -6.2      1.544      2.057
REMARK  Name = 
REMARK  13 active torsions:
REMARK  status: ('A' for Active; 'I' for Inactive)
REMARK    1  A    between atoms: C_1  and  O_2
REMARK    2  A    between atoms: O_2  and  C_3
REMARK    3  A    between atoms: C_3  and  C_5
REMARK    4  A    between atoms: C_5  and  C_6
REMARK    5  A    between atoms: C_6  and  N_7
REMARK    6  A    between atoms: N_7  and  C_8
REMARK    7  A    between atoms: N_7  and  S_19
REMARK    8  A    between atoms: C_8  and  C_9
REMARK    9  A    between atoms: C_11  and  O_12
REMARK   10  A    between atoms: O_12  and  C_13
REMARK   11  A    between atoms: C_16  and  O_17
REMARK   12  A    between atoms: O_17  and  C_18
REMARK   13  A    between atoms: S_19  and  C_22
REMARK                            x       y       z     vdW  Elec       q    Type
REMARK                         _______ _______ _______ _____ _____    ______ ____
ROOT
ATOM      1  N   UNL     1       3.499   5.901  17.769  0.00  0.00    +0.000 NA
ENDROOT
BRANCH   1   2
ATOM      2  S   UNL     1       4.340   4.827  18.847  0.00  0.00    +0.000 S 
ATOM      3  O   UNL     1       5.084   3.826  18.118  0.00  0.00    +0.000 OA
ATOM      4  O   UNL     1       5.005   5.689  19.807  0.00  0.00    +0.000 OA
BRANCH   2   5
ATOM      5  C   UNL     1       3.075   3.940  19.712  0.00  0.00    +0.000 A 
ATOM      6  C   UNL     1       2.887   4.256  21.066  0.00  0.00    +0.000 A 
ATOM      7  C   UNL     1       1.931   3.583  21.821  0.00  0.00    +0.000 A 
ATOM      8  C   UNL     1       1.157   2.590  21.229  0.00  0.00    +0.000 A 
ATOM      9  C   UNL     1       1.345   2.265  19.886  0.00  0.00    +0.000 A 
ATOM     10  C   UNL     1       2.308   2.932  19.117  0.00  0.00    +0.000 A 
ATOM     11 BR   UNL     1       2.464   2.385  17.307  0.00  0.00    +0.000 Br
ENDBRANCH   2   5
ENDBRANCH   1   2
BRANCH   1  12
ATOM     12  C   UNL     1       2.394   6.679  18.454  0.00  0.00    +0.000 C 
BRANCH  12  13
ATOM     13  C   UNL     1       2.439   8.158  18.085  0.00  0.00    +0.000 C 
BRANCH  13  14
ATOM     14  C   UNL     1       1.417   8.969  18.844  0.00  0.00    +0.000 C 
ATOM     15  O   UNL     1       1.294   9.013  20.057  0.00  0.00    +0.000 OA
BRANCH  14  17
ATOM     16  C   UNL     1      -0.363  10.484  18.513  0.00  0.00    +0.000 C 
ATOM     17  O   UNL     1       0.656   9.661  17.945  0.00  0.00    +0.000 OA
ENDBRANCH  14  17
ENDBRANCH  13  14
ENDBRANCH  12  13
ENDBRANCH   1  12
BRANCH   1  18
ATOM     18  C   UNL     1       4.452   6.830  17.043  0.00  0.00    +0.000 C 
BRANCH  18  19
ATOM     19  C   UNL     1       5.506   6.167  16.190  0.00  0.00    +0.000 A 
ATOM     20  C   UNL     1       5.048   5.439  15.067  0.00  0.00    +0.000 A 
ATOM     21  C   UNL     1       5.877   4.559  14.369  0.00  0.00    +0.000 A 
ATOM     22  C   UNL     1       7.209   4.448  14.749  0.00  0.00    +0.000 A 
ATOM     23  C   UNL     1       7.702   5.231  15.799  0.00  0.00    +0.000 A 
ATOM     24  C   UNL     1       6.869   6.101  16.516  0.00  0.00    +0.000 A 
BRANCH  21  25
ATOM     25  O   UNL     1       5.257   3.844  13.381  0.00  0.00    +0.000 OA
ATOM     26  C   UNL     1       6.080   3.374  12.320  0.00  0.00    +0.000 C 
ENDBRANCH  21  25
BRANCH  24  27
ATOM     27  O   UNL     1       7.478   6.675  17.599  0.00  0.00    +0.000 OA
ATOM     28  C   UNL     1       7.966   5.803  18.611  0.00  0.00    +0.000 C 
ENDBRANCH  24  27
ENDBRANCH  18  19
ENDBRANCH   1  18
TORSDOF 10
ENDMDL
MODEL 4
REMARK VINA RESULT:      -5.9      1.956      2.571
REMARK  Name = 
REMARK  13 active torsions:
REMARK  status: ('A' for Active; 'I' for Inactive)
REMARK    1  A    between atoms: C_1  and  O_2
REMARK    2  A    between atoms: O_2  and  C_3
REMARK    3  A    between atoms: C_3  and  C_5
REMARK    4  A    between atoms: C_5  and  C_6
REMARK    5  A    between atoms: C_6  and  N_7
REMARK    6  A    between atoms: N_7  and  C_8
REMARK    7  A    between atoms: N_7  and  S_19
REMARK    8  A    between atoms: C_8  and  C_9
REMARK    9  A    between atoms: C_11  and  O_12
REMARK   10  A    between atoms: O_12  and  C_13
REMARK   11  A    between atoms: C_16  and  O_17
REMARK   12  A    between atoms: O_17  and  C_18
REMARK   13  A    between atoms: S_19  and  C_22
REMARK                            x       y       z     vdW  Elec       q    Type
REMARK                         _______ _______ _______ _____ _____    ______ ____
ROOT
ATOM      1  N   UNL     1       3.032   5.224  17.400  0.00  0.00    +0.000 NA
ENDROOT
BRANCH   1   2
ATOM      2  S   UNL     1       1.982   3.845  17.527  0.00  0.00    +0.000 S 
ATOM      3  O   UNL     1       0.606   4.208  17.278  0.00  0.00    +0.000 OA
ATOM      4  O   UNL     1       2.623   2.801  16.750  0.00  0.00    +0.000 OA
BRANCH   2   5
ATOM      5  C   UNL     1       2.043   3.359  19.229  0.00  0.00    +0.000 A 
ATOM      6  C   UNL     1       1.203   4.046  20.119  0.00  0.00    +0.000 A 
ATOM      7  C   UNL     1       1.214   3.740  21.476  0.00  0.00    +0.000 A 
ATOM      8  C   UNL     1       2.064   2.749  21.954  0.00  0.00    +0.000 A 
ATOM      9  C   UNL     1       2.908   2.069  21.077  0.00  0.00    +0.000 A 
ATOM     10  C   UNL     1       2.910   2.370  19.708  0.00  0.00    +0.000 A 
ATOM     11 BR   UNL     1       4.111   1.375  18.629  0.00  0.00    +0.000 Br
ENDBRANCH   2   5
ENDBRANCH   1   2
BRANCH   1  12
ATOM     12  C   UNL     1       2.604   6.377  18.285  0.00  0.00    +0.000 C 
BRANCH  12  13
ATOM     13  C   UNL     1       3.181   7.702  17.797  0.00  0.00    +0.000 C 
BRANCH  13  14
ATOM     14  C   UNL     1       2.284   8.871  18.121  0.00  0.00    +0.000 C 
ATOM     15  O   UNL     1       2.067   9.830  17.399  0.00  0.00    +0.000 OA
BRANCH  14  17
ATOM     16  C   UNL     1       0.659   9.541  19.697  0.00  0.00    +0.000 C 
ATOM     17  O   UNL     1       1.740   8.673  19.358  0.00  0.00    +0.000 OA
ENDBRANCH  14  17
ENDBRANCH  13  14
ENDBRANCH  12  13
ENDBRANCH   1  12
BRANCH   1  18
ATOM     18  C   UNL     1       4.481   4.853  17.649  0.00  0.00    +0.000 C 
BRANCH  18  19
ATOM     19  C   UNL     1       5.416   4.997  16.471  0.00  0.00    +0.000 A 
ATOM     20  C   UNL     1       4.966   4.472  15.237  0.00  0.00    +0.000 A 
ATOM     21  C   UNL     1       5.829   4.286  14.155  0.00  0.00    +0.000 A 
ATOM     22  C   UNL     1       7.152   4.693  14.275  0.00  0.00    +0.000 A 
ATOM     23  C   UNL     1       7.591   5.299  15.458  0.00  0.00    +0.000 A 
ATOM     24  C   UNL     1       6.734   5.470  16.554  0.00  0.00    +0.000 A 
BRANCH  21  25
ATOM     25  O   UNL     1       5.271   3.663  13.073  0.00  0.00    +0.000 OA
ATOM     26  C   UNL     1       6.168   3.188  12.076  0.00  0.00    +0.000 C 
ENDBRANCH  21  25
BRANCH  24  27
ATOM     27  O   UNL     1       7.363   5.942  17.673  0.00  0.00    +0.000 OA
ATOM     28  C   UNL     1       7.585   7.344  17.756  0.00  0.00    +0.000 C 
ENDBRANCH  24  27
ENDBRANCH  18  19
ENDBRANCH   1  18
TORSDOF 10
ENDMDL
MODEL 5
REMARK VINA RESULT:      -5.8      1.710      2.003
REMARK  Name = 
REMARK  13 active torsions:
REMARK  status: ('A' for Active; 'I' for Inactive)
REMARK    1  A    between atoms: C_1  and  O_2
REMARK    2  A    between atoms: O_2  and  C_3
REMARK    3  A    between atoms: C_3  and  C_5
REMARK    4  A    between atoms: C_5  and  C_6
REMARK    5  A    between atoms: C_6  and  N_7
REMARK    6  A    between atoms: N_7  and  C_8
REMARK    7  A    between atoms: N_7  and  S_19
REMARK    8  A    between atoms: C_8  and  C_9
REMARK    9  A    between atoms: C_11  and  O_12
REMARK   10  A    between atoms: O_12  and  C_13
REMARK   11  A    between atoms: C_16  and  O_17
REMARK   12  A    between atoms: O_17  and  C_18
REMARK   13  A    between atoms: S_19  and  C_22
REMARK                            x       y       z     vdW  Elec       q    Type
REMARK                         _______ _______ _______ _____ _____    ______ ____
ROOT
ATOM      1  N   UNL     1       3.543   5.983  17.824  0.00  0.00    +0.000 NA
ENDROOT
BRANCH   1   2
ATOM      2  S   UNL     1       4.330   4.713  18.711  0.00  0.00    +0.000 S 
ATOM      3  O   UNL     1       4.816   3.678  17.828  0.00  0.00    +0.000 OA
ATOM      4  O   UNL     1       5.232   5.386  19.627  0.00  0.00    +0.000 OA
BRANCH   2   5
ATOM      5  C   UNL     1       3.057   3.952  19.677  0.00  0.00    +0.000 A 
ATOM      6  C   UNL     1       1.794   4.564  19.663  0.00  0.00    +0.000 A 
ATOM      7  C   UNL     1       0.749   4.041  20.418  0.00  0.00    +0.000 A 
ATOM      8  C   UNL     1       0.957   2.905  21.193  0.00  0.00    +0.000 A 
ATOM      9  C   UNL     1       2.212   2.297  21.219  0.00  0.00    +0.000 A 
ATOM     10  C   UNL     1       3.274   2.817  20.466  0.00  0.00    +0.000 A 
ATOM     11 BR   UNL     1       4.927   1.896  20.599  0.00  0.00    +0.000 Br
ENDBRANCH   2   5
ENDBRANCH   1   2
BRANCH   1  12
ATOM     12  C   UNL     1       2.610   6.813  18.683  0.00  0.00    +0.000 C 
BRANCH  12  13
ATOM     13  C   UNL     1       2.465   8.232  18.142  0.00  0.00    +0.000 C 
BRANCH  13  14
ATOM     14  C   UNL     1       1.384   9.009  18.855  0.00  0.00    +0.000 C 
ATOM     15  O   UNL     1       1.242   9.095  20.063  0.00  0.00    +0.000 OA
BRANCH  14  17
ATOM     16  C   UNL     1      -0.452  10.433  18.440  0.00  0.00    +0.000 C 
ATOM     17  O   UNL     1       0.594   9.614  17.919  0.00  0.00    +0.000 OA
ENDBRANCH  14  17
ENDBRANCH  13  14
ENDBRANCH  12  13
ENDBRANCH   1  12
BRANCH   1  18
ATOM     18  C   UNL     1       4.539   6.862  17.094  0.00  0.00    +0.000 C 
BRANCH  18  19
ATOM     19  C   UNL     1       5.536   6.148  16.214  0.00  0.00    +0.000 A 
ATOM     20  C   UNL     1       5.019   5.490  15.074  0.00  0.00    +0.000 A 
ATOM     21  C   UNL     1       5.776   4.571  14.344  0.00  0.00    +0.000 A 
ATOM     22  C   UNL     1       7.098   4.350  14.711  0.00  0.00    +0.000 A 
ATOM     23  C   UNL     1       7.654   5.063  15.779  0.00  0.00    +0.000 A 
ATOM     24  C   UNL     1       6.893   5.972  16.527  0.00  0.00    +0.000 A 
BRANCH  21  25
ATOM     25  O   UNL     1       5.099   3.934  13.341  0.00  0.00    +0.000 OA
ATOM     26  C   UNL     1       5.887   3.309  12.334  0.00  0.00    +0.000 C 
ENDBRANCH  21  25
BRANCH  24  27
ATOM     27  O   UNL     1       7.548   6.466  17.622  0.00  0.00    +0.000 OA
ATOM     28  C   UNL     1       7.828   7.860  17.641  0.00  0.00    +0.000 C 
ENDBRANCH  24  27
ENDBRANCH  18  19
ENDBRANCH   1  18
TORSDOF 10
ENDMDL
MODEL 6
REMARK VINA RESULT:      -5.6      1.978      2.561
REMARK  Name = 
REMARK  13 active torsions:
REMARK  status: ('A' for Active; 'I' for Inactive)
REMARK    1  A    between atoms: C_1  and  O_2
REMARK    2  A    between atoms: O_2  and  C_3
REMARK    3  A    between atoms: C_3  and  C_5
REMARK    4  A    between atoms: C_5  and  C_6
REMARK    5  A    between atoms: C_6  and  N_7
REMARK    6  A    between atoms: N_7  and  C_8
REMARK    7  A    between atoms: N_7  and  S_19
REMARK    8  A    between atoms: C_8  and  C_9
REMARK    9  A    between atoms: C_11  and  O_12
REMARK   10  A    between atoms: O_12  and  C_13
REMARK   11  A    between atoms: C_16  and  O_17
REMARK   12  A    between atoms: O_17  and  C_18
REMARK   13  A    between atoms: S_19  and  C_22
REMARK                            x       y       z     vdW  Elec       q    Type
REMARK                         _______ _______ _______ _____ _____    ______ ____
ROOT
ATOM      1  N   UNL     1       2.761   5.497  17.611  0.00  0.00    +0.000 NA
ENDROOT
BRANCH   1   2
ATOM      2  S   UNL     1       1.878   4.000  17.608  0.00  0.00    +0.000 S 
ATOM      3  O   UNL     1       0.468   4.221  17.385  0.00  0.00    +0.000 OA
ATOM      4  O   UNL     1       2.632   3.111  16.743  0.00  0.00    +0.000 OA
BRANCH   2   5
ATOM      5  C   UNL     1       2.004   3.372  19.259  0.00  0.00    +0.000 A 
ATOM      6  C   UNL     1       1.157   3.940  20.223  0.00  0.00    +0.000 A 
ATOM      7  C   UNL     1       1.216   3.520  21.548  0.00  0.00    +0.000 A 
ATOM      8  C   UNL     1       2.121   2.532  21.920  0.00  0.00    +0.000 A 
ATOM      9  C   UNL     1       2.973   1.970  20.969  0.00  0.00    +0.000 A 
ATOM     10  C   UNL     1       2.926   2.388  19.631  0.00  0.00    +0.000 A 
ATOM     11 BR   UNL     1       4.144   1.547  18.445  0.00  0.00    +0.000 Br
ENDBRANCH   2   5
ENDBRANCH   1   2
BRANCH   1  12
ATOM     12  C   UNL     1       1.963   6.652  18.182  0.00  0.00    +0.000 C 
BRANCH  12  13
ATOM     13  C   UNL     1       2.532   7.120  19.518  0.00  0.00    +0.000 C 
BRANCH  13  14
ATOM     14  C   UNL     1       1.644   8.135  20.195  0.00  0.00    +0.000 C 
ATOM     15  O   UNL     1       1.256   8.091  21.351  0.00  0.00    +0.000 OA
BRANCH  14  17
ATOM     16  C   UNL     1       0.306  10.013  19.687  0.00  0.00    +0.000 C 
ATOM     17  O   UNL     1       1.354   9.125  19.299  0.00  0.00    +0.000 OA
ENDBRANCH  14  17
ENDBRANCH  13  14
ENDBRANCH  12  13
ENDBRANCH   1  12
BRANCH   1  18
ATOM     18  C   UNL     1       4.099   5.361  18.309  0.00  0.00    +0.000 C 
BRANCH  18  19
ATOM     19  C   UNL     1       5.302   5.187  17.413  0.00  0.00    +0.000 A 
ATOM     20  C   UNL     1       5.056   5.153  16.021  0.00  0.00    +0.000 A 
ATOM     21  C   UNL     1       6.023   4.722  15.110  0.00  0.00    +0.000 A 
ATOM     22  C   UNL     1       7.285   4.381  15.582  0.00  0.00    +0.000 A 
ATOM     23  C   UNL     1       7.573   4.497  16.947  0.00  0.00    +0.000 A 
ATOM     24  C   UNL     1       6.601   4.911  17.867  0.00  0.00    +0.000 A 
BRANCH  21  25
ATOM     25  O   UNL     1       5.595   4.636  13.813  0.00  0.00    +0.000 OA
ATOM     26  C   UNL     1       6.199   3.632  13.006  0.00  0.00    +0.000 C 
ENDBRANCH  21  25
BRANCH  24  27
ATOM     27  O   UNL     1       7.008   4.826  19.171  0.00  0.00    +0.000 OA
ATOM     28  C   UNL     1       7.946   5.793  19.627  0.00  0.00    +0.000 C 
ENDBRANCH  24  27
ENDBRANCH  18  19
ENDBRANCH   1  18
TORSDOF 10
ENDMDL
MODEL 7
REMARK VINA RESULT:      -5.5      3.077      6.202
REMARK  Name = 
REMARK  13 active torsions:
REMARK  status: ('A' for Active; 'I' for Inactive)
REMARK    1  A    between atoms: C_1  and  O_2
REMARK    2  A    between atoms: O_2  and  C_3
REMARK    3  A    between atoms: C_3  and  C_5
REMARK    4  A    between atoms: C_5  and  C_6
REMARK    5  A    between atoms: C_6  and  N_7
REMARK    6  A    between atoms: N_7  and  C_8
REMARK    7  A    between atoms: N_7  and  S_19
REMARK    8  A    between atoms: C_8  and  C_9
REMARK    9  A    between atoms: C_11  and  O_12
REMARK   10  A    between atoms: O_12  and  C_13
REMARK   11  A    between atoms: C_16  and  O_17
REMARK   12  A    between atoms: O_17  and  C_18
REMARK   13  A    between atoms: S_19  and  C_22
REMARK                            x       y       z     vdW  Elec       q    Type
REMARK                         _______ _______ _______ _____ _____    ______ ____
ROOT
ATOM      1  N   UNL     1       2.041   7.627  19.001  0.00  0.00    +0.000 NA
ENDROOT
BRANCH   1   2
ATOM      2  S   UNL     1       3.284   6.577  18.391  0.00  0.00    +0.000 S 
ATOM      3  O   UNL     1       3.595   6.875  17.012  0.00  0.00    +0.000 OA
ATOM      4  O   UNL     1       4.325   6.586  19.402  0.00  0.00    +0.000 OA
BRANCH   2   5
ATOM      5  C   UNL     1       2.568   4.957  18.375  0.00  0.00    +0.000 A 
ATOM      6  C   UNL     1       1.439   4.751  19.181  0.00  0.00    +0.000 A 
ATOM      7  C   UNL     1       0.836   3.499  19.243  0.00  0.00    +0.000 A 
ATOM      8  C   UNL     1       1.357   2.444  18.503  0.00  0.00    +0.000 A 
ATOM      9  C   UNL     1       2.485   2.639  17.706  0.00  0.00    +0.000 A 
ATOM     10  C   UNL     1       3.104   3.895  17.638  0.00  0.00    +0.000 A 
ATOM     11 BR   UNL     1       4.633   4.019  16.523  0.00  0.00    +0.000 Br
ENDBRANCH   2   5
ENDBRANCH   1   2
BRANCH   1  12
ATOM     12  C   UNL     1       2.142   7.856  20.496  0.00  0.00    +0.000 C 
BRANCH  12  13
ATOM     13  C   UNL     1       0.765   7.905  21.149  0.00  0.00    +0.000 C 
BRANCH  13  14
ATOM     14  C   UNL     1       0.674   8.970  22.215  0.00  0.00    +0.000 C 
ATOM     15  O   UNL     1       1.616   9.525  22.756  0.00  0.00    +0.000 OA
BRANCH  14  17
ATOM     16  C   UNL     1      -0.917  10.463  23.116  0.00  0.00    +0.000 C 
ATOM     17  O   UNL     1      -0.645   9.221  22.468  0.00  0.00    +0.000 OA
ENDBRANCH  14  17
ENDBRANCH  13  14
ENDBRANCH  12  13
ENDBRANCH   1  12
BRANCH   1  18
ATOM     18  C   UNL     1       1.995   8.942  18.249  0.00  0.00    +0.000 C 
BRANCH  18  19
ATOM     19  C   UNL     1       0.711   9.729  18.363  0.00  0.00    +0.000 A 
ATOM     20  C   UNL     1      -0.360   9.316  17.537  0.00  0.00    +0.000 A 
ATOM     21  C   UNL     1      -1.489  10.114  17.337  0.00  0.00    +0.000 A 
ATOM     22  C   UNL     1      -1.590  11.317  18.025  0.00  0.00    +0.000 A 
ATOM     23  C   UNL     1      -0.581  11.696  18.918  0.00  0.00    +0.000 A 
ATOM     24  C   UNL     1       0.562  10.909  19.107  0.00  0.00    +0.000 A 
BRANCH  21  25
ATOM     25  O   UNL     1      -2.383   9.630  16.422  0.00  0.00    +0.000 OA
ATOM     26  C   UNL     1      -3.225  10.583  15.785  0.00  0.00    +0.000 C 
ENDBRANCH  21  25
BRANCH  24  27
ATOM     27  O   UNL     1       1.510  11.499  19.898  0.00  0.00    +0.000 OA
ATOM     28  C   UNL     1       1.102  12.606  20.692  0.00  0.00    +0.000 C 
ENDBRANCH  24  27
ENDBRANCH  18  19
ENDBRANCH   1  18
TORSDOF 10
ENDMDL
MODEL 8
REMARK VINA RESULT:      -5.5      2.830      5.663
REMARK  Name = 
REMARK  13 active torsions:
REMARK  status: ('A' for Active; 'I' for Inactive)
REMARK    1  A    between atoms: C_1  and  O_2
REMARK    2  A    between atoms: O_2  and  C_3
REMARK    3  A    between atoms: C_3  and  C_5
REMARK    4  A    between atoms: C_5  and  C_6
REMARK    5  A    between atoms: C_6  and  N_7
REMARK    6  A    between atoms: N_7  and  C_8
REMARK    7  A    between atoms: N_7  and  S_19
REMARK    8  A    between atoms: C_8  and  C_9
REMARK    9  A    between atoms: C_11  and  O_12
REMARK   10  A    between atoms: O_12  and  C_13
REMARK   11  A    between atoms: C_16  and  O_17
REMARK   12  A    between atoms: O_17  and  C_18
REMARK   13  A    between atoms: S_19  and  C_22
REMARK                            x       y       z     vdW  Elec       q    Type
REMARK                         _______ _______ _______ _____ _____    ______ ____
ROOT
ATOM      1  N   UNL     1       2.642   7.373  18.130  0.00  0.00    +0.000 NA
ENDROOT
BRANCH   1   2
ATOM      2  S   UNL     1       1.747   8.858  18.009  0.00  0.00    +0.000 S 
ATOM      3  O   UNL     1       2.606   9.962  17.650  0.00  0.00    +0.000 OA
ATOM      4  O   UNL     1       0.580   8.538  17.207  0.00  0.00    +0.000 OA
BRANCH   2   5
ATOM      5  C   UNL     1       1.187   9.207  19.652  0.00  0.00    +0.000 A 
ATOM      6  C   UNL     1       1.683   8.392  20.681  0.00  0.00    +0.000 A 
ATOM      7  C   UNL     1       1.269   8.587  21.995  0.00  0.00    +0.000 A 
ATOM      8  C   UNL     1       0.357   9.594  22.290  0.00  0.00    +0.000 A 
ATOM      9  C   UNL     1      -0.147  10.402  21.271  0.00  0.00    +0.000 A 
ATOM     10  C   UNL     1       0.259  10.213  19.943  0.00  0.00    +0.000 A 
ATOM     11 BR   UNL     1      -0.510  11.375  18.656  0.00  0.00    +0.000 Br
ENDBRANCH   2   5
ENDBRANCH   1   2
BRANCH   1  12
ATOM     12  C   UNL     1       1.754   6.145  18.120  0.00  0.00    +0.000 C 
BRANCH  12  13
ATOM     13  C   UNL     1       2.089   5.202  19.272  0.00  0.00    +0.000 C 
BRANCH  13  14
ATOM     14  C   UNL     1       1.308   3.912  19.203  0.00  0.00    +0.000 C 
ATOM     15  O   UNL     1       0.990   3.321  18.184  0.00  0.00    +0.000 OA
BRANCH  14  17
ATOM     16  C   UNL     1       2.074   3.697  21.425  0.00  0.00    +0.000 C 
ATOM     17  O   UNL     1       1.026   3.506  20.476  0.00  0.00    +0.000 OA
ENDBRANCH  14  17
ENDBRANCH  13  14
ENDBRANCH  12  13
ENDBRANCH   1  12
BRANCH   1  18
ATOM     18  C   UNL     1       3.719   7.276  17.068  0.00  0.00    +0.000 C 
BRANCH  18  19
ATOM     19  C   UNL     1       4.964   6.512  17.451  0.00  0.00    +0.000 A 
ATOM     20  C   UNL     1       6.062   7.277  17.907  0.00  0.00    +0.000 A 
ATOM     21  C   UNL     1       7.344   6.735  18.022  0.00  0.00    +0.000 A 
ATOM     22  C   UNL     1       7.529   5.386  17.744  0.00  0.00    +0.000 A 
ATOM     23  C   UNL     1       6.435   4.593  17.380  0.00  0.00    +0.000 A 
ATOM     24  C   UNL     1       5.150   5.137  17.244  0.00  0.00    +0.000 A 
BRANCH  21  25
ATOM     25  O   UNL     1       8.320   7.630  18.366  0.00  0.00    +0.000 OA
ATOM     26  C   UNL     1       8.143   8.970  17.921  0.00  0.00    +0.000 C 
ENDBRANCH  21  25
BRANCH  24  27
ATOM     27  O   UNL     1       4.232   4.256  16.740  0.00  0.00    +0.000 OA
ATOM     28  C   UNL     1       4.241   2.933  17.262  0.00  0.00    +0.000 C 
ENDBRANCH  24  27
ENDBRANCH  18  19
ENDBRANCH   1  18
TORSDOF 10
ENDMDL
MODEL 9
REMARK VINA RESULT:      -5.5      3.103      6.502
REMARK  Name = 
REMARK  13 active torsions:
REMARK  status: ('A' for Active; 'I' for Inactive)
REMARK    1  A    between atoms: C_1  and  O_2
REMARK    2  A    between atoms: O_2  and  C_3
REMARK    3  A    between atoms: C_3  and  C_5
REMARK    4  A    between atoms: C_5  and  C_6
REMARK    5  A    between atoms: C_6  and  N_7
REMARK    6  A    between atoms: N_7  and  C_8
REMARK    7  A    between atoms: N_7  and  S_19
REMARK    8  A    between atoms: C_8  and  C_9
REMARK    9  A    between atoms: C_11  and  O_12
REMARK   10  A    between atoms: O_12  and  C_13
REMARK   11  A    between atoms: C_16  and  O_17
REMARK   12  A    between atoms: O_17  and  C_18
REMARK   13  A    between atoms: S_19  and  C_22
REMARK                            x       y       z     vdW  Elec       q    Type
REMARK                         _______ _______ _______ _____ _____    ______ ____
ROOT
ATOM      1  N   UNL     1       5.566   4.237  16.547  0.00  0.00    +0.000 NA
ENDROOT
BRANCH   1   2
ATOM      2  S   UNL     1       6.269   5.339  15.401  0.00  0.00    +0.000 S 
ATOM      3  O   UNL     1       5.442   6.510  15.222  0.00  0.00    +0.000 OA
ATOM      4  O   UNL     1       7.659   5.468  15.796  0.00  0.00    +0.000 OA
BRANCH   2   5
ATOM      5  C   UNL     1       6.231   4.491  13.847  0.00  0.00    +0.000 A 
ATOM      6  C   UNL     1       5.194   3.567  13.649  0.00  0.00    +0.000 A 
ATOM      7  C   UNL     1       5.112   2.842  12.464  0.00  0.00    +0.000 A 
ATOM      8  C   UNL     1       6.066   3.032  11.471  0.00  0.00    +0.000 A 
ATOM      9  C   UNL     1       7.106   3.942  11.664  0.00  0.00    +0.000 A 
ATOM     10  C   UNL     1       7.201   4.676  12.855  0.00  0.00    +0.000 A 
ATOM     11 BR   UNL     1       8.667   5.871  12.990  0.00  0.00    +0.000 Br
ENDBRANCH   2   5
ENDBRANCH   1   2
BRANCH   1  12
ATOM     12  C   UNL     1       6.060   4.461  17.962  0.00  0.00    +0.000 C 
BRANCH  12  13
ATOM     13  C   UNL     1       6.424   5.922  18.203  0.00  0.00    +0.000 C 
BRANCH  13  14
ATOM     14  C   UNL     1       7.563   6.075  19.181  0.00  0.00    +0.000 C 
ATOM     15  O   UNL     1       7.736   5.412  20.190  0.00  0.00    +0.000 OA
BRANCH  14  17
ATOM     16  C   UNL     1       7.785   7.999  17.831  0.00  0.00    +0.000 C 
ATOM     17  O   UNL     1       8.382   7.076  18.741  0.00  0.00    +0.000 OA
ENDBRANCH  14  17
ENDBRANCH  13  14
ENDBRANCH  12  13
ENDBRANCH   1  12
BRANCH   1  18
ATOM     18  C   UNL     1       4.051   4.253  16.489  0.00  0.00    +0.000 C 
BRANCH  18  19
ATOM     19  C   UNL     1       3.340   4.609  17.773  0.00  0.00    +0.000 A 
ATOM     20  C   UNL     1       2.941   5.957  17.923  0.00  0.00    +0.000 A 
ATOM     21  C   UNL     1       2.535   6.474  19.156  0.00  0.00    +0.000 A 
ATOM     22  C   UNL     1       2.459   5.620  20.249  0.00  0.00    +0.000 A 
ATOM     23  C   UNL     1       2.763   4.262  20.095  0.00  0.00    +0.000 A 
ATOM     24  C   UNL     1       3.188   3.742  18.866  0.00  0.00    +0.000 A 
BRANCH  21  25
ATOM     25  O   UNL     1       2.291   7.820  19.164  0.00  0.00    +0.000 OA
ATOM     26  C   UNL     1       2.193   8.459  17.896  0.00  0.00    +0.000 C 
ENDBRANCH  21  25
BRANCH  24  27
ATOM     27  O   UNL     1       3.583   2.434  18.931  0.00  0.00    +0.000 OA
ATOM     28  C   UNL     1       4.376   2.045  20.045  0.00  0.00    +0.000 C 
ENDBRANCH  24  27
ENDBRANCH  18  19
ENDBRANCH   1  18
TORSDOF 10
ENDMDL
