MODEL 1
REMARK VINA RESULT:      -9.8      0.000      0.000
REMARK  Name = 
REMARK  7 active torsions:
REMARK  status: ('A' for Active; 'I' for Inactive)
REMARK    1  A    between atoms: C_1  and  C_2
REMARK    2  A    between atoms: C_2  and  C_3
REMARK    3  A    between atoms: C_2  and  C_4
REMARK    4  A    between atoms: C_2  and  C_5
REMARK    5  A    between atoms: C_8  and  C_9
REMARK    6  A    between atoms: N_11  and  N_12
REMARK    7  A    between atoms: C_22  and  C_23
REMARK                            x       y       z     vdW  Elec       q    Type
REMARK                         _______ _______ _______ _____ _____    ______ ____
ROOT
ATOM      1  N   UNL     1       3.172   6.961  19.027  0.00  0.00    +0.000 NA
ATOM      2  C   UNL     1       2.981   5.681  18.911  0.00  0.00    +0.000 C 
ATOM      3  C   UNL     1       1.678   4.932  19.149  0.00  0.00    +0.000 C 
ATOM      4  C   UNL     1       1.956   3.976  20.303  0.00  0.00    +0.000 C 
ATOM      5  N   UNL     1       2.996   2.981  20.029  0.00  0.00    +0.000 NA
ATOM      6  C   UNL     1       2.512   1.881  19.189  0.00  0.00    +0.000 C 
ATOM      7  C   UNL     1       2.505   2.092  17.666  0.00  0.00    +0.000 C 
ATOM      8  N   UNL     1       2.317   3.456  17.158  0.00  0.00    +0.000 NA
ATOM      9  C   UNL     1       1.270   4.224  17.843  0.00  0.00    +0.000 C 
ATOM     10  C   UNL     1       3.593   4.191  17.110  0.00  0.00    +0.000 C 
ATOM     11  C   UNL     1       4.122   4.746  18.464  0.00  0.00    +0.000 C 
ATOM     12  C   UNL     1       4.240   3.603  19.529  0.00  0.00    +0.000 C 
ENDROOT
BRANCH  11  13
ATOM     13  C   UNL     1       5.503   5.433  18.322  0.00  0.00    +0.000 A 
ATOM     14  C   UNL     1       6.524   5.304  19.281  0.00  0.00    +0.000 A 
ATOM     15  C   UNL     1       7.728   6.007  19.162  0.00  0.00    +0.000 A 
ATOM     16  C   UNL     1       7.940   6.850  18.077  0.00  0.00    +0.000 A 
ATOM     17  C   UNL     1       6.958   6.977  17.104  0.00  0.00    +0.000 A 
ATOM     18  C   UNL     1       5.756   6.277  17.223  0.00  0.00    +0.000 A 
ENDBRANCH  11  13
BRANCH   1  21
ATOM     19  C   UNL     1       1.754   8.833  18.595  0.00  0.00    +0.000 C 
ATOM     20  O   UNL     1       2.203   9.053  17.475  0.00  0.00    +0.000 OA
ATOM     21  N   UNL     1       2.182   7.810  19.446  0.00  0.00    +0.000 N 
ATOM     22  H   UNL     1       1.880   7.800  20.409  0.00  0.00    +0.000 HD
BRANCH  19  26
ATOM     23  C   UNL     1      -1.362  11.479  20.068  0.00  0.00    +0.000 A 
ATOM     24  C   UNL     1      -0.440  10.882  20.945  0.00  0.00    +0.000 A 
ATOM     25  C   UNL     1       0.573  10.024  20.486  0.00  0.00    +0.000 A 
ATOM     26  C   UNL     1       0.683   9.727  19.129  0.00  0.00    +0.000 A 
ATOM     27  C   UNL     1      -0.265  10.261  18.247  0.00  0.00    +0.000 A 
ATOM     28  C   UNL     1      -1.273  11.122  18.709  0.00  0.00    +0.000 A 
BRANCH  23  30
ATOM     29  C   UNL     1      -2.738  12.377  22.051  0.00  0.00    +0.000 C 
ATOM     30  C   UNL     1      -2.404  12.513  20.547  0.00  0.00    +0.000 C 
ATOM     31  C   UNL     1      -3.729  12.382  19.768  0.00  0.00    +0.000 C 
ATOM     32  C   UNL     1      -1.852  13.941  20.334  0.00  0.00    +0.000 C 
ENDBRANCH  23  30
ENDBRANCH  19  26
ENDBRANCH   1  21
TORSDOF 4
ENDMDL
MODEL 2
REMARK VINA RESULT:      -9.6      0.133      1.170
REMARK  Name = 
REMARK  7 active torsions:
REMARK  status: ('A' for Active; 'I' for Inactive)
REMARK    1  A    between atoms: C_1  and  C_2
REMARK    2  A    between atoms: C_2  and  C_3
REMARK    3  A    between atoms: C_2  and  C_4
REMARK    4  A    between atoms: C_2  and  C_5
REMARK    5  A    between atoms: C_8  and  C_9
REMARK    6  A    between atoms: N_11  and  N_12
REMARK    7  A    between atoms: C_22  and  C_23
REMARK                            x       y       z     vdW  Elec       q    Type
REMARK                         _______ _______ _______ _____ _____    ______ ____
ROOT
ATOM      1  N   UNL     1       3.105   7.016  19.067  0.00  0.00    +0.000 NA
ATOM      2  C   UNL     1       2.913   5.738  18.938  0.00  0.00    +0.000 C 
ATOM      3  C   UNL     1       1.606   4.989  19.155  0.00  0.00    +0.000 C 
ATOM      4  C   UNL     1       1.868   4.023  20.303  0.00  0.00    +0.000 C 
ATOM      5  N   UNL     1       2.910   3.028  20.033  0.00  0.00    +0.000 NA
ATOM      6  C   UNL     1       2.434   1.936  19.179  0.00  0.00    +0.000 C 
ATOM      7  C   UNL     1       2.445   2.160  17.658  0.00  0.00    +0.000 C 
ATOM      8  N   UNL     1       2.266   3.529  17.159  0.00  0.00    +0.000 NA
ATOM      9  C   UNL     1       1.212   4.293  17.838  0.00  0.00    +0.000 C 
ATOM     10  C   UNL     1       3.543   4.262  17.132  0.00  0.00    +0.000 C 
ATOM     11  C   UNL     1       4.058   4.805  18.496  0.00  0.00    +0.000 C 
ATOM     12  C   UNL     1       4.161   3.652  19.554  0.00  0.00    +0.000 C 
ENDROOT
BRANCH  11  13
ATOM     13  C   UNL     1       5.441   5.490  18.377  0.00  0.00    +0.000 A 
ATOM     14  C   UNL     1       5.825   6.251  17.258  0.00  0.00    +0.000 A 
ATOM     15  C   UNL     1       7.114   6.784  17.147  0.00  0.00    +0.000 A 
ATOM     16  C   UNL     1       8.045   6.575  18.157  0.00  0.00    +0.000 A 
ATOM     17  C   UNL     1       7.685   5.849  19.284  0.00  0.00    +0.000 A 
ATOM     18  C   UNL     1       6.399   5.315  19.394  0.00  0.00    +0.000 A 
ENDBRANCH  11  13
BRANCH   1  21
ATOM     19  C   UNL     1       1.697   8.896  18.636  0.00  0.00    +0.000 C 
ATOM     20  O   UNL     1       2.162   9.126  17.524  0.00  0.00    +0.000 OA
ATOM     21  N   UNL     1       2.111   7.863  19.481  0.00  0.00    +0.000 N 
ATOM     22  H   UNL     1       1.796   7.845  20.440  0.00  0.00    +0.000 HD
BRANCH  19  26
ATOM     23  C   UNL     1      -1.439  11.528  20.090  0.00  0.00    +0.000 A 
ATOM     24  C   UNL     1      -0.443  11.037  20.953  0.00  0.00    +0.000 A 
ATOM     25  C   UNL     1       0.577  10.185  20.499  0.00  0.00    +0.000 A 
ATOM     26  C   UNL     1       0.622   9.787  19.164  0.00  0.00    +0.000 A 
ATOM     27  C   UNL     1      -0.397  10.215  18.303  0.00  0.00    +0.000 A 
ATOM     28  C   UNL     1      -1.413  11.070  18.759  0.00  0.00    +0.000 A 
BRANCH  23  30
ATOM     29  C   UNL     1      -3.823  12.447  19.768  0.00  0.00    +0.000 C 
ATOM     30  C   UNL     1      -2.494  12.556  20.552  0.00  0.00    +0.000 C 
ATOM     31  C   UNL     1      -1.982  14.003  20.390  0.00  0.00    +0.000 C 
ATOM     32  C   UNL     1      -2.829  12.320  22.043  0.00  0.00    +0.000 C 
ENDBRANCH  23  30
ENDBRANCH  19  26
ENDBRANCH   1  21
TORSDOF 4
ENDMDL
MODEL 3
REMARK VINA RESULT:      -9.5      0.198      1.163
REMARK  Name = 
REMARK  7 active torsions:
REMARK  status: ('A' for Active; 'I' for Inactive)
REMARK    1  A    between atoms: C_1  and  C_2
REMARK    2  A    between atoms: C_2  and  C_3
REMARK    3  A    between atoms: C_2  and  C_4
REMARK    4  A    between atoms: C_2  and  C_5
REMARK    5  A    between atoms: C_8  and  C_9
REMARK    6  A    between atoms: N_11  and  N_12
REMARK    7  A    between atoms: C_22  and  C_23
REMARK                            x       y       z     vdW  Elec       q    Type
REMARK                         _______ _______ _______ _____ _____    ______ ____
ROOT
ATOM      1  N   UNL     1       3.163   7.034  18.976  0.00  0.00    +0.000 NA
ATOM      2  C   UNL     1       2.943   5.757  18.889  0.00  0.00    +0.000 C 
ATOM      3  C   UNL     1       1.618   5.046  19.116  0.00  0.00    +0.000 C 
ATOM      4  C   UNL     1       1.846   4.114  20.300  0.00  0.00    +0.000 C 
ATOM      5  N   UNL     1       2.867   3.087  20.076  0.00  0.00    +0.000 NA
ATOM      6  C   UNL     1       2.375   1.977  19.254  0.00  0.00    +0.000 C 
ATOM      7  C   UNL     1       2.407   2.149  17.726  0.00  0.00    +0.000 C 
ATOM      8  N   UNL     1       2.264   3.503  17.179  0.00  0.00    +0.000 NA
ATOM      9  C   UNL     1       1.221   4.314  17.820  0.00  0.00    +0.000 C 
ATOM     10  C   UNL     1       3.559   4.206  17.142  0.00  0.00    +0.000 C 
ATOM     11  C   UNL     1       4.071   4.784  18.492  0.00  0.00    +0.000 C 
ATOM     12  C   UNL     1       4.137   3.666  19.589  0.00  0.00    +0.000 C 
ENDROOT
BRANCH  11  13
ATOM     13  C   UNL     1       5.471   5.433  18.365  0.00  0.00    +0.000 A 
ATOM     14  C   UNL     1       6.484   5.264  19.325  0.00  0.00    +0.000 A 
ATOM     15  C   UNL     1       7.708   5.935  19.220  0.00  0.00    +0.000 A 
ATOM     16  C   UNL     1       7.948   6.784  18.147  0.00  0.00    +0.000 A 
ATOM     17  C   UNL     1       6.974   6.951  17.172  0.00  0.00    +0.000 A 
ATOM     18  C   UNL     1       5.752   6.283  17.278  0.00  0.00    +0.000 A 
ENDBRANCH  11  13
BRANCH   1  21
ATOM     19  C   UNL     1       1.774   8.904  18.450  0.00  0.00    +0.000 C 
ATOM     20  O   UNL     1       2.228   9.062  17.322  0.00  0.00    +0.000 OA
ATOM     21  N   UNL     1       2.185   7.917  19.351  0.00  0.00    +0.000 N 
ATOM     22  H   UNL     1       1.880   7.959  20.312  0.00  0.00    +0.000 HD
BRANCH  19  26
ATOM     23  C   UNL     1      -1.288  11.597  19.951  0.00  0.00    +0.000 A 
ATOM     24  C   UNL     1      -1.362  11.062  18.653  0.00  0.00    +0.000 A 
ATOM     25  C   UNL     1      -0.380  10.191  18.152  0.00  0.00    +0.000 A 
ATOM     26  C   UNL     1       0.716   9.839  18.937  0.00  0.00    +0.000 A 
ATOM     27  C   UNL     1       0.841  10.411  20.209  0.00  0.00    +0.000 A 
ATOM     28  C   UNL     1      -0.145  11.278  20.708  0.00  0.00    +0.000 A 
BRANCH  23  30
ATOM     29  C   UNL     1      -2.127  13.976  20.465  0.00  0.00    +0.000 C 
ATOM     30  C   UNL     1      -2.419  12.460  20.552  0.00  0.00    +0.000 C 
ATOM     31  C   UNL     1      -2.657  12.122  22.038  0.00  0.00    +0.000 C 
ATOM     32  C   UNL     1      -3.732  12.207  19.776  0.00  0.00    +0.000 C 
ENDBRANCH  23  30
ENDBRANCH  19  26
ENDBRANCH   1  21
TORSDOF 4
ENDMDL
MODEL 4
REMARK VINA RESULT:      -9.4      0.270      1.229
REMARK  Name = 
REMARK  7 active torsions:
REMARK  status: ('A' for Active; 'I' for Inactive)
REMARK    1  A    between atoms: C_1  and  C_2
REMARK    2  A    between atoms: C_2  and  C_3
REMARK    3  A    between atoms: C_2  and  C_4
REMARK    4  A    between atoms: C_2  and  C_5
REMARK    5  A    between atoms: C_8  and  C_9
REMARK    6  A    between atoms: N_11  and  N_12
REMARK    7  A    between atoms: C_22  and  C_23
REMARK                            x       y       z     vdW  Elec       q    Type
REMARK                         _______ _______ _______ _____ _____    ______ ____
ROOT
ATOM      1  N   UNL     1       3.077   7.109  18.995  0.00  0.00    +0.000 NA
ATOM      2  C   UNL     1       2.875   5.829  18.906  0.00  0.00    +0.000 C 
ATOM      3  C   UNL     1       1.556   5.100  19.115  0.00  0.00    +0.000 C 
ATOM      4  C   UNL     1       1.781   4.171  20.302  0.00  0.00    +0.000 C 
ATOM      5  N   UNL     1       2.819   3.159  20.091  0.00  0.00    +0.000 NA
ATOM      6  C   UNL     1       2.353   2.042  19.263  0.00  0.00    +0.000 C 
ATOM      7  C   UNL     1       2.403   2.214  17.736  0.00  0.00    +0.000 C 
ATOM      8  N   UNL     1       2.249   3.567  17.187  0.00  0.00    +0.000 NA
ATOM      9  C   UNL     1       1.187   4.363  17.814  0.00  0.00    +0.000 C 
ATOM     10  C   UNL     1       3.534   4.287  17.166  0.00  0.00    +0.000 C 
ATOM     11  C   UNL     1       4.021   4.871  18.523  0.00  0.00    +0.000 C 
ATOM     12  C   UNL     1       4.088   3.754  19.621  0.00  0.00    +0.000 C 
ENDROOT
BRANCH  11  13
ATOM     13  C   UNL     1       5.413   5.539  18.415  0.00  0.00    +0.000 A 
ATOM     14  C   UNL     1       5.788   6.358  17.334  0.00  0.00    +0.000 A 
ATOM     15  C   UNL     1       7.084   6.876  17.227  0.00  0.00    +0.000 A 
ATOM     16  C   UNL     1       8.031   6.593  18.203  0.00  0.00    +0.000 A 
ATOM     17  C   UNL     1       7.681   5.808  19.293  0.00  0.00    +0.000 A 
ATOM     18  C   UNL     1       6.388   5.289  19.399  0.00  0.00    +0.000 A 
ENDBRANCH  11  13
BRANCH   1  21
ATOM     19  C   UNL     1       1.716   9.002  18.478  0.00  0.00    +0.000 C 
ATOM     20  O   UNL     1       2.226   9.205  17.381  0.00  0.00    +0.000 OA
ATOM     21  N   UNL     1       2.082   7.979  19.357  0.00  0.00    +0.000 N 
ATOM     22  H   UNL     1       1.730   7.982  20.303  0.00  0.00    +0.000 HD
BRANCH  19  26
ATOM     23  C   UNL     1      -1.404  11.651  19.936  0.00  0.00    +0.000 A 
ATOM     24  C   UNL     1      -1.512  11.020  18.685  0.00  0.00    +0.000 A 
ATOM     25  C   UNL     1      -0.512  10.161  18.198  0.00  0.00    +0.000 A 
ATOM     26  C   UNL     1       0.636   9.919  18.950  0.00  0.00    +0.000 A 
ATOM     27  C   UNL     1       0.791  10.589  20.170  0.00  0.00    +0.000 A 
ATOM     28  C   UNL     1      -0.212  11.443  20.655  0.00  0.00    +0.000 A 
BRANCH  23  30
ATOM     29  C   UNL     1      -2.820  12.187  22.020  0.00  0.00    +0.000 C 
ATOM     30  C   UNL     1      -2.548  12.502  20.530  0.00  0.00    +0.000 C 
ATOM     31  C   UNL     1      -3.870  12.283  19.765  0.00  0.00    +0.000 C 
ATOM     32  C   UNL     1      -2.176  14.000  20.445  0.00  0.00    +0.000 C 
ENDBRANCH  23  30
ENDBRANCH  19  26
ENDBRANCH   1  21
TORSDOF 4
ENDMDL
MODEL 5
REMARK VINA RESULT:      -9.4      0.737      1.103
REMARK  Name = 
REMARK  7 active torsions:
REMARK  status: ('A' for Active; 'I' for Inactive)
REMARK    1  A    between atoms: C_1  and  C_2
REMARK    2  A    between atoms: C_2  and  C_3
REMARK    3  A    between atoms: C_2  and  C_4
REMARK    4  A    between atoms: C_2  and  C_5
REMARK    5  A    between atoms: C_8  and  C_9
REMARK    6  A    between atoms: N_11  and  N_12
REMARK    7  A    between atoms: C_22  and  C_23
REMARK                            x       y       z     vdW  Elec       q    Type
REMARK                         _______ _______ _______ _____ _____    ______ ____
ROOT
ATOM      1  N   UNL     1       3.223   6.856  19.476  0.00  0.00    +0.000 NA
ATOM      2  C   UNL     1       2.989   5.593  19.282  0.00  0.00    +0.000 C 
ATOM      3  C   UNL     1       1.706   4.846  19.613  0.00  0.00    +0.000 C 
ATOM      4  C   UNL     1       2.094   3.793  20.644  0.00  0.00    +0.000 C 
ATOM      5  N   UNL     1       3.071   2.810  20.168  0.00  0.00    +0.000 NA
ATOM      6  C   UNL     1       2.465   1.790  19.306  0.00  0.00    +0.000 C 
ATOM      7  C   UNL     1       2.283   2.127  17.817  0.00  0.00    +0.000 C 
ATOM      8  N   UNL     1       2.069   3.531  17.447  0.00  0.00    +0.000 NA
ATOM      9  C   UNL     1       1.129   4.254  18.312  0.00  0.00    +0.000 C 
ATOM     10  C   UNL     1       3.348   4.249  17.306  0.00  0.00    +0.000 C 
ATOM     11  C   UNL     1       4.046   4.682  18.627  0.00  0.00    +0.000 C 
ATOM     12  C   UNL     1       4.262   3.453  19.575  0.00  0.00    +0.000 C 
ENDROOT
BRANCH  11  13
ATOM     13  C   UNL     1       5.417   5.359  18.377  0.00  0.00    +0.000 A 
ATOM     14  C   UNL     1       6.486   5.282  19.288  0.00  0.00    +0.000 A 
ATOM     15  C   UNL     1       7.681   5.977  19.068  0.00  0.00    +0.000 A 
ATOM     16  C   UNL     1       7.836   6.757  17.929  0.00  0.00    +0.000 A 
ATOM     17  C   UNL     1       6.805   6.831  17.002  0.00  0.00    +0.000 A 
ATOM     18  C   UNL     1       5.612   6.139  17.221  0.00  0.00    +0.000 A 
ENDBRANCH  11  13
BRANCH   1  21
ATOM     19  C   UNL     1       1.733   8.716  19.338  0.00  0.00    +0.000 C 
ATOM     20  O   UNL     1       1.982   8.968  18.163  0.00  0.00    +0.000 OA
ATOM     21  N   UNL     1       2.310   7.681  20.078  0.00  0.00    +0.000 N 
ATOM     22  H   UNL     1       2.176   7.646  21.078  0.00  0.00    +0.000 HD
BRANCH  19  26
ATOM     23  C   UNL     1      -1.082  11.306  21.400  0.00  0.00    +0.000 A 
ATOM     24  C   UNL     1      -0.389  10.293  22.085  0.00  0.00    +0.000 A 
ATOM     25  C   UNL     1       0.524   9.447  21.434  0.00  0.00    +0.000 A 
ATOM     26  C   UNL     1       0.760   9.583  20.067  0.00  0.00    +0.000 A 
ATOM     27  C   UNL     1       0.031  10.544  19.354  0.00  0.00    +0.000 A 
ATOM     28  C   UNL     1      -0.877  11.391  20.009  0.00  0.00    +0.000 A 
BRANCH  23  30
ATOM     29  C   UNL     1      -1.260  13.612  22.531  0.00  0.00    +0.000 C 
ATOM     30  C   UNL     1      -1.998  12.314  22.127  0.00  0.00    +0.000 C 
ATOM     31  C   UNL     1      -2.597  11.706  23.413  0.00  0.00    +0.000 C 
ATOM     32  C   UNL     1      -3.159  12.726  21.194  0.00  0.00    +0.000 C 
ENDBRANCH  23  30
ENDBRANCH  19  26
ENDBRANCH   1  21
TORSDOF 4
ENDMDL
MODEL 6
REMARK VINA RESULT:      -9.2      0.843      1.322
REMARK  Name = 
REMARK  7 active torsions:
REMARK  status: ('A' for Active; 'I' for Inactive)
REMARK    1  A    between atoms: C_1  and  C_2
REMARK    2  A    between atoms: C_2  and  C_3
REMARK    3  A    between atoms: C_2  and  C_4
REMARK    4  A    between atoms: C_2  and  C_5
REMARK    5  A    between atoms: C_8  and  C_9
REMARK    6  A    between atoms: N_11  and  N_12
REMARK    7  A    between atoms: C_22  and  C_23
REMARK                            x       y       z     vdW  Elec       q    Type
REMARK                         _______ _______ _______ _____ _____    ______ ____
ROOT
ATOM      1  N   UNL     1       3.063   6.819  19.538  0.00  0.00    +0.000 NA
ATOM      2  C   UNL     1       2.839   5.548  19.389  0.00  0.00    +0.000 C 
ATOM      3  C   UNL     1       1.579   4.795  19.787  0.00  0.00    +0.000 C 
ATOM      4  C   UNL     1       2.017   3.779  20.834  0.00  0.00    +0.000 C 
ATOM      5  N   UNL     1       2.990   2.794  20.353  0.00  0.00    +0.000 NA
ATOM      6  C   UNL     1       2.368   1.741  19.543  0.00  0.00    +0.000 C 
ATOM      7  C   UNL     1       2.129   2.031  18.053  0.00  0.00    +0.000 C 
ATOM      8  N   UNL     1       1.884   3.421  17.649  0.00  0.00    +0.000 NA
ATOM      9  C   UNL     1       0.965   4.157  18.525  0.00  0.00    +0.000 C 
ATOM     10  C   UNL     1       3.147   4.150  17.442  0.00  0.00    +0.000 C 
ATOM     11  C   UNL     1       3.885   4.632  18.724  0.00  0.00    +0.000 C 
ATOM     12  C   UNL     1       4.151   3.433  19.699  0.00  0.00    +0.000 C 
ENDROOT
BRANCH  11  13
ATOM     13  C   UNL     1       5.237   5.318  18.406  0.00  0.00    +0.000 A 
ATOM     14  C   UNL     1       5.516   5.922  17.167  0.00  0.00    +0.000 A 
ATOM     15  C   UNL     1       6.778   6.458  16.886  0.00  0.00    +0.000 A 
ATOM     16  C   UNL     1       7.787   6.407  17.841  0.00  0.00    +0.000 A 
ATOM     17  C   UNL     1       7.530   5.838  19.081  0.00  0.00    +0.000 A 
ATOM     18  C   UNL     1       6.271   5.302  19.361  0.00  0.00    +0.000 A 
ENDBRANCH  11  13
BRANCH   1  21
ATOM     19  C   UNL     1       1.613   8.713  19.423  0.00  0.00    +0.000 C 
ATOM     20  O   UNL     1       1.881   8.984  18.257  0.00  0.00    +0.000 OA
ATOM     21  N   UNL     1       2.160   7.650  20.147  0.00  0.00    +0.000 N 
ATOM     22  H   UNL     1       2.014   7.596  21.144  0.00  0.00    +0.000 HD
BRANCH  19  26
ATOM     23  C   UNL     1      -1.170  11.317  21.509  0.00  0.00    +0.000 A 
ATOM     24  C   UNL     1      -0.514  10.269  22.178  0.00  0.00    +0.000 A 
ATOM     25  C   UNL     1       0.388   9.417  21.518  0.00  0.00    +0.000 A 
ATOM     26  C   UNL     1       0.650   9.584  20.160  0.00  0.00    +0.000 A 
ATOM     27  C   UNL     1      -0.042  10.582  19.462  0.00  0.00    +0.000 A 
ATOM     28  C   UNL     1      -0.941  11.434  20.125  0.00  0.00    +0.000 A 
BRANCH  23  30
ATOM     29  C   UNL     1      -2.688  11.749  23.545  0.00  0.00    +0.000 C 
ATOM     30  C   UNL     1      -2.073  12.328  22.250  0.00  0.00    +0.000 C 
ATOM     31  C   UNL     1      -3.240  12.801  21.358  0.00  0.00    +0.000 C 
ATOM     32  C   UNL     1      -1.238  13.564  22.658  0.00  0.00    +0.000 C 
ENDBRANCH  23  30
ENDBRANCH  19  26
ENDBRANCH   1  21
TORSDOF 4
ENDMDL
MODEL 7
REMARK VINA RESULT:      -9.0      1.020      1.579
REMARK  Name = 
REMARK  7 active torsions:
REMARK  status: ('A' for Active; 'I' for Inactive)
REMARK    1  A    between atoms: C_1  and  C_2
REMARK    2  A    between atoms: C_2  and  C_3
REMARK    3  A    between atoms: C_2  and  C_4
REMARK    4  A    between atoms: C_2  and  C_5
REMARK    5  A    between atoms: C_8  and  C_9
REMARK    6  A    between atoms: N_11  and  N_12
REMARK    7  A    between atoms: C_22  and  C_23
REMARK                            x       y       z     vdW  Elec       q    Type
REMARK                         _______ _______ _______ _____ _____    ______ ____
ROOT
ATOM      1  N   UNL     1       3.020   6.706  19.379  0.00  0.00    +0.000 NA
ATOM      2  C   UNL     1       2.759   5.434  19.427  0.00  0.00    +0.000 C 
ATOM      3  C   UNL     1       1.560   4.778  20.095  0.00  0.00    +0.000 C 
ATOM      4  C   UNL     1       2.134   3.886  21.190  0.00  0.00    +0.000 C 
ATOM      5  N   UNL     1       3.011   2.818  20.704  0.00  0.00    +0.000 NA
ATOM      6  C   UNL     1       2.262   1.693  20.133  0.00  0.00    +0.000 C 
ATOM      7  C   UNL     1       1.812   1.804  18.668  0.00  0.00    +0.000 C 
ATOM      8  N   UNL     1       1.529   3.139  18.129  0.00  0.00    +0.000 NA
ATOM      9  C   UNL     1       0.759   4.009  19.027  0.00  0.00    +0.000 C 
ATOM     10  C   UNL     1       2.758   3.796  17.651  0.00  0.00    +0.000 C 
ATOM     11  C   UNL     1       3.683   4.409  18.741  0.00  0.00    +0.000 C 
ATOM     12  C   UNL     1       4.072   3.333  19.813  0.00  0.00    +0.000 C 
ENDROOT
BRANCH  11  13
ATOM     13  C   UNL     1       4.983   5.006  18.147  0.00  0.00    +0.000 A 
ATOM     14  C   UNL     1       6.139   5.239  18.913  0.00  0.00    +0.000 A 
ATOM     15  C   UNL     1       7.266   5.858  18.362  0.00  0.00    +0.000 A 
ATOM     16  C   UNL     1       7.265   6.251  17.029  0.00  0.00    +0.000 A 
ATOM     17  C   UNL     1       6.146   6.011  16.243  0.00  0.00    +0.000 A 
ATOM     18  C   UNL     1       5.020   5.394  16.794  0.00  0.00    +0.000 A 
ENDBRANCH  11  13
BRANCH   1  21
ATOM     19  C   UNL     1       1.664   8.667  19.245  0.00  0.00    +0.000 C 
ATOM     20  O   UNL     1       1.824   8.827  18.039  0.00  0.00    +0.000 OA
ATOM     21  N   UNL     1       2.228   7.636  20.000  0.00  0.00    +0.000 N 
ATOM     22  H   UNL     1       2.183   7.671  21.008  0.00  0.00    +0.000 HD
BRANCH  19  26
ATOM     23  C   UNL     1      -0.796  11.461  21.486  0.00  0.00    +0.000 A 
ATOM     24  C   UNL     1      -0.534  11.658  20.119  0.00  0.00    +0.000 A 
ATOM     25  C   UNL     1       0.261  10.764  19.380  0.00  0.00    +0.000 A 
ATOM     26  C   UNL     1       0.828   9.651  19.995  0.00  0.00    +0.000 A 
ATOM     27  C   UNL     1       0.631   9.472  21.371  0.00  0.00    +0.000 A 
ATOM     28  C   UNL     1      -0.167  10.365  22.105  0.00  0.00    +0.000 A 
BRANCH  23  30
ATOM     29  C   UNL     1      -1.057  13.607  22.885  0.00  0.00    +0.000 C 
ATOM     30  C   UNL     1      -1.760  12.371  22.278  0.00  0.00    +0.000 C 
ATOM     31  C   UNL     1      -2.430  11.607  23.439  0.00  0.00    +0.000 C 
ATOM     32  C   UNL     1      -2.867  12.897  21.336  0.00  0.00    +0.000 C 
ENDBRANCH  23  30
ENDBRANCH  19  26
ENDBRANCH   1  21
TORSDOF 4
ENDMDL
MODEL 8
REMARK VINA RESULT:      -9.0      1.083      1.737
REMARK  Name = 
REMARK  7 active torsions:
REMARK  status: ('A' for Active; 'I' for Inactive)
REMARK    1  A    between atoms: C_1  and  C_2
REMARK    2  A    between atoms: C_2  and  C_3
REMARK    3  A    between atoms: C_2  and  C_4
REMARK    4  A    between atoms: C_2  and  C_5
REMARK    5  A    between atoms: C_8  and  C_9
REMARK    6  A    between atoms: N_11  and  N_12
REMARK    7  A    between atoms: C_22  and  C_23
REMARK                            x       y       z     vdW  Elec       q    Type
REMARK                         _______ _______ _______ _____ _____    ______ ____
ROOT
ATOM      1  N   UNL     1       2.906   6.762  19.334  0.00  0.00    +0.000 NA
ATOM      2  C   UNL     1       2.672   5.488  19.436  0.00  0.00    +0.000 C 
ATOM      3  C   UNL     1       1.522   4.834  20.186  0.00  0.00    +0.000 C 
ATOM      4  C   UNL     1       2.167   3.989  21.277  0.00  0.00    +0.000 C 
ATOM      5  N   UNL     1       3.039   2.920  20.781  0.00  0.00    +0.000 NA
ATOM      6  C   UNL     1       2.284   1.765  20.286  0.00  0.00    +0.000 C 
ATOM      7  C   UNL     1       1.757   1.819  18.843  0.00  0.00    +0.000 C 
ATOM      8  N   UNL     1       1.422   3.131  18.278  0.00  0.00    +0.000 NA
ATOM      9  C   UNL     1       0.682   4.016  19.186  0.00  0.00    +0.000 C 
ATOM     10  C   UNL     1       2.612   3.793  17.716  0.00  0.00    +0.000 C 
ATOM     11  C   UNL     1       3.579   4.457  18.737  0.00  0.00    +0.000 C 
ATOM     12  C   UNL     1       4.043   3.425  19.821  0.00  0.00    +0.000 C 
ENDROOT
BRANCH  11  13
ATOM     13  C   UNL     1       4.835   5.057  18.058  0.00  0.00    +0.000 A 
ATOM     14  C   UNL     1       4.890   5.371  16.688  0.00  0.00    +0.000 A 
ATOM     15  C   UNL     1       6.069   5.832  16.092  0.00  0.00    +0.000 A 
ATOM     16  C   UNL     1       7.219   5.996  16.854  0.00  0.00    +0.000 A 
ATOM     17  C   UNL     1       7.186   5.716  18.214  0.00  0.00    +0.000 A 
ATOM     18  C   UNL     1       6.010   5.255  18.809  0.00  0.00    +0.000 A 
ENDBRANCH  11  13
BRANCH   1  21
ATOM     19  C   UNL     1       1.561   8.732  19.216  0.00  0.00    +0.000 C 
ATOM     20  O   UNL     1       1.705   8.890  18.008  0.00  0.00    +0.000 OA
ATOM     21  N   UNL     1       2.129   7.698  19.965  0.00  0.00    +0.000 N 
ATOM     22  H   UNL     1       2.098   7.735  20.973  0.00  0.00    +0.000 HD
BRANCH  19  26
ATOM     23  C   UNL     1      -0.850  11.545  21.487  0.00  0.00    +0.000 A 
ATOM     24  C   UNL     1      -0.588  11.748  20.121  0.00  0.00    +0.000 A 
ATOM     25  C   UNL     1       0.190  10.850  19.373  0.00  0.00    +0.000 A 
ATOM     26  C   UNL     1       0.742   9.722  19.977  0.00  0.00    +0.000 A 
ATOM     27  C   UNL     1       0.545   9.535  21.352  0.00  0.00    +0.000 A 
ATOM     28  C   UNL     1      -0.236  10.434  22.096  0.00  0.00    +0.000 A 
BRANCH  23  30
ATOM     29  C   UNL     1      -2.540  11.716  23.422  0.00  0.00    +0.000 C 
ATOM     30  C   UNL     1      -1.798  12.462  22.290  0.00  0.00    +0.000 C 
ATOM     31  C   UNL     1      -2.869  13.100  21.380  0.00  0.00    +0.000 C 
ATOM     32  C   UNL     1      -0.983  13.596  22.953  0.00  0.00    +0.000 C 
ENDBRANCH  23  30
ENDBRANCH  19  26
ENDBRANCH   1  21
TORSDOF 4
ENDMDL
MODEL 9
REMARK VINA RESULT:      -8.7      1.000      1.122
REMARK  Name = 
REMARK  7 active torsions:
REMARK  status: ('A' for Active; 'I' for Inactive)
REMARK    1  A    between atoms: C_1  and  C_2
REMARK    2  A    between atoms: C_2  and  C_3
REMARK    3  A    between atoms: C_2  and  C_4
REMARK    4  A    between atoms: C_2  and  C_5
REMARK    5  A    between atoms: C_8  and  C_9
REMARK    6  A    between atoms: N_11  and  N_12
REMARK    7  A    between atoms: C_22  and  C_23
REMARK                            x       y       z     vdW  Elec       q    Type
REMARK                         _______ _______ _______ _____ _____    ______ ____
ROOT
ATOM      1  N   UNL     1       3.063   6.642  18.849  0.00  0.00    +0.000 NA
ATOM      2  C   UNL     1       2.827   5.377  19.027  0.00  0.00    +0.000 C 
ATOM      3  C   UNL     1       1.662   4.769  19.793  0.00  0.00    +0.000 C 
ATOM      4  C   UNL     1       2.285   3.996  20.949  0.00  0.00    +0.000 C 
ATOM      5  N   UNL     1       3.166   2.899  20.539  0.00  0.00    +0.000 NA
ATOM      6  C   UNL     1       2.422   1.714  20.102  0.00  0.00    +0.000 C 
ATOM      7  C   UNL     1       1.924   1.676  18.648  0.00  0.00    +0.000 C 
ATOM      8  N   UNL     1       1.601   2.949  17.994  0.00  0.00    +0.000 NA
ATOM      9  C   UNL     1       0.843   3.889  18.830  0.00  0.00    +0.000 C 
ATOM     10  C   UNL     1       2.802   3.576  17.416  0.00  0.00    +0.000 C 
ATOM     11  C   UNL     1       3.749   4.305  18.413  0.00  0.00    +0.000 C 
ATOM     12  C   UNL     1       4.190   3.343  19.569  0.00  0.00    +0.000 C 
ENDROOT
BRANCH  11  13
ATOM     13  C   UNL     1       5.018   4.862  17.723  0.00  0.00    +0.000 A 
ATOM     14  C   UNL     1       6.160   5.271  18.435  0.00  0.00    +0.000 A 
ATOM     15  C   UNL     1       7.256   5.848  17.785  0.00  0.00    +0.000 A 
ATOM     16  C   UNL     1       7.238   6.023  16.406  0.00  0.00    +0.000 A 
ATOM     17  C   UNL     1       6.133   5.606  15.676  0.00  0.00    +0.000 A 
ATOM     18  C   UNL     1       5.038   5.031  16.325  0.00  0.00    +0.000 A 
ENDBRANCH  11  13
BRANCH   1  21
ATOM     19  C   UNL     1       1.850   8.685  18.613  0.00  0.00    +0.000 C 
ATOM     20  O   UNL     1       2.135   8.844  17.430  0.00  0.00    +0.000 OA
ATOM     21  N   UNL     1       2.273   7.615  19.405  0.00  0.00    +0.000 N 
ATOM     22  H   UNL     1       2.133   7.645  20.403  0.00  0.00    +0.000 HD
BRANCH  19  26
ATOM     23  C   UNL     1      -0.552  11.742  20.554  0.00  0.00    +0.000 A 
ATOM     24  C   UNL     1      -0.405  10.464  21.121  0.00  0.00    +0.000 A 
ATOM     25  C   UNL     1       0.367   9.464  20.505  0.00  0.00    +0.000 A 
ATOM     26  C   UNL     1       1.007   9.713  19.293  0.00  0.00    +0.000 A 
ATOM     27  C   UNL     1       0.820  10.959  18.680  0.00  0.00    +0.000 A 
ATOM     28  C   UNL     1       0.051  11.957  19.300  0.00  0.00    +0.000 A 
BRANCH  23  30
ATOM     29  C   UNL     1      -1.229  12.765  22.818  0.00  0.00    +0.000 C 
ATOM     30  C   UNL     1      -1.301  12.882  21.278  0.00  0.00    +0.000 C 
ATOM     31  C   UNL     1      -2.794  12.913  20.888  0.00  0.00    +0.000 C 
ATOM     32  C   UNL     1      -0.668  14.240  20.898  0.00  0.00    +0.000 C 
ENDBRANCH  23  30
ENDBRANCH  19  26
ENDBRANCH   1  21
TORSDOF 4
ENDMDL
