MODEL 1
REMARK VINA RESULT:      -8.5      0.000      0.000
REMARK  Name = 
REMARK  7 active torsions:
REMARK  status: ('A' for Active; 'I' for Inactive)
REMARK    1  A    between atoms: C_1  and  N_2
REMARK    2  A    between atoms: N_2  and  C_3
REMARK    3  A    between atoms: N_2  and  S_9
REMARK    4  A    between atoms: S_9  and  C_12
REMARK    5  A    between atoms: C_16  and  N_17
REMARK    6  A    between atoms: C_18  and  C_20
REMARK    7  A    between atoms: C_20  and  C_21
REMARK                            x       y       z     vdW  Elec       q    Type
REMARK                         _______ _______ _______ _____ _____    ______ ____
ROOT
ATOM      1  C   UNL     1       6.300   6.058  17.803  0.00  0.00    +0.000 A 
ATOM      2  C   UNL     1       7.023   5.364  18.781  0.00  0.00    +0.000 A 
ATOM      3  C   UNL     1       8.137   5.967  19.356  0.00  0.00    +0.000 A 
ATOM      4  C   UNL     1       8.510   7.256  18.969  0.00  0.00    +0.000 A 
ATOM      5  C   UNL     1       7.804   7.949  17.979  0.00  0.00    +0.000 A 
ATOM      6  C   UNL     1       6.731   7.313  17.346  0.00  0.00    +0.000 A 
ENDROOT
BRANCH   5   7
ATOM      7  N   UNL     1       8.108   9.286  17.627  0.00  0.00    +0.000 N 
ATOM      8  C   UNL     1       8.757  10.186  18.467  0.00  0.00    +0.000 C 
ATOM      9  O   UNL     1       9.185   9.931  19.592  0.00  0.00    +0.000 OA
ATOM     10  H   UNL     1       7.660   9.657  16.797  0.00  0.00    +0.000 HD
BRANCH   8  11
ATOM     11  C   UNL     1       8.856  11.597  17.924  0.00  0.00    +0.000 C 
BRANCH  11  12
ATOM     12  C   UNL     1       9.947  12.408  18.570  0.00  0.00    +0.000 A 
ATOM     13  C   UNL     1      11.271  12.161  18.196  0.00  0.00    +0.000 A 
ATOM     14  F   UNL     1      11.534  11.187  17.311  0.00  0.00    +0.000 F 
ATOM     15  C   UNL     1      12.332  12.904  18.705  0.00  0.00    +0.000 A 
ATOM     16  C   UNL     1      12.083  13.924  19.617  0.00  0.00    +0.000 A 
ATOM     17  C   UNL     1      10.775  14.170  20.034  0.00  0.00    +0.000 A 
ATOM     18  C   UNL     1       9.715  13.408  19.526  0.00  0.00    +0.000 A 
ATOM     19 CL   UNL     1       8.132  13.762  20.121  0.00  0.00    +0.000 Cl
ENDBRANCH  11  12
ENDBRANCH   8  11
ENDBRANCH   5   7
BRANCH   1  20
ATOM     20  S   UNL     1       4.837   5.313  17.104  0.00  0.00    +0.000 S 
ATOM     21  O   UNL     1       4.948   3.883  17.309  0.00  0.00    +0.000 OA
ATOM     22  O   UNL     1       4.695   5.856  15.763  0.00  0.00    +0.000 OA
BRANCH  20  24
ATOM     23  C   UNL     1       3.045   7.237  17.795  0.00  0.00    +0.000 C 
ATOM     24  N   UNL     1       3.561   5.887  18.071  0.00  0.00    +0.000 N 
BRANCH  24  25
ATOM     25  C   UNL     1       2.693   4.948  18.713  0.00  0.00    +0.000 A 
ATOM     26  C   UNL     1       2.748   4.838  20.104  0.00  0.00    +0.000 A 
ATOM     27  C   UNL     1       1.922   3.932  20.775  0.00  0.00    +0.000 A 
ATOM     28  C   UNL     1       1.037   3.134  20.054  0.00  0.00    +0.000 A 
ATOM     29  C   UNL     1       0.969   3.247  18.665  0.00  0.00    +0.000 A 
ATOM     30  C   UNL     1       1.798   4.152  17.991  0.00  0.00    +0.000 A 
ENDBRANCH  24  25
ENDBRANCH  20  24
ENDBRANCH   1  20
TORSDOF 6
ENDMDL
MODEL 2
REMARK VINA RESULT:      -8.3      1.308      1.904
REMARK  Name = 
REMARK  7 active torsions:
REMARK  status: ('A' for Active; 'I' for Inactive)
REMARK    1  A    between atoms: C_1  and  N_2
REMARK    2  A    between atoms: N_2  and  C_3
REMARK    3  A    between atoms: N_2  and  S_9
REMARK    4  A    between atoms: S_9  and  C_12
REMARK    5  A    between atoms: C_16  and  N_17
REMARK    6  A    between atoms: C_18  and  C_20
REMARK    7  A    between atoms: C_20  and  C_21
REMARK                            x       y       z     vdW  Elec       q    Type
REMARK                         _______ _______ _______ _____ _____    ______ ____
ROOT
ATOM      1  C   UNL     1       6.760   5.925  17.170  0.00  0.00    +0.000 A 
ATOM      2  C   UNL     1       7.244   5.251  18.298  0.00  0.00    +0.000 A 
ATOM      3  C   UNL     1       8.049   5.935  19.203  0.00  0.00    +0.000 A 
ATOM      4  C   UNL     1       8.348   7.282  18.991  0.00  0.00    +0.000 A 
ATOM      5  C   UNL     1       7.884   7.958  17.857  0.00  0.00    +0.000 A 
ATOM      6  C   UNL     1       7.140   7.251  16.908  0.00  0.00    +0.000 A 
ENDROOT
BRANCH   5   7
ATOM      7  N   UNL     1       8.102   9.343  17.658  0.00  0.00    +0.000 N 
ATOM      8  C   UNL     1       8.823  10.153  18.530  0.00  0.00    +0.000 C 
ATOM      9  O   UNL     1       9.395   9.771  19.550  0.00  0.00    +0.000 OA
ATOM     10  H   UNL     1       7.542   9.800  16.947  0.00  0.00    +0.000 HD
BRANCH   8  11
ATOM     11  C   UNL     1       8.812  11.627  18.179  0.00  0.00    +0.000 C 
BRANCH  11  12
ATOM     12  C   UNL     1       9.972  12.387  18.761  0.00  0.00    +0.000 A 
ATOM     13  C   UNL     1      11.188  12.380  18.070  0.00  0.00    +0.000 A 
ATOM     14  F   UNL     1      11.297  11.667  16.939  0.00  0.00    +0.000 F 
ATOM     15  C   UNL     1      12.292  13.102  18.513  0.00  0.00    +0.000 A 
ATOM     16  C   UNL     1      12.200  13.855  19.679  0.00  0.00    +0.000 A 
ATOM     17  C   UNL     1      11.011  13.853  20.407  0.00  0.00    +0.000 A 
ATOM     18  C   UNL     1       9.908  13.112  19.961  0.00  0.00    +0.000 A 
ATOM     19 CL   UNL     1       8.487  13.143  20.940  0.00  0.00    +0.000 Cl
ENDBRANCH  11  12
ENDBRANCH   8  11
ENDBRANCH   5   7
BRANCH   1  20
ATOM     20  S   UNL     1       5.681   5.070  16.035  0.00  0.00    +0.000 S 
ATOM     21  O   UNL     1       6.338   3.829  15.678  0.00  0.00    +0.000 OA
ATOM     22  O   UNL     1       5.313   6.030  15.008  0.00  0.00    +0.000 OA
BRANCH  20  24
ATOM     23  C   UNL     1       4.153   3.305  17.428  0.00  0.00    +0.000 C 
ATOM     24  N   UNL     1       4.304   4.691  16.959  0.00  0.00    +0.000 N 
BRANCH  24  25
ATOM     25  C   UNL     1       3.646   5.729  17.691  0.00  0.00    +0.000 A 
ATOM     26  C   UNL     1       3.152   5.432  18.963  0.00  0.00    +0.000 A 
ATOM     27  C   UNL     1       2.498   6.412  19.715  0.00  0.00    +0.000 A 
ATOM     28  C   UNL     1       2.340   7.695  19.196  0.00  0.00    +0.000 A 
ATOM     29  C   UNL     1       2.842   8.002  17.931  0.00  0.00    +0.000 A 
ATOM     30  C   UNL     1       3.494   7.020  17.175  0.00  0.00    +0.000 A 
ENDBRANCH  24  25
ENDBRANCH  20  24
ENDBRANCH   1  20
TORSDOF 6
ENDMDL
MODEL 3
REMARK VINA RESULT:      -8.3      5.387      8.095
REMARK  Name = 
REMARK  7 active torsions:
REMARK  status: ('A' for Active; 'I' for Inactive)
REMARK    1  A    between atoms: C_1  and  N_2
REMARK    2  A    between atoms: N_2  and  C_3
REMARK    3  A    between atoms: N_2  and  S_9
REMARK    4  A    between atoms: S_9  and  C_12
REMARK    5  A    between atoms: C_16  and  N_17
REMARK    6  A    between atoms: C_18  and  C_20
REMARK    7  A    between atoms: C_20  and  C_21
REMARK                            x       y       z     vdW  Elec       q    Type
REMARK                         _______ _______ _______ _____ _____    ______ ____
ROOT
ATOM      1  C   UNL     1       0.961   9.565  19.993  0.00  0.00    +0.000 A 
ATOM      2  C   UNL     1       0.538   8.993  21.199  0.00  0.00    +0.000 A 
ATOM      3  C   UNL     1       0.920   7.690  21.502  0.00  0.00    +0.000 A 
ATOM      4  C   UNL     1       1.731   6.976  20.616  0.00  0.00    +0.000 A 
ATOM      5  C   UNL     1       2.142   7.534  19.400  0.00  0.00    +0.000 A 
ATOM      6  C   UNL     1       1.695   8.815  19.061  0.00  0.00    +0.000 A 
ENDROOT
BRANCH   5   7
ATOM      7  N   UNL     1       3.031   6.868  18.523  0.00  0.00    +0.000 N 
ATOM      8  C   UNL     1       2.754   5.651  17.907  0.00  0.00    +0.000 C 
ATOM      9  O   UNL     1       1.700   5.024  18.008  0.00  0.00    +0.000 OA
ATOM     10  H   UNL     1       3.987   7.201  18.496  0.00  0.00    +0.000 HD
BRANCH   8  11
ATOM     11  C   UNL     1       3.906   5.067  17.116  0.00  0.00    +0.000 C 
BRANCH  11  12
ATOM     12  C   UNL     1       5.255   5.512  17.611  0.00  0.00    +0.000 A 
ATOM     13  C   UNL     1       5.923   6.522  16.911  0.00  0.00    +0.000 A 
ATOM     14  F   UNL     1       5.365   7.032  15.802  0.00  0.00    +0.000 F 
ATOM     15  C   UNL     1       7.148   7.028  17.335  0.00  0.00    +0.000 A 
ATOM     16  C   UNL     1       7.741   6.520  18.486  0.00  0.00    +0.000 A 
ATOM     17  C   UNL     1       7.115   5.489  19.185  0.00  0.00    +0.000 A 
ATOM     18  C   UNL     1       5.888   4.977  18.743  0.00  0.00    +0.000 A 
ATOM     19 CL   UNL     1       5.199   3.680  19.653  0.00  0.00    +0.000 Cl
ENDBRANCH  11  12
ENDBRANCH   8  11
ENDBRANCH   5   7
BRANCH   1  20
ATOM     20  S   UNL     1       0.522  11.255  19.626  0.00  0.00    +0.000 S 
ATOM     21  O   UNL     1       0.887  11.498  18.245  0.00  0.00    +0.000 OA
ATOM     22  O   UNL     1       1.081  12.071  20.690  0.00  0.00    +0.000 OA
BRANCH  20  24
ATOM     23  C   UNL     1      -1.776  12.100  20.805  0.00  0.00    +0.000 C 
ATOM     24  N   UNL     1      -1.175  11.288  19.736  0.00  0.00    +0.000 N 
BRANCH  24  25
ATOM     25  C   UNL     1      -1.957  11.020  18.568  0.00  0.00    +0.000 A 
ATOM     26  C   UNL     1      -3.129  11.754  18.372  0.00  0.00    +0.000 A 
ATOM     27  C   UNL     1      -3.927  11.525  17.248  0.00  0.00    +0.000 A 
ATOM     28  C   UNL     1      -3.553  10.561  16.314  0.00  0.00    +0.000 A 
ATOM     29  C   UNL     1      -2.377   9.832  16.498  0.00  0.00    +0.000 A 
ATOM     30  C   UNL     1      -1.578  10.059  17.625  0.00  0.00    +0.000 A 
ENDBRANCH  24  25
ENDBRANCH  20  24
ENDBRANCH   1  20
TORSDOF 6
ENDMDL
MODEL 4
REMARK VINA RESULT:      -8.3      6.034      8.832
REMARK  Name = 
REMARK  7 active torsions:
REMARK  status: ('A' for Active; 'I' for Inactive)
REMARK    1  A    between atoms: C_1  and  N_2
REMARK    2  A    between atoms: N_2  and  C_3
REMARK    3  A    between atoms: N_2  and  S_9
REMARK    4  A    between atoms: S_9  and  C_12
REMARK    5  A    between atoms: C_16  and  N_17
REMARK    6  A    between atoms: C_18  and  C_20
REMARK    7  A    between atoms: C_20  and  C_21
REMARK                            x       y       z     vdW  Elec       q    Type
REMARK                         _______ _______ _______ _____ _____    ______ ____
ROOT
ATOM      1  C   UNL     1       1.017   9.166  20.274  0.00  0.00    +0.000 A 
ATOM      2  C   UNL     1       0.493   9.762  19.120  0.00  0.00    +0.000 A 
ATOM      3  C   UNL     1       0.935   9.329  17.874  0.00  0.00    +0.000 A 
ATOM      4  C   UNL     1       1.875   8.300  17.784  0.00  0.00    +0.000 A 
ATOM      5  C   UNL     1       2.417   7.712  18.933  0.00  0.00    +0.000 A 
ATOM      6  C   UNL     1       2.031   8.199  20.186  0.00  0.00    +0.000 A 
ENDROOT
BRANCH   5   7
ATOM      7  N   UNL     1       3.306   6.613  18.874  0.00  0.00    +0.000 N 
ATOM      8  C   UNL     1       2.921   5.287  19.048  0.00  0.00    +0.000 C 
ATOM      9  O   UNL     1       1.769   4.897  19.231  0.00  0.00    +0.000 OA
ATOM     10  H   UNL     1       4.298   6.821  18.896  0.00  0.00    +0.000 HD
BRANCH   8  11
ATOM     11  C   UNL     1       4.066   4.295  19.072  0.00  0.00    +0.000 C 
BRANCH  11  12
ATOM     12  C   UNL     1       5.004   4.438  17.904  0.00  0.00    +0.000 A 
ATOM     13  C   UNL     1       4.574   4.006  16.647  0.00  0.00    +0.000 A 
ATOM     14  F   UNL     1       3.362   3.441  16.524  0.00  0.00    +0.000 F 
ATOM     15  C   UNL     1       5.359   4.154  15.507  0.00  0.00    +0.000 A 
ATOM     16  C   UNL     1       6.614   4.744  15.608  0.00  0.00    +0.000 A 
ATOM     17  C   UNL     1       7.084   5.153  16.856  0.00  0.00    +0.000 A 
ATOM     18  C   UNL     1       6.292   4.988  17.999  0.00  0.00    +0.000 A 
ATOM     19 CL   UNL     1       6.965   5.496  19.506  0.00  0.00    +0.000 Cl
ENDBRANCH  11  12
ENDBRANCH   8  11
ENDBRANCH   5   7
BRANCH   1  20
ATOM     20  S   UNL     1       0.413   9.676  21.873  0.00  0.00    +0.000 S 
ATOM     21  O   UNL     1       1.503   9.508  22.813  0.00  0.00    +0.000 OA
ATOM     22  O   UNL     1      -0.850   8.989  22.079  0.00  0.00    +0.000 OA
BRANCH  20  24
ATOM     23  C   UNL     1       1.103  12.144  20.965  0.00  0.00    +0.000 C 
ATOM     24  N   UNL     1       0.116  11.343  21.704  0.00  0.00    +0.000 N 
BRANCH  24  25
ATOM     25  C   UNL     1      -1.230  11.824  21.775  0.00  0.00    +0.000 A 
ATOM     26  C   UNL     1      -1.844  11.894  23.028  0.00  0.00    +0.000 A 
ATOM     27  C   UNL     1      -3.158  12.353  23.147  0.00  0.00    +0.000 A 
ATOM     28  C   UNL     1      -3.862  12.746  22.011  0.00  0.00    +0.000 A 
ATOM     29  C   UNL     1      -3.252  12.689  20.758  0.00  0.00    +0.000 A 
ATOM     30  C   UNL     1      -1.936  12.226  20.637  0.00  0.00    +0.000 A 
ENDBRANCH  24  25
ENDBRANCH  20  24
ENDBRANCH   1  20
TORSDOF 6
ENDMDL
MODEL 5
REMARK VINA RESULT:      -8.2      1.427      1.714
REMARK  Name = 
REMARK  7 active torsions:
REMARK  status: ('A' for Active; 'I' for Inactive)
REMARK    1  A    between atoms: C_1  and  N_2
REMARK    2  A    between atoms: N_2  and  C_3
REMARK    3  A    between atoms: N_2  and  S_9
REMARK    4  A    between atoms: S_9  and  C_12
REMARK    5  A    between atoms: C_16  and  N_17
REMARK    6  A    between atoms: C_18  and  C_20
REMARK    7  A    between atoms: C_20  and  C_21
REMARK                            x       y       z     vdW  Elec       q    Type
REMARK                         _______ _______ _______ _____ _____    ______ ____
ROOT
ATOM      1  C   UNL     1       6.161   6.399  17.698  0.00  0.00    +0.000 A 
ATOM      2  C   UNL     1       6.629   5.603  18.750  0.00  0.00    +0.000 A 
ATOM      3  C   UNL     1       7.794   5.973  19.415  0.00  0.00    +0.000 A 
ATOM      4  C   UNL     1       8.470   7.137  19.042  0.00  0.00    +0.000 A 
ATOM      5  C   UNL     1       8.020   7.928  17.978  0.00  0.00    +0.000 A 
ATOM      6  C   UNL     1       6.893   7.515  17.261  0.00  0.00    +0.000 A 
ENDROOT
BRANCH   5   7
ATOM      7  N   UNL     1       8.637   9.154  17.632  0.00  0.00    +0.000 N 
ATOM      8  C   UNL     1       9.081  10.093  18.559  0.00  0.00    +0.000 C 
ATOM      9  O   UNL     1       9.036   9.966  19.782  0.00  0.00    +0.000 OA
ATOM     10  H   UNL     1       8.576   9.443  16.663  0.00  0.00    +0.000 HD
BRANCH   8  11
ATOM     11  C   UNL     1       9.588  11.387  17.953  0.00  0.00    +0.000 C 
BRANCH  11  12
ATOM     12  C   UNL     1       9.605  12.533  18.927  0.00  0.00    +0.000 A 
ATOM     13  C   UNL     1       8.541  13.439  18.909  0.00  0.00    +0.000 A 
ATOM     14  F   UNL     1       7.562  13.287  18.003  0.00  0.00    +0.000 F 
ATOM     15  C   UNL     1       8.454  14.495  19.812  0.00  0.00    +0.000 A 
ATOM     16  C   UNL     1       9.452  14.668  20.765  0.00  0.00    +0.000 A 
ATOM     17  C   UNL     1      10.543  13.800  20.784  0.00  0.00    +0.000 A 
ATOM     18  C   UNL     1      10.628  12.749  19.863  0.00  0.00    +0.000 A 
ATOM     19 CL   UNL     1      12.029  11.741  19.940  0.00  0.00    +0.000 Cl
ENDBRANCH  11  12
ENDBRANCH   8  11
ENDBRANCH   5   7
BRANCH   1  20
ATOM     20  S   UNL     1       4.638   5.961  16.879  0.00  0.00    +0.000 S 
ATOM     21  O   UNL     1       4.615   4.516  16.769  0.00  0.00    +0.000 OA
ATOM     22  O   UNL     1       4.551   6.791  15.690  0.00  0.00    +0.000 OA
BRANCH  20  24
ATOM     23  C   UNL     1       2.844   7.773  17.821  0.00  0.00    +0.000 C 
ATOM     24  N   UNL     1       3.418   6.427  17.969  0.00  0.00    +0.000 N 
BRANCH  24  25
ATOM     25  C   UNL     1       2.626   5.418  18.604  0.00  0.00    +0.000 A 
ATOM     26  C   UNL     1       2.658   5.331  19.998  0.00  0.00    +0.000 A 
ATOM     27  C   UNL     1       1.904   4.360  20.663  0.00  0.00    +0.000 A 
ATOM     28  C   UNL     1       1.114   3.474  19.934  0.00  0.00    +0.000 A 
ATOM     29  C   UNL     1       1.069   3.563  18.543  0.00  0.00    +0.000 A 
ATOM     30  C   UNL     1       1.826   4.533  17.874  0.00  0.00    +0.000 A 
ENDBRANCH  24  25
ENDBRANCH  20  24
ENDBRANCH   1  20
TORSDOF 6
ENDMDL
MODEL 6
REMARK VINA RESULT:      -8.1      6.164      8.927
REMARK  Name = 
REMARK  7 active torsions:
REMARK  status: ('A' for Active; 'I' for Inactive)
REMARK    1  A    between atoms: C_1  and  N_2
REMARK    2  A    between atoms: N_2  and  C_3
REMARK    3  A    between atoms: N_2  and  S_9
REMARK    4  A    between atoms: S_9  and  C_12
REMARK    5  A    between atoms: C_16  and  N_17
REMARK    6  A    between atoms: C_18  and  C_20
REMARK    7  A    between atoms: C_20  and  C_21
REMARK                            x       y       z     vdW  Elec       q    Type
REMARK                         _______ _______ _______ _____ _____    ______ ____
ROOT
ATOM      1  C   UNL     1       1.031   9.155  20.338  0.00  0.00    +0.000 A 
ATOM      2  C   UNL     1       0.595   9.776  19.161  0.00  0.00    +0.000 A 
ATOM      3  C   UNL     1       1.057   9.305  17.936  0.00  0.00    +0.000 A 
ATOM      4  C   UNL     1       1.929   8.215  17.890  0.00  0.00    +0.000 A 
ATOM      5  C   UNL     1       2.384   7.601  19.063  0.00  0.00    +0.000 A 
ATOM      6  C   UNL     1       1.981   8.122  20.297  0.00  0.00    +0.000 A 
ENDROOT
BRANCH   5   7
ATOM      7  N   UNL     1       3.199   6.444  19.045  0.00  0.00    +0.000 N 
ATOM      8  C   UNL     1       2.857   5.238  19.649  0.00  0.00    +0.000 C 
ATOM      9  O   UNL     1       1.798   5.007  20.232  0.00  0.00    +0.000 OA
ATOM     10  H   UNL     1       4.159   6.562  18.743  0.00  0.00    +0.000 HD
BRANCH   8  11
ATOM     11  C   UNL     1       3.943   4.182  19.611  0.00  0.00    +0.000 C 
BRANCH  11  12
ATOM     12  C   UNL     1       4.817   4.269  18.390  0.00  0.00    +0.000 A 
ATOM     13  C   UNL     1       6.102   4.803  18.527  0.00  0.00    +0.000 A 
ATOM     14  F   UNL     1       6.501   5.258  19.725  0.00  0.00    +0.000 F 
ATOM     15  C   UNL     1       6.991   4.868  17.458  0.00  0.00    +0.000 A 
ATOM     16  C   UNL     1       6.603   4.395  16.209  0.00  0.00    +0.000 A 
ATOM     17  C   UNL     1       5.315   3.889  16.036  0.00  0.00    +0.000 A 
ATOM     18  C   UNL     1       4.422   3.840  17.114  0.00  0.00    +0.000 A 
ATOM     19 CL   UNL     1       2.838   3.226  16.801  0.00  0.00    +0.000 Cl
ENDBRANCH  11  12
ENDBRANCH   8  11
ENDBRANCH   5   7
BRANCH   1  20
ATOM     20  S   UNL     1       0.400   9.717  21.909  0.00  0.00    +0.000 S 
ATOM     21  O   UNL     1       1.473   9.580  22.873  0.00  0.00    +0.000 OA
ATOM     22  O   UNL     1      -0.867   9.035  22.116  0.00  0.00    +0.000 OA
BRANCH  20  24
ATOM     23  C   UNL     1       1.103  12.154  20.931  0.00  0.00    +0.000 C 
ATOM     24  N   UNL     1       0.105  11.377  21.682  0.00  0.00    +0.000 N 
BRANCH  24  25
ATOM     25  C   UNL     1      -1.242  11.858  21.716  0.00  0.00    +0.000 A 
ATOM     26  C   UNL     1      -1.865  11.996  22.959  0.00  0.00    +0.000 A 
ATOM     27  C   UNL     1      -3.181  12.458  23.043  0.00  0.00    +0.000 A 
ATOM     28  C   UNL     1      -3.877  12.788  21.883  0.00  0.00    +0.000 A 
ATOM     29  C   UNL     1      -3.257  12.664  20.639  0.00  0.00    +0.000 A 
ATOM     30  C   UNL     1      -1.940  12.198  20.553  0.00  0.00    +0.000 A 
ENDBRANCH  24  25
ENDBRANCH  20  24
ENDBRANCH   1  20
TORSDOF 6
ENDMDL
MODEL 7
REMARK VINA RESULT:      -8.1      1.503      1.987
REMARK  Name = 
REMARK  7 active torsions:
REMARK  status: ('A' for Active; 'I' for Inactive)
REMARK    1  A    between atoms: C_1  and  N_2
REMARK    2  A    between atoms: N_2  and  C_3
REMARK    3  A    between atoms: N_2  and  S_9
REMARK    4  A    between atoms: S_9  and  C_12
REMARK    5  A    between atoms: C_16  and  N_17
REMARK    6  A    between atoms: C_18  and  C_20
REMARK    7  A    between atoms: C_20  and  C_21
REMARK                            x       y       z     vdW  Elec       q    Type
REMARK                         _______ _______ _______ _____ _____    ______ ____
ROOT
ATOM      1  C   UNL     1       5.955   6.304  17.865  0.00  0.00    +0.000 A 
ATOM      2  C   UNL     1       6.440   5.481  18.889  0.00  0.00    +0.000 A 
ATOM      3  C   UNL     1       7.670   5.774  19.469  0.00  0.00    +0.000 A 
ATOM      4  C   UNL     1       8.396   6.889  19.042  0.00  0.00    +0.000 A 
ATOM      5  C   UNL     1       7.927   7.705  18.006  0.00  0.00    +0.000 A 
ATOM      6  C   UNL     1       6.728   7.366  17.370  0.00  0.00    +0.000 A 
ENDROOT
BRANCH   5   7
ATOM      7  N   UNL     1       8.598   8.886  17.610  0.00  0.00    +0.000 N 
ATOM      8  C   UNL     1       8.994   9.892  18.487  0.00  0.00    +0.000 C 
ATOM      9  O   UNL     1       8.853   9.868  19.709  0.00  0.00    +0.000 OA
ATOM     10  H   UNL     1       8.619   9.094  16.618  0.00  0.00    +0.000 HD
BRANCH   8  11
ATOM     11  C   UNL     1       9.577  11.120  17.819  0.00  0.00    +0.000 C 
BRANCH  11  12
ATOM     12  C   UNL     1       9.325  12.391  18.584  0.00  0.00    +0.000 A 
ATOM     13  C   UNL     1       8.254  13.201  18.196  0.00  0.00    +0.000 A 
ATOM     14  F   UNL     1       7.512  12.846  17.135  0.00  0.00    +0.000 F 
ATOM     15  C   UNL     1       7.920  14.363  18.885  0.00  0.00    +0.000 A 
ATOM     16  C   UNL     1       8.670  14.746  19.992  0.00  0.00    +0.000 A 
ATOM     17  C   UNL     1       9.765  13.976  20.381  0.00  0.00    +0.000 A 
ATOM     18  C   UNL     1      10.101  12.814  19.673  0.00  0.00    +0.000 A 
ATOM     19 CL   UNL     1      11.491  11.938  20.206  0.00  0.00    +0.000 Cl
ENDBRANCH  11  12
ENDBRANCH   8  11
ENDBRANCH   5   7
BRANCH   1  20
ATOM     20  S   UNL     1       4.354   5.966  17.156  0.00  0.00    +0.000 S 
ATOM     21  O   UNL     1       4.426   4.653  16.548  0.00  0.00    +0.000 OA
ATOM     22  O   UNL     1       3.998   7.128  16.359  0.00  0.00    +0.000 OA
BRANCH  20  24
ATOM     23  C   UNL     1       2.567   7.085  18.873  0.00  0.00    +0.000 C 
ATOM     24  N   UNL     1       3.306   5.871  18.493  0.00  0.00    +0.000 N 
BRANCH  24  25
ATOM     25  C   UNL     1       2.761   4.602  18.865  0.00  0.00    +0.000 A 
ATOM     26  C   UNL     1       1.606   4.161  18.215  0.00  0.00    +0.000 A 
ATOM     27  C   UNL     1       1.034   2.930  18.546  0.00  0.00    +0.000 A 
ATOM     28  C   UNL     1       1.618   2.134  19.529  0.00  0.00    +0.000 A 
ATOM     29  C   UNL     1       2.778   2.563  20.174  0.00  0.00    +0.000 A 
ATOM     30  C   UNL     1       3.351   3.798  19.846  0.00  0.00    +0.000 A 
ENDBRANCH  24  25
ENDBRANCH  20  24
ENDBRANCH   1  20
TORSDOF 6
ENDMDL
MODEL 8
REMARK VINA RESULT:      -8.1      6.869      9.789
REMARK  Name = 
REMARK  7 active torsions:
REMARK  status: ('A' for Active; 'I' for Inactive)
REMARK    1  A    between atoms: C_1  and  N_2
REMARK    2  A    between atoms: N_2  and  C_3
REMARK    3  A    between atoms: N_2  and  S_9
REMARK    4  A    between atoms: S_9  and  C_12
REMARK    5  A    between atoms: C_16  and  N_17
REMARK    6  A    between atoms: C_18  and  C_20
REMARK    7  A    between atoms: C_20  and  C_21
REMARK                            x       y       z     vdW  Elec       q    Type
REMARK                         _______ _______ _______ _____ _____    ______ ____
ROOT
ATOM      1  C   UNL     1      -0.316  11.081  20.347  0.00  0.00    +0.000 A 
ATOM      2  C   UNL     1      -0.274  10.851  21.728  0.00  0.00    +0.000 A 
ATOM      3  C   UNL     1       0.457   9.772  22.213  0.00  0.00    +0.000 A 
ATOM      4  C   UNL     1       1.152   8.945  21.328  0.00  0.00    +0.000 A 
ATOM      5  C   UNL     1       1.100   9.156  19.946  0.00  0.00    +0.000 A 
ATOM      6  C   UNL     1       0.303  10.194  19.452  0.00  0.00    +0.000 A 
ENDROOT
BRANCH   5   7
ATOM      7  N   UNL     1       1.860   8.387  19.032  0.00  0.00    +0.000 N 
ATOM      8  C   UNL     1       2.255   7.072  19.259  0.00  0.00    +0.000 C 
ATOM      9  O   UNL     1       1.965   6.400  20.248  0.00  0.00    +0.000 OA
ATOM     10  H   UNL     1       2.297   8.883  18.264  0.00  0.00    +0.000 HD
BRANCH   8  11
ATOM     11  C   UNL     1       3.173   6.497  18.199  0.00  0.00    +0.000 C 
BRANCH  11  12
ATOM     12  C   UNL     1       3.274   4.996  18.249  0.00  0.00    +0.000 A 
ATOM     13  C   UNL     1       2.205   4.240  17.760  0.00  0.00    +0.000 A 
ATOM     14  F   UNL     1       1.110   4.867  17.302  0.00  0.00    +0.000 F 
ATOM     15  C   UNL     1       2.242   2.849  17.719  0.00  0.00    +0.000 A 
ATOM     16  C   UNL     1       3.369   2.177  18.181  0.00  0.00    +0.000 A 
ATOM     17  C   UNL     1       4.436   2.905  18.707  0.00  0.00    +0.000 A 
ATOM     18  C   UNL     1       4.384   4.304  18.755  0.00  0.00    +0.000 A 
ATOM     19 CL   UNL     1       5.737   5.122  19.450  0.00  0.00    +0.000 Cl
ENDBRANCH  11  12
ENDBRANCH   8  11
ENDBRANCH   5   7
BRANCH   1  20
ATOM     20  S   UNL     1      -1.205  12.496  19.722  0.00  0.00    +0.000 S 
ATOM     21  O   UNL     1      -0.601  12.852  18.454  0.00  0.00    +0.000 OA
ATOM     22  O   UNL     1      -1.264  13.461  20.806  0.00  0.00    +0.000 OA
BRANCH  20  24
ATOM     23  C   UNL     1      -3.885  12.501  20.176  0.00  0.00    +0.000 C 
ATOM     24  N   UNL     1      -2.773  11.913  19.414  0.00  0.00    +0.000 N 
BRANCH  24  25
ATOM     25  C   UNL     1      -3.061  11.320  18.144  0.00  0.00    +0.000 A 
ATOM     26  C   UNL     1      -2.301  10.220  17.738  0.00  0.00    +0.000 A 
ATOM     27  C   UNL     1      -2.542   9.610  16.505  0.00  0.00    +0.000 A 
ATOM     28  C   UNL     1      -3.548  10.097  15.673  0.00  0.00    +0.000 A 
ATOM     29  C   UNL     1      -4.319  11.187  16.077  0.00  0.00    +0.000 A 
ATOM     30  C   UNL     1      -4.076  11.802  17.312  0.00  0.00    +0.000 A 
ENDBRANCH  24  25
ENDBRANCH  20  24
ENDBRANCH   1  20
TORSDOF 6
ENDMDL
MODEL 9
REMARK VINA RESULT:      -8.1      5.748      8.236
REMARK  Name = 
REMARK  7 active torsions:
REMARK  status: ('A' for Active; 'I' for Inactive)
REMARK    1  A    between atoms: C_1  and  N_2
REMARK    2  A    between atoms: N_2  and  C_3
REMARK    3  A    between atoms: N_2  and  S_9
REMARK    4  A    between atoms: S_9  and  C_12
REMARK    5  A    between atoms: C_16  and  N_17
REMARK    6  A    between atoms: C_18  and  C_20
REMARK    7  A    between atoms: C_20  and  C_21
REMARK                            x       y       z     vdW  Elec       q    Type
REMARK                         _______ _______ _______ _____ _____    ______ ____
ROOT
ATOM      1  C   UNL     1       3.199   4.435  19.637  0.00  0.00    +0.000 A 
ATOM      2  C   UNL     1       2.143   3.708  20.200  0.00  0.00    +0.000 A 
ATOM      3  C   UNL     1       1.029   4.391  20.677  0.00  0.00    +0.000 A 
ATOM      4  C   UNL     1       0.966   5.783  20.574  0.00  0.00    +0.000 A 
ATOM      5  C   UNL     1       2.026   6.518  20.030  0.00  0.00    +0.000 A 
ATOM      6  C   UNL     1       3.178   5.838  19.621  0.00  0.00    +0.000 A 
ENDROOT
BRANCH   5   7
ATOM      7  N   UNL     1       1.955   7.918  19.836  0.00  0.00    +0.000 N 
ATOM      8  C   UNL     1       1.097   8.761  20.535  0.00  0.00    +0.000 C 
ATOM      9  O   UNL     1       0.328   8.413  21.431  0.00  0.00    +0.000 OA
ATOM     10  H   UNL     1       2.416   8.293  19.015  0.00  0.00    +0.000 HD
BRANCH   8  11
ATOM     11  C   UNL     1       1.104  10.201  20.066  0.00  0.00    +0.000 C 
BRANCH  11  12
ATOM     12  C   UNL     1      -0.211  10.645  19.484  0.00  0.00    +0.000 A 
ATOM     13  C   UNL     1      -0.559  10.197  18.206  0.00  0.00    +0.000 A 
ATOM     14  F   UNL     1       0.300   9.424  17.523  0.00  0.00    +0.000 F 
ATOM     15  C   UNL     1      -1.780  10.517  17.620  0.00  0.00    +0.000 A 
ATOM     16  C   UNL     1      -2.690  11.309  18.312  0.00  0.00    +0.000 A 
ATOM     17  C   UNL     1      -2.354  11.799  19.574  0.00  0.00    +0.000 A 
ATOM     18  C   UNL     1      -1.118  11.483  20.151  0.00  0.00    +0.000 A 
ATOM     19 CL   UNL     1      -0.774  12.157  21.703  0.00  0.00    +0.000 Cl
ENDBRANCH  11  12
ENDBRANCH   8  11
ENDBRANCH   5   7
BRANCH   1  20
ATOM     20  S   UNL     1       4.606   3.562  18.972  0.00  0.00    +0.000 S 
ATOM     21  O   UNL     1       4.142   2.831  17.809  0.00  0.00    +0.000 OA
ATOM     22  O   UNL     1       5.224   2.860  20.084  0.00  0.00    +0.000 OA
BRANCH  20  24
ATOM     23  C   UNL     1       6.699   5.250  19.368  0.00  0.00    +0.000 C 
ATOM     24  N   UNL     1       5.657   4.789  18.438  0.00  0.00    +0.000 N 
BRANCH  24  25
ATOM     25  C   UNL     1       5.877   4.959  17.035  0.00  0.00    +0.000 A 
ATOM     26  C   UNL     1       6.972   4.317  16.453  0.00  0.00    +0.000 A 
ATOM     27  C   UNL     1       7.230   4.457  15.087  0.00  0.00    +0.000 A 
ATOM     28  C   UNL     1       6.390   5.239  14.297  0.00  0.00    +0.000 A 
ATOM     29  C   UNL     1       5.287   5.874  14.870  0.00  0.00    +0.000 A 
ATOM     30  C   UNL     1       5.029   5.737  16.240  0.00  0.00    +0.000 A 
ENDBRANCH  24  25
ENDBRANCH  20  24
ENDBRANCH   1  20
TORSDOF 6
ENDMDL
