MODEL 1
REMARK VINA RESULT:      -8.0      0.000      0.000
REMARK  Name = 
REMARK  4 active torsions:
REMARK  status: ('A' for Active; 'I' for Inactive)
REMARK    1  A    between atoms: N_2  and  C_4
REMARK    2  A    between atoms: N_11  and  C_12
REMARK    3  A    between atoms: C_15  and  N_16
REMARK    4  A    between atoms: C_20  and  N_21
REMARK                            x       y       z     vdW  Elec       q    Type
REMARK                         _______ _______ _______ _____ _____    ______ ____
ROOT
ATOM      1  C   UNL     1       0.992  10.204  20.352  0.00  0.00    +0.000 A 
ATOM      2  C   UNL     1       0.741   9.520  21.551  0.00  0.00    +0.000 A 
ATOM      3  C   UNL     1       0.975   8.146  21.630  0.00  0.00    +0.000 A 
ATOM      4  C   UNL     1       1.474   7.464  20.518  0.00  0.00    +0.000 A 
ATOM      5  C   UNL     1       1.690   8.143  19.306  0.00  0.00    +0.000 A 
ATOM      6  C   UNL     1       1.442   9.515  19.217  0.00  0.00    +0.000 A 
ATOM      7  C   UNL     1       2.164   7.348  18.114  0.00  0.00    +0.000 C 
ATOM      8  N   UNL     1       3.213   6.379  18.479  0.00  0.00    +0.000 N 
ATOM      9  C   UNL     1       3.234   5.863  19.865  0.00  0.00    +0.000 C 
ATOM     10  C   UNL     1       1.867   6.009  20.557  0.00  0.00    +0.000 C 
ENDROOT
BRANCH   8  11
ATOM     11  C   UNL     1       4.042   5.880  17.478  0.00  0.00    +0.000 A 
ATOM     12  C   UNL     1       4.956   6.767  16.859  0.00  0.00    +0.000 A 
ATOM     13  C   UNL     1       5.834   6.379  15.842  0.00  0.00    +0.000 A 
ATOM     14  C   UNL     1       5.833   5.060  15.402  0.00  0.00    +0.000 A 
ATOM     15  C   UNL     1       4.961   4.133  15.970  0.00  0.00    +0.000 A 
ATOM     16  C   UNL     1       4.079   4.555  16.988  0.00  0.00    +0.000 A 
BRANCH  14  17
ATOM     17  N   UNL     1       6.753   4.652  14.336  0.00  0.00    +0.000 N 
ATOM     18  O   UNL     1       7.800   5.302  14.200  0.00  0.00    +0.000 OA
ATOM     19  O   UNL     1       6.429   3.683  13.639  0.00  0.00    +0.000 OA
ENDBRANCH  14  17
BRANCH  16  20
ATOM     20  N   UNL     1       3.239   3.505  17.536  0.00  0.00    +0.000 N 
ATOM     21  O   UNL     1       3.754   2.707  18.332  0.00  0.00    +0.000 OA
ATOM     22  O   UNL     1       2.075   3.452  17.118  0.00  0.00    +0.000 OA
ENDBRANCH  16  20
ENDBRANCH   8  11
BRANCH   1  24
ATOM     23  O   UNL     1       1.248  12.340  21.219  0.00  0.00    +0.000 OA
ATOM     24  N   UNL     1       0.805  11.657  20.284  0.00  0.00    +0.000 N 
ATOM     25  O   UNL     1       0.224  12.117  19.290  0.00  0.00    +0.000 OA
ENDBRANCH   1  24
TORSDOF 4
ENDMDL
MODEL 2
REMARK VINA RESULT:      -7.9      0.214      1.061
REMARK  Name = 
REMARK  4 active torsions:
REMARK  status: ('A' for Active; 'I' for Inactive)
REMARK    1  A    between atoms: N_2  and  C_4
REMARK    2  A    between atoms: N_11  and  C_12
REMARK    3  A    between atoms: C_15  and  N_16
REMARK    4  A    between atoms: C_20  and  N_21
REMARK                            x       y       z     vdW  Elec       q    Type
REMARK                         _______ _______ _______ _____ _____    ______ ____
ROOT
ATOM      1  C   UNL     1       1.040  10.160  20.443  0.00  0.00    +0.000 A 
ATOM      2  C   UNL     1       0.777   9.450  21.624  0.00  0.00    +0.000 A 
ATOM      3  C   UNL     1       0.995   8.071  21.669  0.00  0.00    +0.000 A 
ATOM      4  C   UNL     1       1.489   7.410  20.543  0.00  0.00    +0.000 A 
ATOM      5  C   UNL     1       1.718   8.117  19.348  0.00  0.00    +0.000 A 
ATOM      6  C   UNL     1       1.485   9.494  19.293  0.00  0.00    +0.000 A 
ATOM      7  C   UNL     1       2.186   7.346  18.138  0.00  0.00    +0.000 C 
ATOM      8  N   UNL     1       3.222   6.356  18.483  0.00  0.00    +0.000 N 
ATOM      9  C   UNL     1       3.233   5.806  19.855  0.00  0.00    +0.000 C 
ATOM     10  C   UNL     1       1.865   5.951  20.546  0.00  0.00    +0.000 C 
ENDROOT
BRANCH   8  11
ATOM     11  C   UNL     1       4.048   5.873  17.472  0.00  0.00    +0.000 A 
ATOM     12  C   UNL     1       4.978   6.763  16.880  0.00  0.00    +0.000 A 
ATOM     13  C   UNL     1       5.855   6.390  15.857  0.00  0.00    +0.000 A 
ATOM     14  C   UNL     1       5.837   5.083  15.382  0.00  0.00    +0.000 A 
ATOM     15  C   UNL     1       4.950   4.153  15.922  0.00  0.00    +0.000 A 
ATOM     16  C   UNL     1       4.069   4.561  16.947  0.00  0.00    +0.000 A 
BRANCH  14  17
ATOM     17  N   UNL     1       6.756   4.690  14.309  0.00  0.00    +0.000 N 
ATOM     18  O   UNL     1       6.403   3.768  13.558  0.00  0.00    +0.000 OA
ATOM     19  O   UNL     1       7.825   5.304  14.217  0.00  0.00    +0.000 OA
ENDBRANCH  14  17
BRANCH  16  20
ATOM     20  N   UNL     1       3.213   3.509  17.463  0.00  0.00    +0.000 N 
ATOM     21  O   UNL     1       2.023   3.506  17.114  0.00  0.00    +0.000 OA
ATOM     22  O   UNL     1       3.727   2.720  18.267  0.00  0.00    +0.000 OA
ENDBRANCH  16  20
ENDBRANCH   8  11
BRANCH   1  24
ATOM     23  O   UNL     1       0.965  12.183  19.312  0.00  0.00    +0.000 OA
ATOM     24  N   UNL     1       0.871  11.616  20.410  0.00  0.00    +0.000 N 
ATOM     25  O   UNL     1       0.633  12.192  21.481  0.00  0.00    +0.000 OA
ENDBRANCH   1  24
TORSDOF 4
ENDMDL
MODEL 3
REMARK VINA RESULT:      -7.4      1.228      1.416
REMARK  Name = 
REMARK  4 active torsions:
REMARK  status: ('A' for Active; 'I' for Inactive)
REMARK    1  A    between atoms: N_2  and  C_4
REMARK    2  A    between atoms: N_11  and  C_12
REMARK    3  A    between atoms: C_15  and  N_16
REMARK    4  A    between atoms: C_20  and  N_21
REMARK                            x       y       z     vdW  Elec       q    Type
REMARK                         _______ _______ _______ _____ _____    ______ ____
ROOT
ATOM      1  C   UNL     1       0.716  11.515  19.308  0.00  0.00    +0.000 A 
ATOM      2  C   UNL     1       0.286  11.155  20.594  0.00  0.00    +0.000 A 
ATOM      3  C   UNL     1       0.383   9.827  21.013  0.00  0.00    +0.000 A 
ATOM      4  C   UNL     1       0.924   8.867  20.155  0.00  0.00    +0.000 A 
ATOM      5  C   UNL     1       1.321   9.221  18.854  0.00  0.00    +0.000 A 
ATOM      6  C   UNL     1       1.211  10.546  18.423  0.00  0.00    +0.000 A 
ATOM      7  C   UNL     1       1.835   8.136  17.940  0.00  0.00    +0.000 C 
ATOM      8  N   UNL     1       2.749   7.214  18.640  0.00  0.00    +0.000 N 
ATOM      9  C   UNL     1       2.585   7.043  20.099  0.00  0.00    +0.000 C 
ATOM     10  C   UNL     1       1.175   7.441  20.573  0.00  0.00    +0.000 C 
ENDROOT
BRANCH   8  11
ATOM     11  C   UNL     1       3.623   6.437  17.885  0.00  0.00    +0.000 A 
ATOM     12  C   UNL     1       4.791   7.049  17.368  0.00  0.00    +0.000 A 
ATOM     13  C   UNL     1       5.738   6.369  16.596  0.00  0.00    +0.000 A 
ATOM     14  C   UNL     1       5.549   5.021  16.311  0.00  0.00    +0.000 A 
ATOM     15  C   UNL     1       4.423   4.355  16.791  0.00  0.00    +0.000 A 
ATOM     16  C   UNL     1       3.479   5.069  17.560  0.00  0.00    +0.000 A 
BRANCH  14  17
ATOM     17  N   UNL     1       6.540   4.307  15.502  0.00  0.00    +0.000 N 
ATOM     18  O   UNL     1       7.737   4.450  15.799  0.00  0.00    +0.000 OA
ATOM     19  O   UNL     1       6.124   3.604  14.573  0.00  0.00    +0.000 OA
ENDBRANCH  14  17
BRANCH  16  20
ATOM     20  N   UNL     1       2.363   4.275  18.040  0.00  0.00    +0.000 N 
ATOM     21  O   UNL     1       2.502   3.669  19.113  0.00  0.00    +0.000 OA
ATOM     22  O   UNL     1       1.368   4.216  17.306  0.00  0.00    +0.000 OA
ENDBRANCH  16  20
ENDBRANCH   8  11
BRANCH   1  24
ATOM     23  O   UNL     1       1.573  13.670  19.287  0.00  0.00    +0.000 OA
ATOM     24  N   UNL     1       0.672  12.918  18.886  0.00  0.00    +0.000 N 
ATOM     25  O   UNL     1      -0.259  13.268  18.146  0.00  0.00    +0.000 OA
ENDBRANCH   1  24
TORSDOF 4
ENDMDL
MODEL 4
REMARK VINA RESULT:      -7.2      2.487      8.006
REMARK  Name = 
REMARK  4 active torsions:
REMARK  status: ('A' for Active; 'I' for Inactive)
REMARK    1  A    between atoms: N_2  and  C_4
REMARK    2  A    between atoms: N_11  and  C_12
REMARK    3  A    between atoms: C_15  and  N_16
REMARK    4  A    between atoms: C_20  and  N_21
REMARK                            x       y       z     vdW  Elec       q    Type
REMARK                         _______ _______ _______ _____ _____    ______ ____
ROOT
ATOM      1  C   UNL     1       6.112   4.589  17.859  0.00  0.00    +0.000 A 
ATOM      2  C   UNL     1       5.390   3.837  16.920  0.00  0.00    +0.000 A 
ATOM      3  C   UNL     1       3.994   3.875  16.923  0.00  0.00    +0.000 A 
ATOM      4  C   UNL     1       3.325   4.674  17.853  0.00  0.00    +0.000 A 
ATOM      5  C   UNL     1       4.048   5.399  18.817  0.00  0.00    +0.000 A 
ATOM      6  C   UNL     1       5.445   5.351  18.828  0.00  0.00    +0.000 A 
ATOM      7  C   UNL     1       3.278   6.193  19.843  0.00  0.00    +0.000 C 
ATOM      8  N   UNL     1       2.145   6.919  19.241  0.00  0.00    +0.000 N 
ATOM      9  C   UNL     1       1.537   6.367  18.012  0.00  0.00    +0.000 C 
ATOM     10  C   UNL     1       1.830   4.865  17.846  0.00  0.00    +0.000 C 
ENDROOT
BRANCH   8  11
ATOM     11  C   UNL     1       1.603   8.002  19.928  0.00  0.00    +0.000 A 
ATOM     12  C   UNL     1       1.520   7.929  21.340  0.00  0.00    +0.000 A 
ATOM     13  C   UNL     1       0.994   8.953  22.132  0.00  0.00    +0.000 A 
ATOM     14  C   UNL     1       0.526  10.116  21.529  0.00  0.00    +0.000 A 
ATOM     15  C   UNL     1       0.581  10.256  20.143  0.00  0.00    +0.000 A 
ATOM     16  C   UNL     1       1.109   9.201  19.367  0.00  0.00    +0.000 A 
BRANCH  14  17
ATOM     17  N   UNL     1      -0.026  11.190  22.358  0.00  0.00    +0.000 N 
ATOM     18  O   UNL     1      -0.576  10.870  23.423  0.00  0.00    +0.000 OA
ATOM     19  O   UNL     1       0.091  12.350  21.947  0.00  0.00    +0.000 OA
ENDBRANCH  14  17
BRANCH  16  20
ATOM     20  N   UNL     1       1.153   9.462  17.940  0.00  0.00    +0.000 N 
ATOM     21  O   UNL     1       2.259   9.686  17.425  0.00  0.00    +0.000 OA
ATOM     22  O   UNL     1       0.066   9.500  17.349  0.00  0.00    +0.000 OA
ENDBRANCH  16  20
ENDBRANCH   8  11
BRANCH   1  24
ATOM     23  O   UNL     1       8.127   4.353  16.735  0.00  0.00    +0.000 OA
ATOM     24  N   UNL     1       7.577   4.599  17.819  0.00  0.00    +0.000 N 
ATOM     25  O   UNL     1       8.180   4.864  18.869  0.00  0.00    +0.000 OA
ENDBRANCH   1  24
TORSDOF 4
ENDMDL
MODEL 5
REMARK VINA RESULT:      -7.0      2.390      3.196
REMARK  Name = 
REMARK  4 active torsions:
REMARK  status: ('A' for Active; 'I' for Inactive)
REMARK    1  A    between atoms: N_2  and  C_4
REMARK    2  A    between atoms: N_11  and  C_12
REMARK    3  A    between atoms: C_15  and  N_16
REMARK    4  A    between atoms: C_20  and  N_21
REMARK                            x       y       z     vdW  Elec       q    Type
REMARK                         _______ _______ _______ _____ _____    ______ ____
ROOT
ATOM      1  C   UNL     1       1.646   7.323  20.552  0.00  0.00    +0.000 A 
ATOM      2  C   UNL     1       1.440   6.175  21.332  0.00  0.00    +0.000 A 
ATOM      3  C   UNL     1       1.843   4.927  20.854  0.00  0.00    +0.000 A 
ATOM      4  C   UNL     1       2.466   4.832  19.607  0.00  0.00    +0.000 A 
ATOM      5  C   UNL     1       2.640   5.978  18.811  0.00  0.00    +0.000 A 
ATOM      6  C   UNL     1       2.222   7.227  19.278  0.00  0.00    +0.000 A 
ATOM      7  C   UNL     1       3.255   5.813  17.443  0.00  0.00    +0.000 C 
ATOM      8  N   UNL     1       4.404   4.890  17.463  0.00  0.00    +0.000 N 
ATOM      9  C   UNL     1       4.439   3.842  18.505  0.00  0.00    +0.000 C 
ATOM     10  C   UNL     1       3.039   3.544  19.072  0.00  0.00    +0.000 C 
ENDROOT
BRANCH   8  11
ATOM     11  C   UNL     1       5.327   4.947  16.422  0.00  0.00    +0.000 A 
ATOM     12  C   UNL     1       4.867   4.714  15.103  0.00  0.00    +0.000 A 
ATOM     13  C   UNL     1       5.702   4.744  13.981  0.00  0.00    +0.000 A 
ATOM     14  C   UNL     1       7.056   5.020  14.142  0.00  0.00    +0.000 A 
ATOM     15  C   UNL     1       7.575   5.262  15.413  0.00  0.00    +0.000 A 
ATOM     16  C   UNL     1       6.711   5.215  16.528  0.00  0.00    +0.000 A 
BRANCH  14  17
ATOM     17  N   UNL     1       7.932   5.051  12.968  0.00  0.00    +0.000 N 
ATOM     18  O   UNL     1       7.588   4.392  11.975  0.00  0.00    +0.000 OA
ATOM     19  O   UNL     1       8.960   5.734  13.038  0.00  0.00    +0.000 OA
ENDBRANCH  14  17
BRANCH  16  20
ATOM     20  N   UNL     1       7.344   5.517  17.798  0.00  0.00    +0.000 N 
ATOM     21  O   UNL     1       7.841   4.577  18.436  0.00  0.00    +0.000 OA
ATOM     22  O   UNL     1       7.289   6.693  18.180  0.00  0.00    +0.000 OA
ENDBRANCH  16  20
ENDBRANCH   8  11
BRANCH   1  24
ATOM     23  O   UNL     1       0.691   9.423  20.315  0.00  0.00    +0.000 OA
ATOM     24  N   UNL     1       1.279   8.642  21.078  0.00  0.00    +0.000 N 
ATOM     25  O   UNL     1       1.569   8.894  22.256  0.00  0.00    +0.000 OA
ENDBRANCH   1  24
TORSDOF 4
ENDMDL
MODEL 6
REMARK VINA RESULT:      -7.0      2.243      7.896
REMARK  Name = 
REMARK  4 active torsions:
REMARK  status: ('A' for Active; 'I' for Inactive)
REMARK    1  A    between atoms: N_2  and  C_4
REMARK    2  A    between atoms: N_11  and  C_12
REMARK    3  A    between atoms: C_15  and  N_16
REMARK    4  A    between atoms: C_20  and  N_21
REMARK                            x       y       z     vdW  Elec       q    Type
REMARK                         _______ _______ _______ _____ _____    ______ ____
ROOT
ATOM      1  C   UNL     1       5.984   5.129  16.738  0.00  0.00    +0.000 A 
ATOM      2  C   UNL     1       5.235   4.029  16.292  0.00  0.00    +0.000 A 
ATOM      3  C   UNL     1       3.984   3.767  16.853  0.00  0.00    +0.000 A 
ATOM      4  C   UNL     1       3.478   4.612  17.844  0.00  0.00    +0.000 A 
ATOM      5  C   UNL     1       4.245   5.692  18.316  0.00  0.00    +0.000 A 
ATOM      6  C   UNL     1       5.505   5.948  17.769  0.00  0.00    +0.000 A 
ATOM      7  C   UNL     1       3.685   6.534  19.436  0.00  0.00    +0.000 C 
ATOM      8  N   UNL     1       2.253   6.826  19.241  0.00  0.00    +0.000 N 
ATOM      9  C   UNL     1       1.445   5.867  18.459  0.00  0.00    +0.000 C 
ATOM     10  C   UNL     1       2.090   4.470  18.413  0.00  0.00    +0.000 C 
ENDROOT
BRANCH   8  11
ATOM     11  C   UNL     1       1.693   7.905  19.920  0.00  0.00    +0.000 A 
ATOM     12  C   UNL     1       1.607   7.839  21.332  0.00  0.00    +0.000 A 
ATOM     13  C   UNL     1       1.063   8.860  22.117  0.00  0.00    +0.000 A 
ATOM     14  C   UNL     1       0.578  10.012  21.505  0.00  0.00    +0.000 A 
ATOM     15  C   UNL     1       0.635  10.144  20.119  0.00  0.00    +0.000 A 
ATOM     16  C   UNL     1       1.181   9.093  19.351  0.00  0.00    +0.000 A 
BRANCH  14  17
ATOM     17  N   UNL     1       0.007  11.082  22.326  0.00  0.00    +0.000 N 
ATOM     18  O   UNL     1      -0.566  10.758  23.378  0.00  0.00    +0.000 OA
ATOM     19  O   UNL     1       0.133  12.244  21.923  0.00  0.00    +0.000 OA
ENDBRANCH  14  17
BRANCH  16  20
ATOM     20  N   UNL     1       1.225   9.346  17.922  0.00  0.00    +0.000 N 
ATOM     21  O   UNL     1       2.330   9.570  17.407  0.00  0.00    +0.000 OA
ATOM     22  O   UNL     1       0.138   9.376  17.331  0.00  0.00    +0.000 OA
ENDBRANCH  16  20
ENDBRANCH   8  11
BRANCH   1  24
ATOM     23  O   UNL     1       7.716   6.591  16.246  0.00  0.00    +0.000 OA
ATOM     24  N   UNL     1       7.271   5.442  16.109  0.00  0.00    +0.000 N 
ATOM     25  O   UNL     1       7.843   4.536  15.485  0.00  0.00    +0.000 OA
ENDBRANCH   1  24
TORSDOF 4
ENDMDL
MODEL 7
REMARK VINA RESULT:      -6.9      2.727      3.527
REMARK  Name = 
REMARK  4 active torsions:
REMARK  status: ('A' for Active; 'I' for Inactive)
REMARK    1  A    between atoms: N_2  and  C_4
REMARK    2  A    between atoms: N_11  and  C_12
REMARK    3  A    between atoms: C_15  and  N_16
REMARK    4  A    between atoms: C_20  and  N_21
REMARK                            x       y       z     vdW  Elec       q    Type
REMARK                         _______ _______ _______ _____ _____    ______ ____
ROOT
ATOM      1  C   UNL     1       1.590   6.552  20.634  0.00  0.00    +0.000 A 
ATOM      2  C   UNL     1       1.543   5.387  21.414  0.00  0.00    +0.000 A 
ATOM      3  C   UNL     1       2.083   4.198  20.920  0.00  0.00    +0.000 A 
ATOM      4  C   UNL     1       2.682   4.180  19.659  0.00  0.00    +0.000 A 
ATOM      5  C   UNL     1       2.695   5.340  18.863  0.00  0.00    +0.000 A 
ATOM      6  C   UNL     1       2.141   6.528  19.346  0.00  0.00    +0.000 A 
ATOM      7  C   UNL     1       3.292   5.253  17.479  0.00  0.00    +0.000 C 
ATOM      8  N   UNL     1       4.545   4.476  17.467  0.00  0.00    +0.000 N 
ATOM      9  C   UNL     1       4.732   3.438  18.503  0.00  0.00    +0.000 C 
ATOM     10  C   UNL     1       3.393   2.973  19.104  0.00  0.00    +0.000 C 
ENDROOT
BRANCH   8  11
ATOM     11  C   UNL     1       5.427   4.646  16.404  0.00  0.00    +0.000 A 
ATOM     12  C   UNL     1       4.957   4.390  15.093  0.00  0.00    +0.000 A 
ATOM     13  C   UNL     1       5.753   4.525  13.951  0.00  0.00    +0.000 A 
ATOM     14  C   UNL     1       7.075   4.936  14.082  0.00  0.00    +0.000 A 
ATOM     15  C   UNL     1       7.602   5.209  15.344  0.00  0.00    +0.000 A 
ATOM     16  C   UNL     1       6.778   5.054  16.480  0.00  0.00    +0.000 A 
BRANCH  14  17
ATOM     17  N   UNL     1       7.911   5.078  12.887  0.00  0.00    +0.000 N 
ATOM     18  O   UNL     1       8.900   5.823  12.961  0.00  0.00    +0.000 OA
ATOM     19  O   UNL     1       7.580   4.445  11.877  0.00  0.00    +0.000 OA
ENDBRANCH  14  17
BRANCH  16  20
ATOM     20  N   UNL     1       7.412   5.397  17.739  0.00  0.00    +0.000 N 
ATOM     21  O   UNL     1       7.311   6.567  18.139  0.00  0.00    +0.000 OA
ATOM     22  O   UNL     1       8.061   4.501  18.295  0.00  0.00    +0.000 OA
ENDBRANCH  16  20
ENDBRANCH   8  11
BRANCH   1  24
ATOM     23  O   UNL     1      -0.137   7.894  21.408  0.00  0.00    +0.000 OA
ATOM     24  N   UNL     1       1.078   7.816  21.174  0.00  0.00    +0.000 N 
ATOM     25  O   UNL     1       1.893   8.729  21.374  0.00  0.00    +0.000 OA
ENDBRANCH   1  24
TORSDOF 4
ENDMDL
MODEL 8
REMARK VINA RESULT:      -6.6      3.272      8.493
REMARK  Name = 
REMARK  4 active torsions:
REMARK  status: ('A' for Active; 'I' for Inactive)
REMARK    1  A    between atoms: N_2  and  C_4
REMARK    2  A    between atoms: N_11  and  C_12
REMARK    3  A    between atoms: C_15  and  N_16
REMARK    4  A    between atoms: C_20  and  N_21
REMARK                            x       y       z     vdW  Elec       q    Type
REMARK                         _______ _______ _______ _____ _____    ______ ____
ROOT
ATOM      1  C   UNL     1       3.682   3.584  19.925  0.00  0.00    +0.000 A 
ATOM      2  C   UNL     1       4.358   3.837  18.722  0.00  0.00    +0.000 A 
ATOM      3  C   UNL     1       4.042   4.971  17.972  0.00  0.00    +0.000 A 
ATOM      4  C   UNL     1       3.065   5.856  18.433  0.00  0.00    +0.000 A 
ATOM      5  C   UNL     1       2.362   5.583  19.620  0.00  0.00    +0.000 A 
ATOM      6  C   UNL     1       2.663   4.440  20.365  0.00  0.00    +0.000 A 
ATOM      7  C   UNL     1       1.268   6.533  20.040  0.00  0.00    +0.000 C 
ATOM      8  N   UNL     1       1.664   7.942  19.863  0.00  0.00    +0.000 N 
ATOM      9  C   UNL     1       2.666   8.260  18.823  0.00  0.00    +0.000 C 
ATOM     10  C   UNL     1       2.751   7.162  17.748  0.00  0.00    +0.000 C 
ENDROOT
BRANCH   8  11
ATOM     11  C   UNL     1       0.978   8.924  20.572  0.00  0.00    +0.000 A 
ATOM     12  C   UNL     1       0.834   8.767  21.971  0.00  0.00    +0.000 A 
ATOM     13  C   UNL     1       0.164   9.687  22.784  0.00  0.00    +0.000 A 
ATOM     14  C   UNL     1      -0.394  10.826  22.213  0.00  0.00    +0.000 A 
ATOM     15  C   UNL     1      -0.286  11.046  20.841  0.00  0.00    +0.000 A 
ATOM     16  C   UNL     1       0.387  10.095  20.044  0.00  0.00    +0.000 A 
BRANCH  14  17
ATOM     17  N   UNL     1      -1.097  11.790  23.063  0.00  0.00    +0.000 N 
ATOM     18  O   UNL     1      -0.508  12.845  23.345  0.00  0.00    +0.000 OA
ATOM     19  O   UNL     1      -2.235  11.495  23.446  0.00  0.00    +0.000 OA
ENDBRANCH  14  17
BRANCH  16  20
ATOM     20  N   UNL     1       0.473  10.437  18.636  0.00  0.00    +0.000 N 
ATOM     21  O   UNL     1      -0.310   9.876  17.854  0.00  0.00    +0.000 OA
ATOM     22  O   UNL     1       1.369  11.227  18.311  0.00  0.00    +0.000 OA
ENDBRANCH  16  20
ENDBRANCH   8  11
BRANCH   1  24
ATOM     23  O   UNL     1       3.339   2.159  21.723  0.00  0.00    +0.000 OA
ATOM     24  N   UNL     1       4.053   2.426  20.745  0.00  0.00    +0.000 N 
ATOM     25  O   UNL     1       5.053   1.777  20.405  0.00  0.00    +0.000 OA
ENDBRANCH   1  24
TORSDOF 4
ENDMDL
MODEL 9
REMARK VINA RESULT:      -6.6      2.487      4.017
REMARK  Name = 
REMARK  4 active torsions:
REMARK  status: ('A' for Active; 'I' for Inactive)
REMARK    1  A    between atoms: N_2  and  C_4
REMARK    2  A    between atoms: N_11  and  C_12
REMARK    3  A    between atoms: C_15  and  N_16
REMARK    4  A    between atoms: C_20  and  N_21
REMARK                            x       y       z     vdW  Elec       q    Type
REMARK                         _______ _______ _______ _____ _____    ______ ____
ROOT
ATOM      1  C   UNL     1      -0.410  10.756  21.202  0.00  0.00    +0.000 A 
ATOM      2  C   UNL     1      -0.536  11.483  20.008  0.00  0.00    +0.000 A 
ATOM      3  C   UNL     1       0.229  11.128  18.895  0.00  0.00    +0.000 A 
ATOM      4  C   UNL     1       1.102  10.042  18.972  0.00  0.00    +0.000 A 
ATOM      5  C   UNL     1       1.255   9.337  20.179  0.00  0.00    +0.000 A 
ATOM      6  C   UNL     1       0.504   9.699  21.301  0.00  0.00    +0.000 A 
ATOM      7  C   UNL     1       2.262   8.215  20.232  0.00  0.00    +0.000 C 
ATOM      8  N   UNL     1       2.212   7.373  19.023  0.00  0.00    +0.000 N 
ATOM      9  C   UNL     1       1.740   7.987  17.764  0.00  0.00    +0.000 C 
ATOM     10  C   UNL     1       1.871   9.521  17.784  0.00  0.00    +0.000 C 
ENDROOT
BRANCH   8  11
ATOM     11  C   UNL     1       2.746   6.088  19.080  0.00  0.00    +0.000 A 
ATOM     12  C   UNL     1       2.115   5.134  19.915  0.00  0.00    +0.000 A 
ATOM     13  C   UNL     1       2.563   3.817  20.052  0.00  0.00    +0.000 A 
ATOM     14  C   UNL     1       3.681   3.395  19.340  0.00  0.00    +0.000 A 
ATOM     15  C   UNL     1       4.349   4.282  18.496  0.00  0.00    +0.000 A 
ATOM     16  C   UNL     1       3.880   5.609  18.385  0.00  0.00    +0.000 A 
BRANCH  14  17
ATOM     17  N   UNL     1       4.152   2.015  19.483  0.00  0.00    +0.000 N 
ATOM     18  O   UNL     1       4.952   1.772  20.400  0.00  0.00    +0.000 OA
ATOM     19  O   UNL     1       3.723   1.177  18.682  0.00  0.00    +0.000 OA
ENDBRANCH  14  17
BRANCH  16  20
ATOM     20  N   UNL     1       4.624   6.439  17.455  0.00  0.00    +0.000 N 
ATOM     21  O   UNL     1       4.582   6.143  16.252  0.00  0.00    +0.000 OA
ATOM     22  O   UNL     1       5.298   7.354  17.946  0.00  0.00    +0.000 OA
ENDBRANCH  16  20
ENDBRANCH   8  11
BRANCH   1  24
ATOM     23  O   UNL     1      -0.987  10.550  23.439  0.00  0.00    +0.000 OA
ATOM     24  N   UNL     1      -1.255  11.087  22.354  0.00  0.00    +0.000 N 
ATOM     25  O   UNL     1      -2.181  11.891  22.177  0.00  0.00    +0.000 OA
ENDBRANCH   1  24
TORSDOF 4
ENDMDL
