MODEL 1
REMARK VINA RESULT:      -7.9      0.000      0.000
REMARK  Name = 
REMARK  4 active torsions:
REMARK  status: ('A' for Active; 'I' for Inactive)
REMARK    1  A    between atoms: C_1  and  N_2
REMARK    2  A    between atoms: N_5  and  C_6
REMARK    3  A    between atoms: N_15  and  C_16
REMARK    4  A    between atoms: C_16  and  C_17
REMARK                            x       y       z     vdW  Elec       q    Type
REMARK                         _______ _______ _______ _____ _____    ______ ____
ROOT
ATOM      1  C   UNL     1       2.612   6.142  18.191  0.00  0.00    +0.000 A 
ATOM      2  N   UNL     1       2.041   4.921  18.306  0.00  0.00    +0.000 NA
ATOM      3  C   UNL     1       2.721   3.863  17.833  0.00  0.00    +0.000 A 
ATOM      4 CL   UNL     1       1.916   2.356  17.964  0.00  0.00    +0.000 Cl
ATOM      5  N   UNL     1       3.933   3.812  17.250  0.00  0.00    +0.000 NA
ATOM      6  C   UNL     1       4.483   5.038  17.176  0.00  0.00    +0.000 A 
ATOM      7  C   UNL     1       3.903   6.215  17.625  0.00  0.00    +0.000 A 
ATOM      8  C   UNL     1       4.865   7.248  17.419  0.00  0.00    +0.000 A 
ATOM      9  C   UNL     1       5.959   6.688  16.805  0.00  0.00    +0.000 A 
ATOM     10  N   UNL     1       5.708   5.348  16.637  0.00  0.00    +0.000 N 
ENDROOT
BRANCH   1  15
ATOM     11  C   UNL     1      -0.077  10.580  20.287  0.00  0.00    +0.000 C 
ATOM     12  N   UNL     1       1.050   9.758  19.853  0.00  0.00    +0.000 NA
ATOM     13  C   UNL     1       0.967   9.481  18.397  0.00  0.00    +0.000 C 
ATOM     14  C   UNL     1       2.077   8.513  17.898  0.00  0.00    +0.000 C 
ATOM     15  N   UNL     1       1.987   7.278  18.684  0.00  0.00    +0.000 N 
ATOM     16  C   UNL     1       2.187   7.532  20.122  0.00  0.00    +0.000 C 
ATOM     17  C   UNL     1       1.073   8.483  20.607  0.00  0.00    +0.000 C 
ENDBRANCH   1  15
BRANCH  10  18
ATOM     18  C   UNL     1       6.663   4.394  16.089  0.00  0.00    +0.000 C 
BRANCH  18  19
ATOM     19  C   UNL     1       6.710   4.396  14.581  0.00  0.00    +0.000 A 
ATOM     20  C   UNL     1       7.641   5.190  13.895  0.00  0.00    +0.000 A 
ATOM     21  C   UNL     1       7.777   5.088  12.507  0.00  0.00    +0.000 A 
ATOM     22  C   UNL     1       6.980   4.200  11.790  0.00  0.00    +0.000 A 
ATOM     23  C   UNL     1       6.026   3.433  12.454  0.00  0.00    +0.000 A 
ATOM     24  C   UNL     1       5.889   3.532  13.840  0.00  0.00    +0.000 A 
ENDBRANCH  18  19
ENDBRANCH  10  18
TORSDOF 3
ENDMDL
MODEL 2
REMARK VINA RESULT:      -7.8      0.380      1.061
REMARK  Name = 
REMARK  4 active torsions:
REMARK  status: ('A' for Active; 'I' for Inactive)
REMARK    1  A    between atoms: C_1  and  N_2
REMARK    2  A    between atoms: N_5  and  C_6
REMARK    3  A    between atoms: N_15  and  C_16
REMARK    4  A    between atoms: C_16  and  C_17
REMARK                            x       y       z     vdW  Elec       q    Type
REMARK                         _______ _______ _______ _____ _____    ______ ____
ROOT
ATOM      1  C   UNL     1       2.828   6.313  18.318  0.00  0.00    +0.000 A 
ATOM      2  N   UNL     1       2.168   5.139  18.431  0.00  0.00    +0.000 NA
ATOM      3  C   UNL     1       2.748   4.039  17.920  0.00  0.00    +0.000 A 
ATOM      4 CL   UNL     1       1.832   2.597  18.052  0.00  0.00    +0.000 Cl
ATOM      5  N   UNL     1       3.934   3.906  17.298  0.00  0.00    +0.000 NA
ATOM      6  C   UNL     1       4.575   5.087  17.226  0.00  0.00    +0.000 A 
ATOM      7  C   UNL     1       4.104   6.297  17.713  0.00  0.00    +0.000 A 
ATOM      8  C   UNL     1       5.136   7.255  17.492  0.00  0.00    +0.000 A 
ATOM      9  C   UNL     1       6.164   6.624  16.835  0.00  0.00    +0.000 A 
ATOM     10  N   UNL     1       5.804   5.310  16.653  0.00  0.00    +0.000 N 
ENDROOT
BRANCH   1  15
ATOM     11  C   UNL     1       0.920  11.164  20.355  0.00  0.00    +0.000 C 
ATOM     12  N   UNL     1       0.871   9.816  19.794  0.00  0.00    +0.000 NA
ATOM     13  C   UNL     1       1.502   8.840  20.717  0.00  0.00    +0.000 C 
ATOM     14  C   UNL     1       1.584   7.406  20.122  0.00  0.00    +0.000 C 
ATOM     15  N   UNL     1       2.310   7.485  18.849  0.00  0.00    +0.000 N 
ATOM     16  C   UNL     1       1.622   8.363  17.884  0.00  0.00    +0.000 C 
ATOM     17  C   UNL     1       1.559   9.784  18.482  0.00  0.00    +0.000 C 
ENDBRANCH   1  15
BRANCH  10  18
ATOM     18  C   UNL     1       6.664   4.295  16.059  0.00  0.00    +0.000 C 
BRANCH  18  19
ATOM     19  C   UNL     1       6.704   4.354  14.552  0.00  0.00    +0.000 A 
ATOM     20  C   UNL     1       7.623   5.185  13.892  0.00  0.00    +0.000 A 
ATOM     21  C   UNL     1       7.754   5.136  12.502  0.00  0.00    +0.000 A 
ATOM     22  C   UNL     1       6.964   4.266  11.755  0.00  0.00    +0.000 A 
ATOM     23  C   UNL     1       6.022   3.463  12.393  0.00  0.00    +0.000 A 
ATOM     24  C   UNL     1       5.891   3.509  13.783  0.00  0.00    +0.000 A 
ENDBRANCH  18  19
ENDBRANCH  10  18
TORSDOF 3
ENDMDL
MODEL 3
REMARK VINA RESULT:      -7.7      1.757      7.698
REMARK  Name = 
REMARK  4 active torsions:
REMARK  status: ('A' for Active; 'I' for Inactive)
REMARK    1  A    between atoms: C_1  and  N_2
REMARK    2  A    between atoms: N_5  and  C_6
REMARK    3  A    between atoms: N_15  and  C_16
REMARK    4  A    between atoms: C_16  and  C_17
REMARK                            x       y       z     vdW  Elec       q    Type
REMARK                         _______ _______ _______ _____ _____    ______ ____
ROOT
ATOM      1  C   UNL     1       3.658   5.710  18.504  0.00  0.00    +0.000 A 
ATOM      2  N   UNL     1       3.336   4.795  19.447  0.00  0.00    +0.000 NA
ATOM      3  C   UNL     1       2.448   5.151  20.391  0.00  0.00    +0.000 A 
ATOM      4 CL   UNL     1       2.127   3.961  21.581  0.00  0.00    +0.000 Cl
ATOM      5  N   UNL     1       1.788   6.312  20.553  0.00  0.00    +0.000 NA
ATOM      6  C   UNL     1       2.111   7.189  19.585  0.00  0.00    +0.000 A 
ATOM      7  C   UNL     1       3.004   6.960  18.548  0.00  0.00    +0.000 A 
ATOM      8  C   UNL     1       2.977   8.123  17.723  0.00  0.00    +0.000 A 
ATOM      9  C   UNL     1       2.129   9.033  18.305  0.00  0.00    +0.000 A 
ATOM     10  N   UNL     1       1.626   8.467  19.452  0.00  0.00    +0.000 N 
ENDROOT
BRANCH   1  15
ATOM     11  C   UNL     1       7.236   4.727  14.315  0.00  0.00    +0.000 C 
ATOM     12  N   UNL     1       6.597   4.564  15.619  0.00  0.00    +0.000 NA
ATOM     13  C   UNL     1       5.172   4.181  15.460  0.00  0.00    +0.000 C 
ATOM     14  C   UNL     1       4.408   4.106  16.813  0.00  0.00    +0.000 C 
ATOM     15  N   UNL     1       4.542   5.407  17.479  0.00  0.00    +0.000 N 
ATOM     16  C   UNL     1       5.953   5.739  17.746  0.00  0.00    +0.000 C 
ATOM     17  C   UNL     1       6.696   5.822  16.396  0.00  0.00    +0.000 C 
ENDBRANCH   1  15
BRANCH  10  18
ATOM     18  C   UNL     1       0.630   9.094  20.311  0.00  0.00    +0.000 C 
BRANCH  18  19
ATOM     19  C   UNL     1       0.036  10.348  19.719  0.00  0.00    +0.000 A 
ATOM     20  C   UNL     1       0.633  11.598  19.945  0.00  0.00    +0.000 A 
ATOM     21  C   UNL     1       0.165  12.739  19.286  0.00  0.00    +0.000 A 
ATOM     22  C   UNL     1      -0.909  12.645  18.403  0.00  0.00    +0.000 A 
ATOM     23  C   UNL     1      -1.535  11.418  18.199  0.00  0.00    +0.000 A 
ATOM     24  C   UNL     1      -1.067  10.277  18.855  0.00  0.00    +0.000 A 
ENDBRANCH  18  19
ENDBRANCH  10  18
TORSDOF 3
ENDMDL
MODEL 4
REMARK VINA RESULT:      -7.7      1.048      1.439
REMARK  Name = 
REMARK  4 active torsions:
REMARK  status: ('A' for Active; 'I' for Inactive)
REMARK    1  A    between atoms: C_1  and  N_2
REMARK    2  A    between atoms: N_5  and  C_6
REMARK    3  A    between atoms: N_15  and  C_16
REMARK    4  A    between atoms: C_16  and  C_17
REMARK                            x       y       z     vdW  Elec       q    Type
REMARK                         _______ _______ _______ _____ _____    ______ ____
ROOT
ATOM      1  C   UNL     1       3.283   6.075  19.164  0.00  0.00    +0.000 A 
ATOM      2  N   UNL     1       3.188   4.906  19.838  0.00  0.00    +0.000 NA
ATOM      3  C   UNL     1       3.981   3.892  19.451  0.00  0.00    +0.000 A 
ATOM      4 CL   UNL     1       3.770   2.426  20.313  0.00  0.00    +0.000 Cl
ATOM      5  N   UNL     1       4.901   3.849  18.471  0.00  0.00    +0.000 NA
ATOM      6  C   UNL     1       4.989   5.034  17.840  0.00  0.00    +0.000 A 
ATOM      7  C   UNL     1       4.242   6.165  18.132  0.00  0.00    +0.000 A 
ATOM      8  C   UNL     1       4.718   7.201  17.275  0.00  0.00    +0.000 A 
ATOM      9  C   UNL     1       5.682   6.662  16.459  0.00  0.00    +0.000 A 
ATOM     10  N   UNL     1       5.823   5.336  16.791  0.00  0.00    +0.000 N 
ENDROOT
BRANCH   1  15
ATOM     11  C   UNL     1       0.386  10.666  20.524  0.00  0.00    +0.000 C 
ATOM     12  N   UNL     1       0.623   9.293  20.085  0.00  0.00    +0.000 NA
ATOM     13  C   UNL     1       1.278   8.505  21.158  0.00  0.00    +0.000 C 
ATOM     14  C   UNL     1       1.662   7.066  20.708  0.00  0.00    +0.000 C 
ATOM     15  N   UNL     1       2.522   7.177  19.525  0.00  0.00    +0.000 N 
ATOM     16  C   UNL     1       1.832   7.856  18.413  0.00  0.00    +0.000 C 
ATOM     17  C   UNL     1       1.469   9.285  18.868  0.00  0.00    +0.000 C 
ENDBRANCH   1  15
BRANCH  10  18
ATOM     18  C   UNL     1       6.807   4.439  16.199  0.00  0.00    +0.000 C 
BRANCH  18  19
ATOM     19  C   UNL     1       6.790   4.447  14.690  0.00  0.00    +0.000 A 
ATOM     20  C   UNL     1       7.743   5.183  13.968  0.00  0.00    +0.000 A 
ATOM     21  C   UNL     1       7.814   5.081  12.576  0.00  0.00    +0.000 A 
ATOM     22  C   UNL     1       6.930   4.252  11.890  0.00  0.00    +0.000 A 
ATOM     23  C   UNL     1       5.955   3.546  12.590  0.00  0.00    +0.000 A 
ATOM     24  C   UNL     1       5.884   3.645  13.981  0.00  0.00    +0.000 A 
ENDBRANCH  18  19
ENDBRANCH  10  18
TORSDOF 3
ENDMDL
MODEL 5
REMARK VINA RESULT:      -7.6      1.714      7.859
REMARK  Name = 
REMARK  4 active torsions:
REMARK  status: ('A' for Active; 'I' for Inactive)
REMARK    1  A    between atoms: C_1  and  N_2
REMARK    2  A    between atoms: N_5  and  C_6
REMARK    3  A    between atoms: N_15  and  C_16
REMARK    4  A    between atoms: C_16  and  C_17
REMARK                            x       y       z     vdW  Elec       q    Type
REMARK                         _______ _______ _______ _____ _____    ______ ____
ROOT
ATOM      1  C   UNL     1       3.643   5.651  18.563  0.00  0.00    +0.000 A 
ATOM      2  N   UNL     1       3.329   4.721  19.493  0.00  0.00    +0.000 NA
ATOM      3  C   UNL     1       2.447   5.060  20.449  0.00  0.00    +0.000 A 
ATOM      4 CL   UNL     1       2.137   3.851  21.623  0.00  0.00    +0.000 Cl
ATOM      5  N   UNL     1       1.786   6.217  20.634  0.00  0.00    +0.000 NA
ATOM      6  C   UNL     1       2.100   7.110  19.678  0.00  0.00    +0.000 A 
ATOM      7  C   UNL     1       2.986   6.900  18.631  0.00  0.00    +0.000 A 
ATOM      8  C   UNL     1       2.951   8.075  17.825  0.00  0.00    +0.000 A 
ATOM      9  C   UNL     1       2.106   8.974  18.427  0.00  0.00    +0.000 A 
ATOM     10  N   UNL     1       1.611   8.389  19.568  0.00  0.00    +0.000 N 
ENDROOT
BRANCH   1  15
ATOM     11  C   UNL     1       7.184   4.741  14.327  0.00  0.00    +0.000 C 
ATOM     12  N   UNL     1       6.574   4.574  15.643  0.00  0.00    +0.000 NA
ATOM     13  C   UNL     1       5.162   4.135  15.515  0.00  0.00    +0.000 C 
ATOM     14  C   UNL     1       4.424   4.052  16.881  0.00  0.00    +0.000 C 
ATOM     15  N   UNL     1       4.520   5.366  17.527  0.00  0.00    +0.000 N 
ATOM     16  C   UNL     1       5.922   5.755  17.765  0.00  0.00    +0.000 C 
ATOM     17  C   UNL     1       6.638   5.846  16.401  0.00  0.00    +0.000 C 
ENDBRANCH   1  15
BRANCH  10  18
ATOM     18  C   UNL     1       0.620   9.000  20.444  0.00  0.00    +0.000 C 
BRANCH  18  19
ATOM     19  C   UNL     1       0.044  10.280  19.891  0.00  0.00    +0.000 A 
ATOM     20  C   UNL     1      -1.051  10.252  19.014  0.00  0.00    +0.000 A 
ATOM     21  C   UNL     1      -1.671  11.439  18.612  0.00  0.00    +0.000 A 
ATOM     22  C   UNL     1      -1.199  12.665  19.074  0.00  0.00    +0.000 A 
ATOM     23  C   UNL     1      -0.089  12.710  19.914  0.00  0.00    +0.000 A 
ATOM     24  C   UNL     1       0.530  11.525  20.319  0.00  0.00    +0.000 A 
ENDBRANCH  18  19
ENDBRANCH  10  18
TORSDOF 3
ENDMDL
MODEL 6
REMARK VINA RESULT:      -7.6      0.183      1.001
REMARK  Name = 
REMARK  4 active torsions:
REMARK  status: ('A' for Active; 'I' for Inactive)
REMARK    1  A    between atoms: C_1  and  N_2
REMARK    2  A    between atoms: N_5  and  C_6
REMARK    3  A    between atoms: N_15  and  C_16
REMARK    4  A    between atoms: C_16  and  C_17
REMARK                            x       y       z     vdW  Elec       q    Type
REMARK                         _______ _______ _______ _____ _____    ______ ____
ROOT
ATOM      1  C   UNL     1       2.695   6.174  18.094  0.00  0.00    +0.000 A 
ATOM      2  N   UNL     1       2.121   4.953  18.187  0.00  0.00    +0.000 NA
ATOM      3  C   UNL     1       2.826   3.893  17.757  0.00  0.00    +0.000 A 
ATOM      4 CL   UNL     1       2.017   2.386  17.856  0.00  0.00    +0.000 Cl
ATOM      5  N   UNL     1       4.066   3.841  17.239  0.00  0.00    +0.000 NA
ATOM      6  C   UNL     1       4.617   5.067  17.186  0.00  0.00    +0.000 A 
ATOM      7  C   UNL     1       4.014   6.247  17.596  0.00  0.00    +0.000 A 
ATOM      8  C   UNL     1       4.983   7.279  17.433  0.00  0.00    +0.000 A 
ATOM      9  C   UNL     1       6.108   6.718  16.881  0.00  0.00    +0.000 A 
ATOM     10  N   UNL     1       5.869   5.375  16.709  0.00  0.00    +0.000 N 
ENDROOT
BRANCH   1  15
ATOM     11  C   UNL     1      -0.104  10.621  20.020  0.00  0.00    +0.000 C 
ATOM     12  N   UNL     1       1.044   9.800  19.648  0.00  0.00    +0.000 NA
ATOM     13  C   UNL     1       1.032   9.510  18.193  0.00  0.00    +0.000 C 
ATOM     14  C   UNL     1       2.168   8.541  17.756  0.00  0.00    +0.000 C 
ATOM     15  N   UNL     1       2.044   7.312  18.547  0.00  0.00    +0.000 N 
ATOM     16  C   UNL     1       2.173   7.579  19.991  0.00  0.00    +0.000 C 
ATOM     17  C   UNL     1       1.034   8.531  20.413  0.00  0.00    +0.000 C 
ENDBRANCH   1  15
BRANCH  10  18
ATOM     18  C   UNL     1       6.852   4.420  16.217  0.00  0.00    +0.000 C 
BRANCH  18  19
ATOM     19  C   UNL     1       6.904   4.337  14.712  0.00  0.00    +0.000 A 
ATOM     20  C   UNL     1       6.004   3.521  14.008  0.00  0.00    +0.000 A 
ATOM     21  C   UNL     1       5.961   3.551  12.612  0.00  0.00    +0.000 A 
ATOM     22  C   UNL     1       6.819   4.387  11.903  0.00  0.00    +0.000 A 
ATOM     23  C   UNL     1       7.743   5.174  12.586  0.00  0.00    +0.000 A 
ATOM     24  C   UNL     1       7.787   5.147  13.982  0.00  0.00    +0.000 A 
ENDBRANCH  18  19
ENDBRANCH  10  18
TORSDOF 3
ENDMDL
MODEL 7
REMARK VINA RESULT:      -7.5      0.458      1.469
REMARK  Name = 
REMARK  4 active torsions:
REMARK  status: ('A' for Active; 'I' for Inactive)
REMARK    1  A    between atoms: C_1  and  N_2
REMARK    2  A    between atoms: N_5  and  C_6
REMARK    3  A    between atoms: N_15  and  C_16
REMARK    4  A    between atoms: C_16  and  C_17
REMARK                            x       y       z     vdW  Elec       q    Type
REMARK                         _______ _______ _______ _____ _____    ______ ____
ROOT
ATOM      1  C   UNL     1       3.018   6.316  18.209  0.00  0.00    +0.000 A 
ATOM      2  N   UNL     1       2.379   5.125  18.253  0.00  0.00    +0.000 NA
ATOM      3  C   UNL     1       3.019   4.050  17.760  0.00  0.00    +0.000 A 
ATOM      4 CL   UNL     1       2.130   2.586  17.800  0.00  0.00    +0.000 Cl
ATOM      5  N   UNL     1       4.247   3.957  17.219  0.00  0.00    +0.000 NA
ATOM      6  C   UNL     1       4.864   5.152  17.215  0.00  0.00    +0.000 A 
ATOM      7  C   UNL     1       4.332   6.341  17.693  0.00  0.00    +0.000 A 
ATOM      8  C   UNL     1       5.354   7.327  17.563  0.00  0.00    +0.000 A 
ATOM      9  C   UNL     1       6.438   6.733  16.965  0.00  0.00    +0.000 A 
ATOM     10  N   UNL     1       6.123   5.415  16.732  0.00  0.00    +0.000 N 
ENDROOT
BRANCH   1  15
ATOM     11  C   UNL     1       0.857  11.078  20.202  0.00  0.00    +0.000 C 
ATOM     12  N   UNL     1       0.879   9.733  19.633  0.00  0.00    +0.000 NA
ATOM     13  C   UNL     1       1.513   8.776  20.572  0.00  0.00    +0.000 C 
ATOM     14  C   UNL     1       1.671   7.349  19.974  0.00  0.00    +0.000 C 
ATOM     15  N   UNL     1       2.437   7.464  18.728  0.00  0.00    +0.000 N 
ATOM     16  C   UNL     1       1.752   8.321  17.744  0.00  0.00    +0.000 C 
ATOM     17  C   UNL     1       1.613   9.735  18.346  0.00  0.00    +0.000 C 
ENDBRANCH   1  15
BRANCH  10  18
ATOM     18  C   UNL     1       7.045   4.433  16.178  0.00  0.00    +0.000 C 
BRANCH  18  19
ATOM     19  C   UNL     1       6.994   4.349  14.673  0.00  0.00    +0.000 A 
ATOM     20  C   UNL     1       6.054   3.525  14.034  0.00  0.00    +0.000 A 
ATOM     21  C   UNL     1       5.914   3.552  12.643  0.00  0.00    +0.000 A 
ATOM     22  C   UNL     1       6.715   4.394  11.876  0.00  0.00    +0.000 A 
ATOM     23  C   UNL     1       7.678   5.188  12.493  0.00  0.00    +0.000 A 
ATOM     24  C   UNL     1       7.818   5.165  13.883  0.00  0.00    +0.000 A 
ENDBRANCH  18  19
ENDBRANCH  10  18
TORSDOF 3
ENDMDL
MODEL 8
REMARK VINA RESULT:      -7.2      1.475      1.960
REMARK  Name = 
REMARK  4 active torsions:
REMARK  status: ('A' for Active; 'I' for Inactive)
REMARK    1  A    between atoms: C_1  and  N_2
REMARK    2  A    between atoms: N_5  and  C_6
REMARK    3  A    between atoms: N_15  and  C_16
REMARK    4  A    between atoms: C_16  and  C_17
REMARK                            x       y       z     vdW  Elec       q    Type
REMARK                         _______ _______ _______ _____ _____    ______ ____
ROOT
ATOM      1  C   UNL     1       2.266   6.860  19.675  0.00  0.00    +0.000 A 
ATOM      2  N   UNL     1       1.946   5.842  20.506  0.00  0.00    +0.000 NA
ATOM      3  C   UNL     1       2.452   4.627  20.236  0.00  0.00    +0.000 A 
ATOM      4 CL   UNL     1       1.963   3.376  21.299  0.00  0.00    +0.000 Cl
ATOM      5  N   UNL     1       3.270   4.241  19.240  0.00  0.00    +0.000 NA
ATOM      6  C   UNL     1       3.590   5.281  18.448  0.00  0.00    +0.000 A 
ATOM      7  C   UNL     1       3.149   6.586  18.607  0.00  0.00    +0.000 A 
ATOM      8  C   UNL     1       3.794   7.360  17.599  0.00  0.00    +0.000 A 
ATOM      9  C   UNL     1       4.550   6.507  16.832  0.00  0.00    +0.000 A 
ATOM     10  N   UNL     1       4.399   5.239  17.339  0.00  0.00    +0.000 N 
ENDROOT
BRANCH   1  15
ATOM     11  C   UNL     1       0.621  12.146  20.489  0.00  0.00    +0.000 C 
ATOM     12  N   UNL     1       0.501  10.714  20.228  0.00  0.00    +0.000 NA
ATOM     13  C   UNL     1       1.008   9.927  21.379  0.00  0.00    +0.000 C 
ATOM     14  C   UNL     1       1.014   8.395  21.113  0.00  0.00    +0.000 C 
ATOM     15  N   UNL     1       1.809   8.149  19.905  0.00  0.00    +0.000 N 
ATOM     16  C   UNL     1       1.241   8.835  18.730  0.00  0.00    +0.000 C 
ATOM     17  C   UNL     1       1.252  10.354  19.003  0.00  0.00    +0.000 C 
ENDBRANCH   1  15
BRANCH  10  18
ATOM     18  C   UNL     1       5.104   4.064  16.843  0.00  0.00    +0.000 C 
BRANCH  18  19
ATOM     19  C   UNL     1       5.707   4.264  15.474  0.00  0.00    +0.000 A 
ATOM     20  C   UNL     1       6.951   4.896  15.325  0.00  0.00    +0.000 A 
ATOM     21  C   UNL     1       7.572   4.958  14.074  0.00  0.00    +0.000 A 
ATOM     22  C   UNL     1       6.954   4.397  12.959  0.00  0.00    +0.000 A 
ATOM     23  C   UNL     1       5.702   3.801  13.085  0.00  0.00    +0.000 A 
ATOM     24  C   UNL     1       5.081   3.737  14.334  0.00  0.00    +0.000 A 
ENDBRANCH  18  19
ENDBRANCH  10  18
TORSDOF 3
ENDMDL
MODEL 9
REMARK VINA RESULT:      -7.1      1.455      2.219
REMARK  Name = 
REMARK  4 active torsions:
REMARK  status: ('A' for Active; 'I' for Inactive)
REMARK    1  A    between atoms: C_1  and  N_2
REMARK    2  A    between atoms: N_5  and  C_6
REMARK    3  A    between atoms: N_15  and  C_16
REMARK    4  A    between atoms: C_16  and  C_17
REMARK                            x       y       z     vdW  Elec       q    Type
REMARK                         _______ _______ _______ _____ _____    ______ ____
ROOT
ATOM      1  C   UNL     1       2.235   7.001  19.577  0.00  0.00    +0.000 A 
ATOM      2  N   UNL     1       1.864   6.033  20.445  0.00  0.00    +0.000 NA
ATOM      3  C   UNL     1       2.360   4.798  20.258  0.00  0.00    +0.000 A 
ATOM      4 CL   UNL     1       1.806   3.611  21.362  0.00  0.00    +0.000 Cl
ATOM      5  N   UNL     1       3.210   4.349  19.317  0.00  0.00    +0.000 NA
ATOM      6  C   UNL     1       3.579   5.341  18.488  0.00  0.00    +0.000 A 
ATOM      7  C   UNL     1       3.155   6.660  18.562  0.00  0.00    +0.000 A 
ATOM      8  C   UNL     1       3.855   7.371  17.543  0.00  0.00    +0.000 A 
ATOM      9  C   UNL     1       4.625   6.468  16.852  0.00  0.00    +0.000 A 
ATOM     10  N   UNL     1       4.433   5.230  17.417  0.00  0.00    +0.000 N 
ENDROOT
BRANCH   1  15
ATOM     11  C   UNL     1       0.650  12.347  20.052  0.00  0.00    +0.000 C 
ATOM     12  N   UNL     1       0.515  10.905  19.863  0.00  0.00    +0.000 NA
ATOM     13  C   UNL     1       0.968  10.173  21.071  0.00  0.00    +0.000 C 
ATOM     14  C   UNL     1       0.958   8.629  20.887  0.00  0.00    +0.000 C 
ATOM     15  N   UNL     1       1.792   8.307  19.723  0.00  0.00    +0.000 N 
ATOM     16  C   UNL     1       1.276   8.938  18.494  0.00  0.00    +0.000 C 
ATOM     17  C   UNL     1       1.303  10.469  18.686  0.00  0.00    +0.000 C 
ENDBRANCH   1  15
BRANCH  10  18
ATOM     18  C   UNL     1       5.136   4.021  17.010  0.00  0.00    +0.000 C 
BRANCH  18  19
ATOM     19  C   UNL     1       5.822   4.151  15.673  0.00  0.00    +0.000 A 
ATOM     20  C   UNL     1       5.223   3.645  14.508  0.00  0.00    +0.000 A 
ATOM     21  C   UNL     1       5.790   3.886  13.254  0.00  0.00    +0.000 A 
ATOM     22  C   UNL     1       6.965   4.627  13.149  0.00  0.00    +0.000 A 
ATOM     23  C   UNL     1       7.591   5.102  14.298  0.00  0.00    +0.000 A 
ATOM     24  C   UNL     1       7.025   4.864  15.552  0.00  0.00    +0.000 A 
ENDBRANCH  18  19
ENDBRANCH  10  18
TORSDOF 3
ENDMDL
