MODEL 1
REMARK VINA RESULT:      -6.8      0.000      0.000
REMARK  Name = 
REMARK  1 active torsions:
REMARK  status: ('A' for Active; 'I' for Inactive)
REMARK    1  A    between atoms: C_2  and  C_3
REMARK                            x       y       z     vdW  Elec       q    Type
REMARK                         _______ _______ _______ _____ _____    ______ ____
ROOT
ATOM      1  O   UNL     1      -1.105  11.260  22.001  0.00  0.00    +0.000 OA
ATOM      2  C   UNL     1      -0.766  11.066  20.836  0.00  0.00    +0.000 C 
ATOM      3  N   UNL     1      -0.071   9.931  20.449  0.00  0.00    +0.000 N 
ATOM      4  C   UNL     1       0.438   9.627  19.100  0.00  0.00    +0.000 C 
ATOM      5  C   UNL     1       1.827   8.951  19.136  0.00  0.00    +0.000 C 
ATOM      6  N   UNL     1       1.830   7.837  20.089  0.00  0.00    +0.000 N 
ATOM      7  C   UNL     1       2.233   6.594  19.706  0.00  0.00    +0.000 A 
ATOM      8  N   UNL     1       2.733   6.328  18.519  0.00  0.00    +0.000 NA
ATOM      9  C   UNL     1       3.050   4.987  18.389  0.00  0.00    +0.000 A 
ATOM     10  C   UNL     1       3.618   4.370  17.254  0.00  0.00    +0.000 A 
ATOM     11  C   UNL     1       3.872   2.994  17.269  0.00  0.00    +0.000 A 
ATOM     12  C   UNL     1       3.561   2.242  18.393  0.00  0.00    +0.000 A 
ATOM     13  F   UNL     1       3.804   0.926  18.387  0.00  0.00    +0.000 F 
ATOM     14  C   UNL     1       3.004   2.820  19.530  0.00  0.00    +0.000 A 
ATOM     15  C   UNL     1       2.761   4.201  19.503  0.00  0.00    +0.000 A 
ATOM     16  S   UNL     1       2.104   5.200  20.726  0.00  0.00    +0.000 S 
ATOM     17  C   UNL     1       1.404   8.191  21.445  0.00  0.00    +0.000 C 
ATOM     18  C   UNL     1       0.004   8.815  21.398  0.00  0.00    +0.000 C 
ENDROOT
BRANCH   2  19
ATOM     19  C   UNL     1      -1.119  12.087  19.803  0.00  0.00    +0.000 C 
ATOM     20  C   UNL     1      -2.468  12.002  19.119  0.00  0.00    +0.000 C 
ATOM     21  C   UNL     1      -2.190  13.115  20.085  0.00  0.00    +0.000 C 
ENDBRANCH   2  19
TORSDOF 1
ENDMDL
MODEL 2
REMARK VINA RESULT:      -6.5      4.173      8.406
REMARK  Name = 
REMARK  1 active torsions:
REMARK  status: ('A' for Active; 'I' for Inactive)
REMARK    1  A    between atoms: C_2  and  C_3
REMARK                            x       y       z     vdW  Elec       q    Type
REMARK                         _______ _______ _______ _____ _____    ______ ____
ROOT
ATOM      1  O   UNL     1       3.572   4.198  17.126  0.00  0.00    +0.000 OA
ATOM      2  C   UNL     1       3.090   4.145  18.255  0.00  0.00    +0.000 C 
ATOM      3  N   UNL     1       2.495   5.243  18.857  0.00  0.00    +0.000 N 
ATOM      4  C   UNL     1       1.946   5.310  20.222  0.00  0.00    +0.000 C 
ATOM      5  C   UNL     1       2.247   6.661  20.911  0.00  0.00    +0.000 C 
ATOM      6  N   UNL     1       1.900   7.776  20.024  0.00  0.00    +0.000 N 
ATOM      7  C   UNL     1       1.072   8.770  20.448  0.00  0.00    +0.000 A 
ATOM      8  N   UNL     1       0.618   8.860  21.679  0.00  0.00    +0.000 NA
ATOM      9  C   UNL     1      -0.210   9.958  21.837  0.00  0.00    +0.000 A 
ATOM     10  C   UNL     1      -0.850  10.356  23.030  0.00  0.00    +0.000 A 
ATOM     11  C   UNL     1      -1.671  11.488  23.031  0.00  0.00    +0.000 A 
ATOM     12  C   UNL     1      -1.857  12.212  21.861  0.00  0.00    +0.000 A 
ATOM     13  F   UNL     1      -2.651  13.289  21.878  0.00  0.00    +0.000 F 
ATOM     14  C   UNL     1      -1.238  11.850  20.669  0.00  0.00    +0.000 A 
ATOM     15  C   UNL     1      -0.412  10.716  20.685  0.00  0.00    +0.000 A 
ATOM     16  S   UNL     1       0.488  10.025  19.406  0.00  0.00    +0.000 S 
ATOM     17  C   UNL     1       2.534   7.728  18.705  0.00  0.00    +0.000 C 
ATOM     18  C   UNL     1       2.185   6.402  18.014  0.00  0.00    +0.000 C 
ENDROOT
BRANCH   2  19
ATOM     19  C   UNL     1       3.143   2.851  19.002  0.00  0.00    +0.000 C 
ATOM     20  C   UNL     1       2.038   1.836  18.790  0.00  0.00    +0.000 C 
ATOM     21  C   UNL     1       3.417   1.559  18.266  0.00  0.00    +0.000 C 
ENDBRANCH   2  19
TORSDOF 1
ENDMDL
MODEL 3
REMARK VINA RESULT:      -6.5      4.254      8.205
REMARK  Name = 
REMARK  1 active torsions:
REMARK  status: ('A' for Active; 'I' for Inactive)
REMARK    1  A    between atoms: C_2  and  C_3
REMARK                            x       y       z     vdW  Elec       q    Type
REMARK                         _______ _______ _______ _____ _____    ______ ____
ROOT
ATOM      1  O   UNL     1       5.203   3.913  18.291  0.00  0.00    +0.000 OA
ATOM      2  C   UNL     1       5.079   5.024  17.780  0.00  0.00    +0.000 C 
ATOM      3  N   UNL     1       4.218   5.982  18.294  0.00  0.00    +0.000 N 
ATOM      4  C   UNL     1       3.945   7.314  17.729  0.00  0.00    +0.000 C 
ATOM      5  C   UNL     1       2.454   7.707  17.845  0.00  0.00    +0.000 C 
ATOM      6  N   UNL     1       1.969   7.476  19.210  0.00  0.00    +0.000 N 
ATOM      7  C   UNL     1       1.356   8.471  19.908  0.00  0.00    +0.000 A 
ATOM      8  N   UNL     1       1.066   9.646  19.392  0.00  0.00    +0.000 NA
ATOM      9  C   UNL     1       0.456  10.472  20.320  0.00  0.00    +0.000 A 
ATOM     10  C   UNL     1       0.002  11.789  20.094  0.00  0.00    +0.000 A 
ATOM     11  C   UNL     1      -0.588  12.507  21.140  0.00  0.00    +0.000 A 
ATOM     12  C   UNL     1      -0.720  11.926  22.393  0.00  0.00    +0.000 A 
ATOM     13  F   UNL     1      -1.281  12.630  23.384  0.00  0.00    +0.000 F 
ATOM     14  C   UNL     1      -0.288  10.629  22.649  0.00  0.00    +0.000 A 
ATOM     15  C   UNL     1       0.295   9.919  21.589  0.00  0.00    +0.000 A 
ATOM     16  S   UNL     1       0.910   8.323  21.576  0.00  0.00    +0.000 S 
ATOM     17  C   UNL     1       2.175   6.115  19.711  0.00  0.00    +0.000 C 
ATOM     18  C   UNL     1       3.666   5.759  19.634  0.00  0.00    +0.000 C 
ENDROOT
BRANCH   2  19
ATOM     19  C   UNL     1       5.888   5.354  16.567  0.00  0.00    +0.000 C 
ATOM     20  C   UNL     1       7.258   5.977  16.746  0.00  0.00    +0.000 C 
ATOM     21  C   UNL     1       7.138   4.566  16.249  0.00  0.00    +0.000 C 
ENDBRANCH   2  19
TORSDOF 1
ENDMDL
MODEL 4
REMARK VINA RESULT:      -6.2      4.975      9.200
REMARK  Name = 
REMARK  1 active torsions:
REMARK  status: ('A' for Active; 'I' for Inactive)
REMARK    1  A    between atoms: C_2  and  C_3
REMARK                            x       y       z     vdW  Elec       q    Type
REMARK                         _______ _______ _______ _____ _____    ______ ____
ROOT
ATOM      1  O   UNL     1       2.561   8.627  17.177  0.00  0.00    +0.000 OA
ATOM      2  C   UNL     1       2.235   8.315  18.320  0.00  0.00    +0.000 C 
ATOM      3  N   UNL     1       1.337   9.066  19.064  0.00  0.00    +0.000 N 
ATOM      4  C   UNL     1       0.927   8.822  20.457  0.00  0.00    +0.000 C 
ATOM      5  C   UNL     1       0.775  10.133  21.262  0.00  0.00    +0.000 C 
ATOM      6  N   UNL     1      -0.032  11.102  20.515  0.00  0.00    +0.000 N 
ATOM      7  C   UNL     1      -1.124  11.684  21.084  0.00  0.00    +0.000 A 
ATOM      8  N   UNL     1      -1.467  11.507  22.342  0.00  0.00    +0.000 NA
ATOM      9  C   UNL     1      -2.621  12.204  22.656  0.00  0.00    +0.000 A 
ATOM     10  C   UNL     1      -3.252  12.246  23.919  0.00  0.00    +0.000 A 
ATOM     11  C   UNL     1      -4.426  12.989  24.081  0.00  0.00    +0.000 A 
ATOM     12  C   UNL     1      -4.967  13.677  23.004  0.00  0.00    +0.000 A 
ATOM     13  F   UNL     1      -6.094  14.378  23.176  0.00  0.00    +0.000 F 
ATOM     14  C   UNL     1      -4.368  13.661  21.748  0.00  0.00    +0.000 A 
ATOM     15  C   UNL     1      -3.188  12.917  21.602  0.00  0.00    +0.000 A 
ATOM     16  S   UNL     1      -2.217  12.706  20.210  0.00  0.00    +0.000 S 
ATOM     17  C   UNL     1       0.454  11.391  19.164  0.00  0.00    +0.000 C 
ATOM     18  C   UNL     1       0.552  10.087  18.363  0.00  0.00    +0.000 C 
ENDROOT
BRANCH   2  19
ATOM     19  C   UNL     1       2.823   7.082  18.927  0.00  0.00    +0.000 C 
ATOM     20  C   UNL     1       2.298   5.728  18.491  0.00  0.00    +0.000 C 
ATOM     21  C   UNL     1       3.679   6.158  18.091  0.00  0.00    +0.000 C 
ENDBRANCH   2  19
TORSDOF 1
ENDMDL
MODEL 5
REMARK VINA RESULT:      -6.0      2.179      2.868
REMARK  Name = 
REMARK  1 active torsions:
REMARK  status: ('A' for Active; 'I' for Inactive)
REMARK    1  A    between atoms: C_2  and  C_3
REMARK                            x       y       z     vdW  Elec       q    Type
REMARK                         _______ _______ _______ _____ _____    ______ ____
ROOT
ATOM      1  O   UNL     1      -0.794  12.943  20.511  0.00  0.00    +0.000 OA
ATOM      2  C   UNL     1      -0.428  12.044  21.264  0.00  0.00    +0.000 C 
ATOM      3  N   UNL     1       0.304  10.956  20.815  0.00  0.00    +0.000 N 
ATOM      4  C   UNL     1       0.737   9.796  21.612  0.00  0.00    +0.000 C 
ATOM      5  C   UNL     1       0.631   8.470  20.825  0.00  0.00    +0.000 C 
ATOM      6  N   UNL     1       1.250   8.608  19.503  0.00  0.00    +0.000 N 
ATOM      7  C   UNL     1       2.207   7.733  19.088  0.00  0.00    +0.000 A 
ATOM      8  N   UNL     1       2.563   6.668  19.775  0.00  0.00    +0.000 NA
ATOM      9  C   UNL     1       3.562   5.959  19.131  0.00  0.00    +0.000 A 
ATOM     10  C   UNL     1       4.159   4.762  19.583  0.00  0.00    +0.000 A 
ATOM     11  C   UNL     1       5.171   4.164  18.824  0.00  0.00    +0.000 A 
ATOM     12  C   UNL     1       5.585   4.749  17.636  0.00  0.00    +0.000 A 
ATOM     13  F   UNL     1       6.559   4.166  16.925  0.00  0.00    +0.000 F 
ATOM     14  C   UNL     1       5.014   5.924  17.158  0.00  0.00    +0.000 A 
ATOM     15  C   UNL     1       3.997   6.510  17.927  0.00  0.00    +0.000 A 
ATOM     16  S   UNL     1       3.098   7.931  17.616  0.00  0.00    +0.000 S 
ATOM     17  C   UNL     1       0.734   9.717  18.698  0.00  0.00    +0.000 C 
ATOM     18  C   UNL     1       0.892  11.032  19.473  0.00  0.00    +0.000 C 
ENDROOT
BRANCH   2  19
ATOM     19  C   UNL     1      -0.781  12.130  22.714  0.00  0.00    +0.000 C 
ATOM     20  C   UNL     1      -1.584  13.318  23.205  0.00  0.00    +0.000 C 
ATOM     21  C   UNL     1      -2.216  11.958  23.159  0.00  0.00    +0.000 C 
ENDBRANCH   2  19
TORSDOF 1
ENDMDL
MODEL 6
REMARK VINA RESULT:      -6.0      3.402      5.243
REMARK  Name = 
REMARK  1 active torsions:
REMARK  status: ('A' for Active; 'I' for Inactive)
REMARK    1  A    between atoms: C_2  and  C_3
REMARK                            x       y       z     vdW  Elec       q    Type
REMARK                         _______ _______ _______ _____ _____    ______ ____
ROOT
ATOM      1  O   UNL     1      -4.665  13.681  24.244  0.00  0.00    +0.000 OA
ATOM      2  C   UNL     1      -4.558  13.631  23.021  0.00  0.00    +0.000 C 
ATOM      3  N   UNL     1      -3.560  12.899  22.396  0.00  0.00    +0.000 N 
ATOM      4  C   UNL     1      -3.300  12.820  20.949  0.00  0.00    +0.000 C 
ATOM      5  C   UNL     1      -1.789  12.809  20.623  0.00  0.00    +0.000 C 
ATOM      6  N   UNL     1      -1.093  11.823  21.455  0.00  0.00    +0.000 N 
ATOM      7  C   UNL     1      -0.304  10.868  20.890  0.00  0.00    +0.000 A 
ATOM      8  N   UNL     1      -0.030  10.822  19.604  0.00  0.00    +0.000 NA
ATOM      9  C   UNL     1       0.784   9.746  19.296  0.00  0.00    +0.000 A 
ATOM     10  C   UNL     1       1.278   9.414  18.016  0.00  0.00    +0.000 A 
ATOM     11  C   UNL     1       2.086   8.282  17.858  0.00  0.00    +0.000 A 
ATOM     12  C   UNL     1       2.393   7.490  18.956  0.00  0.00    +0.000 A 
ATOM     13  F   UNL     1       3.162   6.408  18.786  0.00  0.00    +0.000 F 
ATOM     14  C   UNL     1       1.927   7.792  20.232  0.00  0.00    +0.000 A 
ATOM     15  C   UNL     1       1.124   8.933  20.376  0.00  0.00    +0.000 A 
ATOM     16  S   UNL     1       0.412   9.574  21.792  0.00  0.00    +0.000 S 
ATOM     17  C   UNL     1      -1.299  11.983  22.896  0.00  0.00    +0.000 C 
ATOM     18  C   UNL     1      -2.801  11.942  23.209  0.00  0.00    +0.000 C 
ENDROOT
BRANCH   2  19
ATOM     19  C   UNL     1      -5.540  14.381  22.179  0.00  0.00    +0.000 C 
ATOM     20  C   UNL     1      -6.882  13.745  21.876  0.00  0.00    +0.000 C 
ATOM     21  C   UNL     1      -6.807  14.929  22.795  0.00  0.00    +0.000 C 
ENDBRANCH   2  19
TORSDOF 1
ENDMDL
MODEL 7
REMARK VINA RESULT:      -5.8      4.138      8.392
REMARK  Name = 
REMARK  1 active torsions:
REMARK  status: ('A' for Active; 'I' for Inactive)
REMARK    1  A    between atoms: C_2  and  C_3
REMARK                            x       y       z     vdW  Elec       q    Type
REMARK                         _______ _______ _______ _____ _____    ______ ____
ROOT
ATOM      1  O   UNL     1       4.262   3.819  17.170  0.00  0.00    +0.000 OA
ATOM      2  C   UNL     1       3.554   3.890  18.172  0.00  0.00    +0.000 C 
ATOM      3  N   UNL     1       2.934   5.069  18.556  0.00  0.00    +0.000 N 
ATOM      4  C   UNL     1       2.121   5.283  19.766  0.00  0.00    +0.000 C 
ATOM      5  C   UNL     1       2.376   6.666  20.407  0.00  0.00    +0.000 C 
ATOM      6  N   UNL     1       2.307   7.722  19.392  0.00  0.00    +0.000 N 
ATOM      7  C   UNL     1       1.488   8.797  19.560  0.00  0.00    +0.000 A 
ATOM      8  N   UNL     1       0.797   9.017  20.658  0.00  0.00    +0.000 NA
ATOM      9  C   UNL     1       0.041  10.172  20.559  0.00  0.00    +0.000 A 
ATOM     10  C   UNL     1      -0.799  10.707  21.559  0.00  0.00    +0.000 A 
ATOM     11  C   UNL     1      -1.513  11.883  21.307  0.00  0.00    +0.000 A 
ATOM     12  C   UNL     1      -1.397  12.516  20.077  0.00  0.00    +0.000 A 
ATOM     13  F   UNL     1      -2.093  13.637  19.850  0.00  0.00    +0.000 F 
ATOM     14  C   UNL     1      -0.574  12.019  19.071  0.00  0.00    +0.000 A 
ATOM     15  C   UNL     1       0.141  10.842  19.341  0.00  0.00    +0.000 A 
ATOM     16  S   UNL     1       1.230   9.992  18.333  0.00  0.00    +0.000 S 
ATOM     17  C   UNL     1       3.194   7.525  18.243  0.00  0.00    +0.000 C 
ATOM     18  C   UNL     1       2.895   6.170  17.588  0.00  0.00    +0.000 C 
ENDROOT
BRANCH   2  19
ATOM     19  C   UNL     1       3.352   2.662  19.001  0.00  0.00    +0.000 C 
ATOM     20  C   UNL     1       2.144   1.787  18.733  0.00  0.00    +0.000 C 
ATOM     21  C   UNL     1       3.517   1.292  18.384  0.00  0.00    +0.000 C 
ENDBRANCH   2  19
TORSDOF 1
ENDMDL
MODEL 8
REMARK VINA RESULT:      -5.7      4.659      9.008
REMARK  Name = 
REMARK  1 active torsions:
REMARK  status: ('A' for Active; 'I' for Inactive)
REMARK    1  A    between atoms: C_2  and  C_3
REMARK                            x       y       z     vdW  Elec       q    Type
REMARK                         _______ _______ _______ _____ _____    ______ ____
ROOT
ATOM      1  O   UNL     1       3.138   7.185  17.973  0.00  0.00    +0.000 OA
ATOM      2  C   UNL     1       2.650   7.063  19.094  0.00  0.00    +0.000 C 
ATOM      3  N   UNL     1       1.790   8.008  19.632  0.00  0.00    +0.000 N 
ATOM      4  C   UNL     1       1.200   7.995  20.982  0.00  0.00    +0.000 C 
ATOM      5  C   UNL     1       1.145   9.406  21.612  0.00  0.00    +0.000 C 
ATOM      6  N   UNL     1       0.566  10.366  20.667  0.00  0.00    +0.000 N 
ATOM      7  C   UNL     1      -0.489  11.147  21.027  0.00  0.00    +0.000 A 
ATOM      8  N   UNL     1      -0.989  11.174  22.244  0.00  0.00    +0.000 NA
ATOM      9  C   UNL     1      -2.062  12.044  22.334  0.00  0.00    +0.000 A 
ATOM     10  C   UNL     1      -2.814  12.323  23.495  0.00  0.00    +0.000 A 
ATOM     11  C   UNL     1      -3.884  13.222  23.426  0.00  0.00    +0.000 A 
ATOM     12  C   UNL     1      -4.204  13.830  22.221  0.00  0.00    +0.000 A 
ATOM     13  F   UNL     1      -5.235  14.683  22.172  0.00  0.00    +0.000 F 
ATOM     14  C   UNL     1      -3.480  13.581  21.059  0.00  0.00    +0.000 A 
ATOM     15  C   UNL     1      -2.406  12.683  21.144  0.00  0.00    +0.000 A 
ATOM     16  S   UNL     1      -1.328  12.178  19.916  0.00  0.00    +0.000 S 
ATOM     17  C   UNL     1       1.232  10.419  19.363  0.00  0.00    +0.000 C 
ATOM     18  C   UNL     1       1.235   9.022  18.730  0.00  0.00    +0.000 C 
ENDROOT
BRANCH   2  19
ATOM     19  C   UNL     1       2.991   5.852  19.902  0.00  0.00    +0.000 C 
ATOM     20  C   UNL     1       2.169   4.593  19.719  0.00  0.00    +0.000 C 
ATOM     21  C   UNL     1       3.588   4.635  19.232  0.00  0.00    +0.000 C 
ENDBRANCH   2  19
TORSDOF 1
ENDMDL
MODEL 9
REMARK VINA RESULT:      -5.6      2.519      3.611
REMARK  Name = 
REMARK  1 active torsions:
REMARK  status: ('A' for Active; 'I' for Inactive)
REMARK    1  A    between atoms: C_2  and  C_3
REMARK                            x       y       z     vdW  Elec       q    Type
REMARK                         _______ _______ _______ _____ _____    ______ ____
ROOT
ATOM      1  O   UNL     1      -1.876  14.014  21.179  0.00  0.00    +0.000 OA
ATOM      2  C   UNL     1      -1.449  13.110  21.893  0.00  0.00    +0.000 C 
ATOM      3  N   UNL     1      -0.725  12.044  21.380  0.00  0.00    +0.000 N 
ATOM      4  C   UNL     1      -0.223  10.879  22.129  0.00  0.00    +0.000 C 
ATOM      5  C   UNL     1      -0.352   9.565  21.325  0.00  0.00    +0.000 C 
ATOM      6  N   UNL     1       0.183   9.738  19.971  0.00  0.00    +0.000 N 
ATOM      7  C   UNL     1       1.129   8.889  19.483  0.00  0.00    +0.000 A 
ATOM      8  N   UNL     1       1.546   7.820  20.128  0.00  0.00    +0.000 NA
ATOM      9  C   UNL     1       2.517   7.141  19.412  0.00  0.00    +0.000 A 
ATOM     10  C   UNL     1       3.162   5.949  19.806  0.00  0.00    +0.000 A 
ATOM     11  C   UNL     1       4.137   5.384  18.977  0.00  0.00    +0.000 A 
ATOM     12  C   UNL     1       4.468   5.997  17.776  0.00  0.00    +0.000 A 
ATOM     13  F   UNL     1       5.408   5.445  16.998  0.00  0.00    +0.000 F 
ATOM     14  C   UNL     1       3.848   7.169  17.356  0.00  0.00    +0.000 A 
ATOM     15  C   UNL     1       2.868   7.721  18.195  0.00  0.00    +0.000 A 
ATOM     16  S   UNL     1       1.926   9.130  17.964  0.00  0.00    +0.000 S 
ATOM     17  C   UNL     1      -0.401  10.850  19.220  0.00  0.00    +0.000 C 
ATOM     18  C   UNL     1      -0.221  12.155  20.008  0.00  0.00    +0.000 C 
ENDROOT
BRANCH   2  19
ATOM     19  C   UNL     1      -1.715  13.163  23.363  0.00  0.00    +0.000 C 
ATOM     20  C   UNL     1      -2.205  14.461  23.972  0.00  0.00    +0.000 C 
ATOM     21  C   UNL     1      -3.132  13.285  23.875  0.00  0.00    +0.000 C 
ENDBRANCH   2  19
TORSDOF 1
ENDMDL
