MODEL 1
REMARK VINA RESULT:      -6.7      0.000      0.000
REMARK  Name = 
REMARK  3 active torsions:
REMARK  status: ('A' for Active; 'I' for Inactive)
REMARK    1  A    between atoms: C_1  and  C_2
REMARK    2  A    between atoms: C_5  and  S_6
REMARK    3  A    between atoms: S_6  and  N_7
REMARK                            x       y       z     vdW  Elec       q    Type
REMARK                         _______ _______ _______ _____ _____    ______ ____
ROOT
ATOM      1  C   UNL     1       7.850   6.866  18.232  0.00  0.00    +0.000 C 
ATOM      2  C   UNL     1       6.751   5.839  18.123  0.00  0.00    +0.000 A 
ATOM      3  C   UNL     1       5.985   5.540  19.261  0.00  0.00    +0.000 A 
ATOM      4  C   UNL     1       4.957   4.614  19.180  0.00  0.00    +0.000 A 
ATOM      5  C   UNL     1       4.697   3.979  17.962  0.00  0.00    +0.000 A 
ATOM      6  C   UNL     1       5.482   4.242  16.805  0.00  0.00    +0.000 A 
ATOM      7  C   UNL     1       5.316   3.620  15.541  0.00  0.00    +0.000 A 
ATOM      8  C   UNL     1       6.093   3.981  14.450  0.00  0.00    +0.000 A 
ATOM      9  C   UNL     1       7.049   4.950  14.646  0.00  0.00    +0.000 A 
ATOM     10  N   UNL     1       7.268   5.547  15.833  0.00  0.00    +0.000 NA
ATOM     11  C   UNL     1       6.511   5.206  16.897  0.00  0.00    +0.000 A 
ENDROOT
BRANCH   5  12
ATOM     12  S   UNL     1       3.285   2.910  17.892  0.00  0.00    +0.000 S 
ATOM     13  O   UNL     1       2.327   3.444  16.957  0.00  0.00    +0.000 OA
ATOM     14  O   UNL     1       3.727   1.534  17.843  0.00  0.00    +0.000 OA
BRANCH  12  15
ATOM     15  N   UNL     1       2.626   3.091  19.427  0.00  0.00    +0.000 NA
ATOM     16  H   UNL     1       1.721   2.629  19.489  0.00  0.00    +0.000 HD
ATOM     17  H   UNL     1       3.298   2.805  20.139  0.00  0.00    +0.000 HD
ENDBRANCH  12  15
ENDBRANCH   5  12
TORSDOF 2
ENDMDL
MODEL 2
REMARK VINA RESULT:      -6.5      0.923      1.100
REMARK  Name = 
REMARK  3 active torsions:
REMARK  status: ('A' for Active; 'I' for Inactive)
REMARK    1  A    between atoms: C_1  and  C_2
REMARK    2  A    between atoms: C_5  and  S_6
REMARK    3  A    between atoms: S_6  and  N_7
REMARK                            x       y       z     vdW  Elec       q    Type
REMARK                         _______ _______ _______ _____ _____    ______ ____
ROOT
ATOM      1  C   UNL     1       7.907   6.935  18.195  0.00  0.00    +0.000 C 
ATOM      2  C   UNL     1       6.800   5.913  18.139  0.00  0.00    +0.000 A 
ATOM      3  C   UNL     1       6.067   5.638  19.303  0.00  0.00    +0.000 A 
ATOM      4  C   UNL     1       5.033   4.717  19.271  0.00  0.00    +0.000 A 
ATOM      5  C   UNL     1       4.734   4.060  18.073  0.00  0.00    +0.000 A 
ATOM      6  C   UNL     1       5.485   4.298  16.889  0.00  0.00    +0.000 A 
ATOM      7  C   UNL     1       5.279   3.653  15.642  0.00  0.00    +0.000 A 
ATOM      8  C   UNL     1       6.026   3.989  14.522  0.00  0.00    +0.000 A 
ATOM      9  C   UNL     1       6.991   4.957  14.671  0.00  0.00    +0.000 A 
ATOM     10  N   UNL     1       7.248   5.575  15.840  0.00  0.00    +0.000 NA
ATOM     11  C   UNL     1       6.521   5.258  16.932  0.00  0.00    +0.000 A 
ENDROOT
BRANCH   5  12
ATOM     12  S   UNL     1       3.316   2.998  18.065  0.00  0.00    +0.000 S 
ATOM     13  O   UNL     1       2.682   3.035  19.359  0.00  0.00    +0.000 OA
ATOM     14  O   UNL     1       2.576   3.195  16.838  0.00  0.00    +0.000 OA
BRANCH  12  15
ATOM     15  N   UNL     1       4.012   1.478  17.903  0.00  0.00    +0.000 NA
ATOM     16  H   UNL     1       4.780   1.501  17.235  0.00  0.00    +0.000 HD
ATOM     17  H   UNL     1       4.256   1.098  18.817  0.00  0.00    +0.000 HD
ENDBRANCH  12  15
ENDBRANCH   5  12
TORSDOF 2
ENDMDL
MODEL 3
REMARK VINA RESULT:      -6.4      2.375      2.854
REMARK  Name = 
REMARK  3 active torsions:
REMARK  status: ('A' for Active; 'I' for Inactive)
REMARK    1  A    between atoms: C_1  and  C_2
REMARK    2  A    between atoms: C_5  and  S_6
REMARK    3  A    between atoms: S_6  and  N_7
REMARK                            x       y       z     vdW  Elec       q    Type
REMARK                         _______ _______ _______ _____ _____    ______ ____
ROOT
ATOM      1  C   UNL     1       2.726   8.303  17.913  0.00  0.00    +0.000 C 
ATOM      2  C   UNL     1       3.014   6.898  18.376  0.00  0.00    +0.000 A 
ATOM      3  C   UNL     1       2.377   6.419  19.532  0.00  0.00    +0.000 A 
ATOM      4  C   UNL     1       2.611   5.124  19.966  0.00  0.00    +0.000 A 
ATOM      5  C   UNL     1       3.489   4.306  19.250  0.00  0.00    +0.000 A 
ATOM      6  C   UNL     1       4.171   4.781  18.095  0.00  0.00    +0.000 A 
ATOM      7  C   UNL     1       5.106   4.038  17.329  0.00  0.00    +0.000 A 
ATOM      8  C   UNL     1       5.681   4.565  16.182  0.00  0.00    +0.000 A 
ATOM      9  C   UNL     1       5.329   5.845  15.827  0.00  0.00    +0.000 A 
ATOM     10  N   UNL     1       4.473   6.603  16.538  0.00  0.00    +0.000 NA
ATOM     11  C   UNL     1       3.903   6.096  17.651  0.00  0.00    +0.000 A 
ENDROOT
BRANCH   5  12
ATOM     12  S   UNL     1       3.640   2.622  19.778  0.00  0.00    +0.000 S 
ATOM     13  O   UNL     1       2.939   1.766  18.854  0.00  0.00    +0.000 OA
ATOM     14  O   UNL     1       5.004   2.366  20.184  0.00  0.00    +0.000 OA
BRANCH  12  15
ATOM     15  N   UNL     1       2.762   2.619  21.211  0.00  0.00    +0.000 NA
ATOM     16  H   UNL     1       2.623   3.568  21.552  0.00  0.00    +0.000 HD
ATOM     17  H   UNL     1       1.905   2.077  21.103  0.00  0.00    +0.000 HD
ENDBRANCH  12  15
ENDBRANCH   5  12
TORSDOF 2
ENDMDL
MODEL 4
REMARK VINA RESULT:      -6.4      3.003      4.411
REMARK  Name = 
REMARK  3 active torsions:
REMARK  status: ('A' for Active; 'I' for Inactive)
REMARK    1  A    between atoms: C_1  and  C_2
REMARK    2  A    between atoms: C_5  and  S_6
REMARK    3  A    between atoms: S_6  and  N_7
REMARK                            x       y       z     vdW  Elec       q    Type
REMARK                         _______ _______ _______ _____ _____    ______ ____
ROOT
ATOM      1  C   UNL     1       2.301   7.412  18.692  0.00  0.00    +0.000 C 
ATOM      2  C   UNL     1       3.372   6.693  17.912  0.00  0.00    +0.000 A 
ATOM      3  C   UNL     1       4.325   7.448  17.209  0.00  0.00    +0.000 A 
ATOM      4  C   UNL     1       5.330   6.809  16.501  0.00  0.00    +0.000 A 
ATOM      5  C   UNL     1       5.381   5.412  16.486  0.00  0.00    +0.000 A 
ATOM      6  C   UNL     1       4.406   4.627  17.163  0.00  0.00    +0.000 A 
ATOM      7  C   UNL     1       4.356   3.210  17.173  0.00  0.00    +0.000 A 
ATOM      8  C   UNL     1       3.399   2.525  17.908  0.00  0.00    +0.000 A 
ATOM      9  C   UNL     1       2.485   3.274  18.611  0.00  0.00    +0.000 A 
ATOM     10  N   UNL     1       2.471   4.620  18.609  0.00  0.00    +0.000 NA
ATOM     11  C   UNL     1       3.402   5.293  17.901  0.00  0.00    +0.000 A 
ENDROOT
BRANCH   5  12
ATOM     12  S   UNL     1       6.766   4.661  15.677  0.00  0.00    +0.000 S 
ATOM     13  O   UNL     1       6.332   3.471  14.990  0.00  0.00    +0.000 OA
ATOM     14  O   UNL     1       7.554   5.684  15.025  0.00  0.00    +0.000 OA
BRANCH  12  15
ATOM     15  N   UNL     1       7.708   4.162  16.976  0.00  0.00    +0.000 NA
ATOM     16  H   UNL     1       7.179   3.548  17.592  0.00  0.00    +0.000 HD
ATOM     17  H   UNL     1       8.592   3.774  16.647  0.00  0.00    +0.000 HD
ENDBRANCH  12  15
ENDBRANCH   5  12
TORSDOF 2
ENDMDL
MODEL 5
REMARK VINA RESULT:      -6.3      2.787      4.599
REMARK  Name = 
REMARK  3 active torsions:
REMARK  status: ('A' for Active; 'I' for Inactive)
REMARK    1  A    between atoms: C_1  and  C_2
REMARK    2  A    between atoms: C_5  and  S_6
REMARK    3  A    between atoms: S_6  and  N_7
REMARK                            x       y       z     vdW  Elec       q    Type
REMARK                         _______ _______ _______ _____ _____    ______ ____
ROOT
ATOM      1  C   UNL     1       2.250   7.614  18.853  0.00  0.00    +0.000 C 
ATOM      2  C   UNL     1       3.336   6.800  18.195  0.00  0.00    +0.000 A 
ATOM      3  C   UNL     1       4.084   7.377  17.157  0.00  0.00    +0.000 A 
ATOM      4  C   UNL     1       5.100   6.656  16.551  0.00  0.00    +0.000 A 
ATOM      5  C   UNL     1       5.365   5.351  16.977  0.00  0.00    +0.000 A 
ATOM      6  C   UNL     1       4.598   4.734  18.003  0.00  0.00    +0.000 A 
ATOM      7  C   UNL     1       4.770   3.407  18.473  0.00  0.00    +0.000 A 
ATOM      8  C   UNL     1       4.010   2.906  19.520  0.00  0.00    +0.000 A 
ATOM      9  C   UNL     1       3.066   3.739  20.073  0.00  0.00    +0.000 A 
ATOM     10  N   UNL     1       2.842   4.995  19.642  0.00  0.00    +0.000 NA
ATOM     11  C   UNL     1       3.581   5.492  18.628  0.00  0.00    +0.000 A 
ENDROOT
BRANCH   5  12
ATOM     12  S   UNL     1       6.763   4.533  16.256  0.00  0.00    +0.000 S 
ATOM     13  O   UNL     1       7.797   4.388  17.250  0.00  0.00    +0.000 OA
ATOM     14  O   UNL     1       6.306   3.423  15.450  0.00  0.00    +0.000 OA
BRANCH  12  15
ATOM     15  N   UNL     1       7.306   5.671  15.145  0.00  0.00    +0.000 NA
ATOM     16  H   UNL     1       8.315   5.789  15.213  0.00  0.00    +0.000 HD
ATOM     17  H   UNL     1       6.967   5.445  14.211  0.00  0.00    +0.000 HD
ENDBRANCH  12  15
ENDBRANCH   5  12
TORSDOF 2
ENDMDL
MODEL 6
REMARK VINA RESULT:      -6.2      2.347      2.745
REMARK  Name = 
REMARK  3 active torsions:
REMARK  status: ('A' for Active; 'I' for Inactive)
REMARK    1  A    between atoms: C_1  and  C_2
REMARK    2  A    between atoms: C_5  and  S_6
REMARK    3  A    between atoms: S_6  and  N_7
REMARK                            x       y       z     vdW  Elec       q    Type
REMARK                         _______ _______ _______ _____ _____    ______ ____
ROOT
ATOM      1  C   UNL     1       2.910   8.304  17.820  0.00  0.00    +0.000 C 
ATOM      2  C   UNL     1       3.086   6.849  18.172  0.00  0.00    +0.000 A 
ATOM      3  C   UNL     1       2.367   6.319  19.254  0.00  0.00    +0.000 A 
ATOM      4  C   UNL     1       2.497   4.979  19.585  0.00  0.00    +0.000 A 
ATOM      5  C   UNL     1       3.355   4.167  18.837  0.00  0.00    +0.000 A 
ATOM      6  C   UNL     1       4.120   4.690  17.758  0.00  0.00    +0.000 A 
ATOM      7  C   UNL     1       5.040   3.953  16.970  0.00  0.00    +0.000 A 
ATOM      8  C   UNL     1       5.702   4.534  15.898  0.00  0.00    +0.000 A 
ATOM      9  C   UNL     1       5.449   5.860  15.640  0.00  0.00    +0.000 A 
ATOM     10  N   UNL     1       4.609   6.612  16.377  0.00  0.00    +0.000 NA
ATOM     11  C   UNL     1       3.957   6.052  17.418  0.00  0.00    +0.000 A 
ENDROOT
BRANCH   5  12
ATOM     12  S   UNL     1       3.374   2.438  19.224  0.00  0.00    +0.000 S 
ATOM     13  O   UNL     1       2.448   2.177  20.297  0.00  0.00    +0.000 OA
ATOM     14  O   UNL     1       3.368   1.672  17.997  0.00  0.00    +0.000 OA
BRANCH  12  15
ATOM     15  N   UNL     1       4.920   2.230  19.848  0.00  0.00    +0.000 NA
ATOM     16  H   UNL     1       4.903   2.232  20.866  0.00  0.00    +0.000 HD
ATOM     17  H   UNL     1       5.364   1.412  19.433  0.00  0.00    +0.000 HD
ENDBRANCH  12  15
ENDBRANCH   5  12
TORSDOF 2
ENDMDL
MODEL 7
REMARK VINA RESULT:      -6.2      0.922      1.111
REMARK  Name = 
REMARK  3 active torsions:
REMARK  status: ('A' for Active; 'I' for Inactive)
REMARK    1  A    between atoms: C_1  and  C_2
REMARK    2  A    between atoms: C_5  and  S_6
REMARK    3  A    between atoms: S_6  and  N_7
REMARK                            x       y       z     vdW  Elec       q    Type
REMARK                         _______ _______ _______ _____ _____    ______ ____
ROOT
ATOM      1  C   UNL     1       7.889   6.969  18.181  0.00  0.00    +0.000 C 
ATOM      2  C   UNL     1       6.813   5.913  18.151  0.00  0.00    +0.000 A 
ATOM      3  C   UNL     1       6.105   5.629  19.329  0.00  0.00    +0.000 A 
ATOM      4  C   UNL     1       5.099   4.677  19.321  0.00  0.00    +0.000 A 
ATOM      5  C   UNL     1       4.802   4.000  18.135  0.00  0.00    +0.000 A 
ATOM      6  C   UNL     1       5.529   4.247  16.937  0.00  0.00    +0.000 A 
ATOM      7  C   UNL     1       5.325   3.584  15.700  0.00  0.00    +0.000 A 
ATOM      8  C   UNL     1       6.044   3.931  14.566  0.00  0.00    +0.000 A 
ATOM      9  C   UNL     1       6.982   4.928  14.691  0.00  0.00    +0.000 A 
ATOM     10  N   UNL     1       7.237   5.566  15.850  0.00  0.00    +0.000 NA
ATOM     11  C   UNL     1       6.536   5.239  16.956  0.00  0.00    +0.000 A 
ENDROOT
BRANCH   5  12
ATOM     12  S   UNL     1       3.417   2.895  18.158  0.00  0.00    +0.000 S 
ATOM     13  O   UNL     1       3.829   1.601  17.677  0.00  0.00    +0.000 OA
ATOM     14  O   UNL     1       2.691   3.062  19.397  0.00  0.00    +0.000 OA
BRANCH  12  15
ATOM     15  N   UNL     1       2.414   3.559  16.985  0.00  0.00    +0.000 NA
ATOM     16  H   UNL     1       2.052   2.835  16.367  0.00  0.00    +0.000 HD
ATOM     17  H   UNL     1       1.700   4.144  17.416  0.00  0.00    +0.000 HD
ENDBRANCH  12  15
ENDBRANCH   5  12
TORSDOF 2
ENDMDL
MODEL 8
REMARK VINA RESULT:      -6.2      2.495      3.900
REMARK  Name = 
REMARK  3 active torsions:
REMARK  status: ('A' for Active; 'I' for Inactive)
REMARK    1  A    between atoms: C_1  and  C_2
REMARK    2  A    between atoms: C_5  and  S_6
REMARK    3  A    between atoms: S_6  and  N_7
REMARK                            x       y       z     vdW  Elec       q    Type
REMARK                         _______ _______ _______ _____ _____    ______ ____
ROOT
ATOM      1  C   UNL     1       5.180   6.678  15.659  0.00  0.00    +0.000 C 
ATOM      2  C   UNL     1       4.663   5.568  16.538  0.00  0.00    +0.000 A 
ATOM      3  C   UNL     1       5.051   4.247  16.265  0.00  0.00    +0.000 A 
ATOM      4  C   UNL     1       4.604   3.212  17.070  0.00  0.00    +0.000 A 
ATOM      5  C   UNL     1       3.760   3.495  18.148  0.00  0.00    +0.000 A 
ATOM      6  C   UNL     1       3.326   4.821  18.423  0.00  0.00    +0.000 A 
ATOM      7  C   UNL     1       2.443   5.197  19.468  0.00  0.00    +0.000 A 
ATOM      8  C   UNL     1       2.119   6.526  19.697  0.00  0.00    +0.000 A 
ATOM      9  C   UNL     1       2.667   7.466  18.858  0.00  0.00    +0.000 A 
ATOM     10  N   UNL     1       3.485   7.159  17.832  0.00  0.00    +0.000 NA
ATOM     11  C   UNL     1       3.811   5.869  17.607  0.00  0.00    +0.000 A 
ENDROOT
BRANCH   5  12
ATOM     12  S   UNL     1       3.335   2.148  19.218  0.00  0.00    +0.000 S 
ATOM     13  O   UNL     1       4.050   2.281  20.462  0.00  0.00    +0.000 OA
ATOM     14  O   UNL     1       1.907   1.929  19.170  0.00  0.00    +0.000 OA
BRANCH  12  15
ATOM     15  N   UNL     1       3.995   0.831  18.411  0.00  0.00    +0.000 NA
ATOM     16  H   UNL     1       3.849   0.911  17.407  0.00  0.00    +0.000 HD
ATOM     17  H   UNL     1       4.967   0.693  18.689  0.00  0.00    +0.000 HD
ENDBRANCH  12  15
ENDBRANCH   5  12
TORSDOF 2
ENDMDL
MODEL 9
REMARK VINA RESULT:      -6.1      2.522      3.088
REMARK  Name = 
REMARK  3 active torsions:
REMARK  status: ('A' for Active; 'I' for Inactive)
REMARK    1  A    between atoms: C_1  and  C_2
REMARK    2  A    between atoms: C_5  and  S_6
REMARK    3  A    between atoms: S_6  and  N_7
REMARK                            x       y       z     vdW  Elec       q    Type
REMARK                         _______ _______ _______ _____ _____    ______ ____
ROOT
ATOM      1  C   UNL     1       2.717   8.270  17.888  0.00  0.00    +0.000 C 
ATOM      2  C   UNL     1       2.971   6.883  18.422  0.00  0.00    +0.000 A 
ATOM      3  C   UNL     1       2.307   6.471  19.588  0.00  0.00    +0.000 A 
ATOM      4  C   UNL     1       2.509   5.194  20.087  0.00  0.00    +0.000 A 
ATOM      5  C   UNL     1       3.384   4.328  19.424  0.00  0.00    +0.000 A 
ATOM      6  C   UNL     1       4.093   4.736  18.261  0.00  0.00    +0.000 A 
ATOM      7  C   UNL     1       5.026   3.941  17.546  0.00  0.00    +0.000 A 
ATOM      8  C   UNL     1       5.630   4.402  16.386  0.00  0.00    +0.000 A 
ATOM      9  C   UNL     1       5.308   5.671  15.965  0.00  0.00    +0.000 A 
ATOM     10  N   UNL     1       4.454   6.477  16.625  0.00  0.00    +0.000 NA
ATOM     11  C   UNL     1       3.857   6.032  17.751  0.00  0.00    +0.000 A 
ENDROOT
BRANCH   5  12
ATOM     12  S   UNL     1       3.494   2.667  20.033  0.00  0.00    +0.000 S 
ATOM     13  O   UNL     1       4.877   2.266  20.080  0.00  0.00    +0.000 OA
ATOM     14  O   UNL     1       2.607   2.511  21.165  0.00  0.00    +0.000 OA
BRANCH  12  15
ATOM     15  N   UNL     1       2.769   1.787  18.800  0.00  0.00    +0.000 NA
ATOM     16  H   UNL     1       3.237   0.892  18.671  0.00  0.00    +0.000 HD
ATOM     17  H   UNL     1       1.763   1.722  18.952  0.00  0.00    +0.000 HD
ENDBRANCH  12  15
ENDBRANCH   5  12
TORSDOF 2
ENDMDL
