MODEL 1
REMARK VINA RESULT:      -7.0      0.000      0.000
REMARK  Name = 
REMARK  4 active torsions:
REMARK  status: ('A' for Active; 'I' for Inactive)
REMARK    1  A    between atoms: C_1  and  C_2
REMARK    2  A    between atoms: C_3  and  SE_4
REMARK    3  A    between atoms: SE_4  and  C_5
REMARK    4  A    between atoms: C_8  and  N_9
REMARK                            x       y       z     vdW  Elec       q    Type
REMARK                         _______ _______ _______ _____ _____    ______ ____
ROOT
ATOM      1  C   UNL     1       3.979   7.614  17.209  0.00  0.00    +0.000 C 
ATOM      2  C   UNL     1       3.904   6.350  18.037  0.00  0.00    +0.000 C 
ATOM      3  C   UNL     1       4.973   5.529  18.228  0.00  0.00    +0.000 C 
ATOM      4  C   UNL     1       4.843   4.320  19.092  0.00  0.00    +0.000 C 
ATOM      5  O   UNL     1       5.817   3.609  19.284  0.00  0.00    +0.000 OA
ATOM      6  C   UNL     1       3.541   3.987  19.734  0.00  0.00    +0.000 A 
ATOM      7  C   UNL     1       3.397   2.849  20.551  0.00  0.00    +0.000 A 
ATOM      8  C   UNL     1       2.163   2.554  21.137  0.00  0.00    +0.000 A 
ATOM      9  C   UNL     1       1.067   3.391  20.925  0.00  0.00    +0.000 A 
ATOM     10  C   UNL     1       1.200   4.524  20.123  0.00  0.00    +0.000 A 
ATOM     11  C   UNL     1       2.436   4.830  19.524  0.00  0.00    +0.000 A 
ATOM     12  C   UNL     1       2.592   6.033  18.673  0.00  0.00    +0.000 C 
ATOM     13  O   UNL     1       1.640   6.783  18.503  0.00  0.00    +0.000 OA
ENDROOT
BRANCH   3  14
ATOM     14 SE   UNL     1       6.734   5.931  17.485  0.00  0.00    +0.000 Se
BRANCH  14  15
ATOM     15  C   UNL     1       6.519   5.109  15.744  0.00  0.00    +0.000 A 
ATOM     16  C   UNL     1       7.419   5.373  14.700  0.00  0.00    +0.000 A 
ATOM     17  C   UNL     1       7.293   4.706  13.473  0.00  0.00    +0.000 A 
ATOM     18  C   UNL     1       6.268   3.766  13.282  0.00  0.00    +0.000 A 
ATOM     19  C   UNL     1       5.367   3.508  14.324  0.00  0.00    +0.000 A 
ATOM     20  C   UNL     1       5.494   4.175  15.548  0.00  0.00    +0.000 A 
BRANCH  18  21
ATOM     21  N   UNL     1       6.149   3.072  12.049  0.00  0.00    +0.000 N 
ATOM     22  H   UNL     1       5.251   3.039  11.546  0.00  0.00    +0.000 HD
ATOM     23  H   UNL     1       6.965   2.604  11.629  0.00  0.00    +0.000 HD
ENDBRANCH  18  21
ENDBRANCH  14  15
ENDBRANCH   3  14
TORSDOF 3
ENDMDL
MODEL 2
REMARK VINA RESULT:      -7.0      0.292      1.093
REMARK  Name = 
REMARK  4 active torsions:
REMARK  status: ('A' for Active; 'I' for Inactive)
REMARK    1  A    between atoms: C_1  and  C_2
REMARK    2  A    between atoms: C_3  and  SE_4
REMARK    3  A    between atoms: SE_4  and  C_5
REMARK    4  A    between atoms: C_8  and  N_9
REMARK                            x       y       z     vdW  Elec       q    Type
REMARK                         _______ _______ _______ _____ _____    ______ ____
ROOT
ATOM      1  C   UNL     1       4.286   7.382  17.179  0.00  0.00    +0.000 C 
ATOM      2  C   UNL     1       4.074   6.151  18.031  0.00  0.00    +0.000 C 
ATOM      3  C   UNL     1       5.074   5.275  18.323  0.00  0.00    +0.000 C 
ATOM      4  C   UNL     1       4.807   4.103  19.206  0.00  0.00    +0.000 C 
ATOM      5  O   UNL     1       5.719   3.342  19.490  0.00  0.00    +0.000 OA
ATOM      6  C   UNL     1       3.444   3.866  19.757  0.00  0.00    +0.000 A 
ATOM      7  C   UNL     1       3.172   2.764  20.590  0.00  0.00    +0.000 A 
ATOM      8  C   UNL     1       1.882   2.560  21.090  0.00  0.00    +0.000 A 
ATOM      9  C   UNL     1       0.858   3.453  20.774  0.00  0.00    +0.000 A 
ATOM     10  C   UNL     1       1.118   4.551  19.955  0.00  0.00    +0.000 A 
ATOM     11  C   UNL     1       2.410   4.766  19.442  0.00  0.00    +0.000 A 
ATOM     12  C   UNL     1       2.701   5.931  18.575  0.00  0.00    +0.000 C 
ATOM     13  O   UNL     1       1.812   6.730  18.314  0.00  0.00    +0.000 OA
ENDROOT
BRANCH   3  14
ATOM     14 SE   UNL     1       6.906   5.550  17.704  0.00  0.00    +0.000 Se
BRANCH  14  15
ATOM     15  C   UNL     1       6.731   4.823  15.918  0.00  0.00    +0.000 A 
ATOM     16  C   UNL     1       5.748   3.867  15.616  0.00  0.00    +0.000 A 
ATOM     17  C   UNL     1       5.586   3.413  14.299  0.00  0.00    +0.000 A 
ATOM     18  C   UNL     1       6.402   3.915  13.273  0.00  0.00    +0.000 A 
ATOM     19  C   UNL     1       7.386   4.865  13.578  0.00  0.00    +0.000 A 
ATOM     20  C   UNL     1       7.548   5.316  14.893  0.00  0.00    +0.000 A 
BRANCH  18  21
ATOM     21  N   UNL     1       6.227   3.475  11.935  0.00  0.00    +0.000 N 
ATOM     22  H   UNL     1       7.033   3.383  11.299  0.00  0.00    +0.000 HD
ATOM     23  H   UNL     1       5.292   3.224  11.581  0.00  0.00    +0.000 HD
ENDBRANCH  18  21
ENDBRANCH  14  15
ENDBRANCH   3  14
TORSDOF 3
ENDMDL
MODEL 3
REMARK VINA RESULT:      -6.5      3.306      6.610
REMARK  Name = 
REMARK  4 active torsions:
REMARK  status: ('A' for Active; 'I' for Inactive)
REMARK    1  A    between atoms: C_1  and  C_2
REMARK    2  A    between atoms: C_3  and  SE_4
REMARK    3  A    between atoms: SE_4  and  C_5
REMARK    4  A    between atoms: C_8  and  N_9
REMARK                            x       y       z     vdW  Elec       q    Type
REMARK                         _______ _______ _______ _____ _____    ______ ____
ROOT
ATOM      1  C   UNL     1       6.434   5.564  19.550  0.00  0.00    +0.000 C 
ATOM      2  C   UNL     1       5.962   5.040  18.211  0.00  0.00    +0.000 C 
ATOM      3  C   UNL     1       4.743   4.461  18.035  0.00  0.00    +0.000 C 
ATOM      4  C   UNL     1       4.321   4.005  16.679  0.00  0.00    +0.000 C 
ATOM      5  O   UNL     1       3.212   3.517  16.525  0.00  0.00    +0.000 OA
ATOM      6  C   UNL     1       5.235   4.156  15.512  0.00  0.00    +0.000 A 
ATOM      7  C   UNL     1       4.856   3.729  14.225  0.00  0.00    +0.000 A 
ATOM      8  C   UNL     1       5.734   3.876  13.148  0.00  0.00    +0.000 A 
ATOM      9  C   UNL     1       6.989   4.457  13.339  0.00  0.00    +0.000 A 
ATOM     10  C   UNL     1       7.371   4.889  14.608  0.00  0.00    +0.000 A 
ATOM     11  C   UNL     1       6.499   4.743  15.702  0.00  0.00    +0.000 A 
ATOM     12  C   UNL     1       6.890   5.202  17.054  0.00  0.00    +0.000 C 
ATOM     13  O   UNL     1       7.980   5.733  17.222  0.00  0.00    +0.000 OA
ENDROOT
BRANCH   3  14
ATOM     14 SE   UNL     1       3.455   4.291  19.493  0.00  0.00    +0.000 Se
BRANCH  14  15
ATOM     15  C   UNL     1       2.651   6.049  19.389  0.00  0.00    +0.000 A 
ATOM     16  C   UNL     1       2.052   6.642  20.512  0.00  0.00    +0.000 A 
ATOM     17  C   UNL     1       1.546   7.948  20.437  0.00  0.00    +0.000 A 
ATOM     18  C   UNL     1       1.640   8.674  19.238  0.00  0.00    +0.000 A 
ATOM     19  C   UNL     1       2.234   8.078  18.117  0.00  0.00    +0.000 A 
ATOM     20  C   UNL     1       2.737   6.774  18.194  0.00  0.00    +0.000 A 
BRANCH  18  21
ATOM     21  N   UNL     1       1.151  10.004  19.163  0.00  0.00    +0.000 N 
ATOM     22  H   UNL     1       0.234  10.206  18.739  0.00  0.00    +0.000 HD
ATOM     23  H   UNL     1       1.697  10.788  19.549  0.00  0.00    +0.000 HD
ENDBRANCH  18  21
ENDBRANCH  14  15
ENDBRANCH   3  14
TORSDOF 3
ENDMDL
MODEL 4
REMARK VINA RESULT:      -6.5      5.510      7.996
REMARK  Name = 
REMARK  4 active torsions:
REMARK  status: ('A' for Active; 'I' for Inactive)
REMARK    1  A    between atoms: C_1  and  C_2
REMARK    2  A    between atoms: C_3  and  SE_4
REMARK    3  A    between atoms: SE_4  and  C_5
REMARK    4  A    between atoms: C_8  and  N_9
REMARK                            x       y       z     vdW  Elec       q    Type
REMARK                         _______ _______ _______ _____ _____    ______ ____
ROOT
ATOM      1  C   UNL     1       0.162   8.647  21.641  0.00  0.00    +0.000 C 
ATOM      2  C   UNL     1       1.040   8.424  20.430  0.00  0.00    +0.000 C 
ATOM      3  C   UNL     1       1.290   9.397  19.512  0.00  0.00    +0.000 C 
ATOM      4  C   UNL     1       2.201   9.124  18.362  0.00  0.00    +0.000 C 
ATOM      5  O   UNL     1       2.445  10.014  17.562  0.00  0.00    +0.000 OA
ATOM      6  C   UNL     1       2.826   7.782  18.195  0.00  0.00    +0.000 A 
ATOM      7  C   UNL     1       3.686   7.504  17.115  0.00  0.00    +0.000 A 
ATOM      8  C   UNL     1       4.255   6.236  16.977  0.00  0.00    +0.000 A 
ATOM      9  C   UNL     1       3.983   5.238  17.914  0.00  0.00    +0.000 A 
ATOM     10  C   UNL     1       3.137   5.504  18.991  0.00  0.00    +0.000 A 
ATOM     11  C   UNL     1       2.555   6.776  19.139  0.00  0.00    +0.000 A 
ATOM     12  C   UNL     1       1.659   7.074  20.280  0.00  0.00    +0.000 C 
ATOM     13  O   UNL     1       1.435   6.209  21.117  0.00  0.00    +0.000 OA
ENDROOT
BRANCH   3  14
ATOM     14 SE   UNL     1       0.572  11.204  19.694  0.00  0.00    +0.000 Se
BRANCH  14  15
ATOM     15  C   UNL     1      -1.081  10.970  18.711  0.00  0.00    +0.000 A 
ATOM     16  C   UNL     1      -2.222  11.726  19.018  0.00  0.00    +0.000 A 
ATOM     17  C   UNL     1      -3.384  11.600  18.243  0.00  0.00    +0.000 A 
ATOM     18  C   UNL     1      -3.411  10.718  17.150  0.00  0.00    +0.000 A 
ATOM     19  C   UNL     1      -2.272   9.960  16.849  0.00  0.00    +0.000 A 
ATOM     20  C   UNL     1      -1.114  10.086  17.624  0.00  0.00    +0.000 A 
BRANCH  18  21
ATOM     21  N   UNL     1      -4.577  10.603  16.349  0.00  0.00    +0.000 N 
ATOM     22  H   UNL     1      -5.022   9.686  16.192  0.00  0.00    +0.000 HD
ATOM     23  H   UNL     1      -5.008  11.437  15.924  0.00  0.00    +0.000 HD
ENDBRANCH  18  21
ENDBRANCH  14  15
ENDBRANCH   3  14
TORSDOF 3
ENDMDL
MODEL 5
REMARK VINA RESULT:      -6.5      8.112     10.772
REMARK  Name = 
REMARK  4 active torsions:
REMARK  status: ('A' for Active; 'I' for Inactive)
REMARK    1  A    between atoms: C_1  and  C_2
REMARK    2  A    between atoms: C_3  and  SE_4
REMARK    3  A    between atoms: SE_4  and  C_5
REMARK    4  A    between atoms: C_8  and  N_9
REMARK                            x       y       z     vdW  Elec       q    Type
REMARK                         _______ _______ _______ _____ _____    ______ ____
ROOT
ATOM      1  C   UNL     1      -1.389  11.572  23.059  0.00  0.00    +0.000 C 
ATOM      2  C   UNL     1      -0.785  11.122  21.748  0.00  0.00    +0.000 C 
ATOM      3  C   UNL     1      -0.963  11.801  20.582  0.00  0.00    +0.000 C 
ATOM      4  C   UNL     1      -0.303  11.326  19.331  0.00  0.00    +0.000 C 
ATOM      5  O   UNL     1      -0.442  11.962  18.298  0.00  0.00    +0.000 OA
ATOM      6  C   UNL     1       0.536  10.096  19.339  0.00  0.00    +0.000 A 
ATOM      7  C   UNL     1       1.165   9.630  18.169  0.00  0.00    +0.000 A 
ATOM      8  C   UNL     1       1.942   8.469  18.202  0.00  0.00    +0.000 A 
ATOM      9  C   UNL     1       2.108   7.768  19.397  0.00  0.00    +0.000 A 
ATOM     10  C   UNL     1       1.495   8.224  20.563  0.00  0.00    +0.000 A 
ATOM     11  C   UNL     1       0.707   9.390  20.544  0.00  0.00    +0.000 A 
ATOM     12  C   UNL     1       0.053   9.888  21.776  0.00  0.00    +0.000 C 
ATOM     13  O   UNL     1       0.215   9.289  22.832  0.00  0.00    +0.000 OA
ENDROOT
BRANCH   3  14
ATOM     14 SE   UNL     1      -1.985  13.463  20.496  0.00  0.00    +0.000 Se
BRANCH  14  15
ATOM     15  C   UNL     1      -3.738  12.719  20.142  0.00  0.00    +0.000 A 
ATOM     16  C   UNL     1      -4.011  12.041  18.944  0.00  0.00    +0.000 A 
ATOM     17  C   UNL     1      -5.261  11.440  18.741  0.00  0.00    +0.000 A 
ATOM     18  C   UNL     1      -6.248  11.509  19.737  0.00  0.00    +0.000 A 
ATOM     19  C   UNL     1      -5.976  12.191  20.931  0.00  0.00    +0.000 A 
ATOM     20  C   UNL     1      -4.727  12.792  21.131  0.00  0.00    +0.000 A 
BRANCH  18  21
ATOM     21  N   UNL     1      -7.508  10.883  19.546  0.00  0.00    +0.000 N 
ATOM     22  H   UNL     1      -8.373  11.441  19.493  0.00  0.00    +0.000 HD
ATOM     23  H   UNL     1      -7.577   9.860  19.440  0.00  0.00    +0.000 HD
ENDBRANCH  18  21
ENDBRANCH  14  15
ENDBRANCH   3  14
TORSDOF 3
ENDMDL
MODEL 6
REMARK VINA RESULT:      -6.5      8.103     10.795
REMARK  Name = 
REMARK  4 active torsions:
REMARK  status: ('A' for Active; 'I' for Inactive)
REMARK    1  A    between atoms: C_1  and  C_2
REMARK    2  A    between atoms: C_3  and  SE_4
REMARK    3  A    between atoms: SE_4  and  C_5
REMARK    4  A    between atoms: C_8  and  N_9
REMARK                            x       y       z     vdW  Elec       q    Type
REMARK                         _______ _______ _______ _____ _____    ______ ____
ROOT
ATOM      1  C   UNL     1      -1.343  11.426  23.053  0.00  0.00    +0.000 C 
ATOM      2  C   UNL     1      -0.727  11.003  21.738  0.00  0.00    +0.000 C 
ATOM      3  C   UNL     1      -0.888  11.711  20.587  0.00  0.00    +0.000 C 
ATOM      4  C   UNL     1      -0.216  11.262  19.333  0.00  0.00    +0.000 C 
ATOM      5  O   UNL     1      -0.339  11.923  18.313  0.00  0.00    +0.000 OA
ATOM      6  C   UNL     1       0.616  10.027  19.321  0.00  0.00    +0.000 A 
ATOM      7  C   UNL     1       1.256   9.585  18.147  0.00  0.00    +0.000 A 
ATOM      8  C   UNL     1       2.027   8.419  18.162  0.00  0.00    +0.000 A 
ATOM      9  C   UNL     1       2.175   7.689  19.342  0.00  0.00    +0.000 A 
ATOM     10  C   UNL     1       1.551   8.121  20.511  0.00  0.00    +0.000 A 
ATOM     11  C   UNL     1       0.769   9.291  20.510  0.00  0.00    +0.000 A 
ATOM     12  C   UNL     1       0.105   9.763  21.747  0.00  0.00    +0.000 C 
ATOM     13  O   UNL     1       0.250   9.139  22.790  0.00  0.00    +0.000 OA
ENDROOT
BRANCH   3  14
ATOM     14 SE   UNL     1      -1.899  13.380  20.529  0.00  0.00    +0.000 Se
BRANCH  14  15
ATOM     15  C   UNL     1      -3.674  12.647  20.278  0.00  0.00    +0.000 A 
ATOM     16  C   UNL     1      -4.659  12.772  21.269  0.00  0.00    +0.000 A 
ATOM     17  C   UNL     1      -5.960  12.305  21.036  0.00  0.00    +0.000 A 
ATOM     18  C   UNL     1      -6.288  11.712  19.806  0.00  0.00    +0.000 A 
ATOM     19  C   UNL     1      -5.301  11.583  18.819  0.00  0.00    +0.000 A 
ATOM     20  C   UNL     1      -4.002  12.049  19.054  0.00  0.00    +0.000 A 
BRANCH  18  21
ATOM     21  N   UNL     1      -7.609  11.258  19.556  0.00  0.00    +0.000 N 
ATOM     22  H   UNL     1      -7.895  10.955  18.613  0.00  0.00    +0.000 HD
ATOM     23  H   UNL     1      -8.302  11.208  20.318  0.00  0.00    +0.000 HD
ENDBRANCH  18  21
ENDBRANCH  14  15
ENDBRANCH   3  14
TORSDOF 3
ENDMDL
MODEL 7
REMARK VINA RESULT:      -6.5      3.731      6.522
REMARK  Name = 
REMARK  4 active torsions:
REMARK  status: ('A' for Active; 'I' for Inactive)
REMARK    1  A    between atoms: C_1  and  C_2
REMARK    2  A    between atoms: C_3  and  SE_4
REMARK    3  A    between atoms: SE_4  and  C_5
REMARK    4  A    between atoms: C_8  and  N_9
REMARK                            x       y       z     vdW  Elec       q    Type
REMARK                         _______ _______ _______ _____ _____    ______ ____
ROOT
ATOM      1  C   UNL     1       1.079   3.660  18.438  0.00  0.00    +0.000 C 
ATOM      2  C   UNL     1       2.513   4.100  18.239  0.00  0.00    +0.000 C 
ATOM      3  C   UNL     1       3.176   4.879  19.137  0.00  0.00    +0.000 C 
ATOM      4  C   UNL     1       4.604   5.242  18.901  0.00  0.00    +0.000 C 
ATOM      5  O   UNL     1       5.200   5.913  19.729  0.00  0.00    +0.000 OA
ATOM      6  C   UNL     1       5.310   4.776  17.675  0.00  0.00    +0.000 A 
ATOM      7  C   UNL     1       6.656   5.110  17.433  0.00  0.00    +0.000 A 
ATOM      8  C   UNL     1       7.294   4.665  16.272  0.00  0.00    +0.000 A 
ATOM      9  C   UNL     1       6.603   3.880  15.348  0.00  0.00    +0.000 A 
ATOM     10  C   UNL     1       5.272   3.538  15.580  0.00  0.00    +0.000 A 
ATOM     11  C   UNL     1       4.616   3.982  16.744  0.00  0.00    +0.000 A 
ATOM     12  C   UNL     1       3.203   3.623  17.005  0.00  0.00    +0.000 C 
ATOM     13  O   UNL     1       2.601   2.915  16.209  0.00  0.00    +0.000 OA
ENDROOT
BRANCH   3  14
ATOM     14 SE   UNL     1       2.350   5.471  20.805  0.00  0.00    +0.000 Se
BRANCH  14  15
ATOM     15  C   UNL     1       1.853   7.265  20.273  0.00  0.00    +0.000 A 
ATOM     16  C   UNL     1       2.129   7.744  18.982  0.00  0.00    +0.000 A 
ATOM     17  C   UNL     1       1.690   9.016  18.591  0.00  0.00    +0.000 A 
ATOM     18  C   UNL     1       0.966   9.820  19.487  0.00  0.00    +0.000 A 
ATOM     19  C   UNL     1       0.696   9.343  20.776  0.00  0.00    +0.000 A 
ATOM     20  C   UNL     1       1.137   8.072  21.166  0.00  0.00    +0.000 A 
BRANCH  18  21
ATOM     21  N   UNL     1       0.499  11.100  19.088  0.00  0.00    +0.000 N 
ATOM     22  H   UNL     1      -0.453  11.222  18.714  0.00  0.00    +0.000 HD
ATOM     23  H   UNL     1       1.100  11.932  19.183  0.00  0.00    +0.000 HD
ENDBRANCH  18  21
ENDBRANCH  14  15
ENDBRANCH   3  14
TORSDOF 3
ENDMDL
MODEL 8
REMARK VINA RESULT:      -6.5      3.342      6.607
REMARK  Name = 
REMARK  4 active torsions:
REMARK  status: ('A' for Active; 'I' for Inactive)
REMARK    1  A    between atoms: C_1  and  C_2
REMARK    2  A    between atoms: C_3  and  SE_4
REMARK    3  A    between atoms: SE_4  and  C_5
REMARK    4  A    between atoms: C_8  and  N_9
REMARK                            x       y       z     vdW  Elec       q    Type
REMARK                         _______ _______ _______ _____ _____    ______ ____
ROOT
ATOM      1  C   UNL     1       6.376   5.501  19.519  0.00  0.00    +0.000 C 
ATOM      2  C   UNL     1       5.911   4.993  18.172  0.00  0.00    +0.000 C 
ATOM      3  C   UNL     1       4.683   4.440  17.977  0.00  0.00    +0.000 C 
ATOM      4  C   UNL     1       4.270   3.998  16.613  0.00  0.00    +0.000 C 
ATOM      5  O   UNL     1       3.154   3.534  16.442  0.00  0.00    +0.000 OA
ATOM      6  C   UNL     1       5.203   4.135  15.460  0.00  0.00    +0.000 A 
ATOM      7  C   UNL     1       4.832   3.721  14.165  0.00  0.00    +0.000 A 
ATOM      8  C   UNL     1       5.728   3.855  13.101  0.00  0.00    +0.000 A 
ATOM      9  C   UNL     1       6.991   4.408  13.311  0.00  0.00    +0.000 A 
ATOM     10  C   UNL     1       7.366   4.827  14.587  0.00  0.00    +0.000 A 
ATOM     11  C   UNL     1       6.475   4.695  15.669  0.00  0.00    +0.000 A 
ATOM     12  C   UNL     1       6.859   5.140  17.029  0.00  0.00    +0.000 C 
ATOM     13  O   UNL     1       7.957   5.647  17.213  0.00  0.00    +0.000 OA
ENDROOT
BRANCH   3  14
ATOM     14 SE   UNL     1       3.373   4.290  19.417  0.00  0.00    +0.000 Se
BRANCH  14  15
ATOM     15  C   UNL     1       2.702   6.107  19.402  0.00  0.00    +0.000 A 
ATOM     16  C   UNL     1       2.782   6.901  18.248  0.00  0.00    +0.000 A 
ATOM     17  C   UNL     1       2.219   8.185  18.233  0.00  0.00    +0.000 A 
ATOM     18  C   UNL     1       1.566   8.684  19.372  0.00  0.00    +0.000 A 
ATOM     19  C   UNL     1       1.492   7.891  20.525  0.00  0.00    +0.000 A 
ATOM     20  C   UNL     1       2.056   6.610  20.539  0.00  0.00    +0.000 A 
BRANCH  18  21
ATOM     21  N   UNL     1       0.975   9.974  19.355  0.00  0.00    +0.000 N 
ATOM     22  H   UNL     1       0.332  10.250  18.598  0.00  0.00    +0.000 HD
ATOM     23  H   UNL     1       1.164  10.650  20.109  0.00  0.00    +0.000 HD
ENDBRANCH  18  21
ENDBRANCH  14  15
ENDBRANCH   3  14
TORSDOF 3
ENDMDL
MODEL 9
REMARK VINA RESULT:      -6.4      5.897      8.344
REMARK  Name = 
REMARK  4 active torsions:
REMARK  status: ('A' for Active; 'I' for Inactive)
REMARK    1  A    between atoms: C_1  and  C_2
REMARK    2  A    between atoms: C_3  and  SE_4
REMARK    3  A    between atoms: SE_4  and  C_5
REMARK    4  A    between atoms: C_8  and  N_9
REMARK                            x       y       z     vdW  Elec       q    Type
REMARK                         _______ _______ _______ _____ _____    ______ ____
ROOT
ATOM      1  C   UNL     1      -0.030   9.578  21.605  0.00  0.00    +0.000 C 
ATOM      2  C   UNL     1       0.827   9.099  20.455  0.00  0.00    +0.000 C 
ATOM      3  C   UNL     1       1.109   9.874  19.372  0.00  0.00    +0.000 C 
ATOM      4  C   UNL     1       1.998   9.355  18.292  0.00  0.00    +0.000 C 
ATOM      5  O   UNL     1       2.272  10.071  17.341  0.00  0.00    +0.000 OA
ATOM      6  C   UNL     1       2.565   7.980  18.374  0.00  0.00    +0.000 A 
ATOM      7  C   UNL     1       3.403   7.472  17.364  0.00  0.00    +0.000 A 
ATOM      8  C   UNL     1       3.918   6.176  17.462  0.00  0.00    +0.000 A 
ATOM      9  C   UNL     1       3.612   5.381  18.567  0.00  0.00    +0.000 A 
ATOM     10  C   UNL     1       2.788   5.877  19.576  0.00  0.00    +0.000 A 
ATOM     11  C   UNL     1       2.260   7.178  19.489  0.00  0.00    +0.000 A 
ATOM     12  C   UNL     1       1.387   7.719  20.556  0.00  0.00    +0.000 C 
ATOM     13  O   UNL     1       1.135   7.034  21.538  0.00  0.00    +0.000 OA
ENDROOT
BRANCH   3  14
ATOM     14 SE   UNL     1       0.468  11.712  19.219  0.00  0.00    +0.000 Se
BRANCH  14  15
ATOM     15  C   UNL     1      -1.334  11.352  18.610  0.00  0.00    +0.000 A 
ATOM     16  C   UNL     1      -1.616  10.252  17.785  0.00  0.00    +0.000 A 
ATOM     17  C   UNL     1      -2.939   9.962  17.421  0.00  0.00    +0.000 A 
ATOM     18  C   UNL     1      -3.992  10.768  17.883  0.00  0.00    +0.000 A 
ATOM     19  C   UNL     1      -3.707  11.869  18.703  0.00  0.00    +0.000 A 
ATOM     20  C   UNL     1      -2.386  12.158  19.064  0.00  0.00    +0.000 A 
BRANCH  18  21
ATOM     21  N   UNL     1      -5.334  10.465  17.537  0.00  0.00    +0.000 N 
ATOM     22  H   UNL     1      -5.549   9.872  16.722  0.00  0.00    +0.000 HD
ATOM     23  H   UNL     1      -6.118  10.820  18.104  0.00  0.00    +0.000 HD
ENDBRANCH  18  21
ENDBRANCH  14  15
ENDBRANCH   3  14
TORSDOF 3
ENDMDL
