MODEL 1
REMARK VINA RESULT:      -7.2      0.000      0.000
REMARK  Name = 
REMARK  12 active torsions:
REMARK  status: ('A' for Active; 'I' for Inactive)
REMARK    1  A    between atoms: C_1  and  C_2
REMARK    2  A    between atoms: C_2  and  C_3
REMARK    3  A    between atoms: C_3  and  C_4
REMARK    4  A    between atoms: C_4  and  C_5
REMARK    5  A    between atoms: C_5  and  C_6
REMARK    6  A    between atoms: C_6  and  O_7
REMARK    7  A    between atoms: O_7  and  C_8
REMARK    8  A    between atoms: C_14  and  C_15
REMARK    9  A    between atoms: C_15  and  O_16
REMARK   10  A    between atoms: O_16  and  C_17
REMARK   11  A    between atoms: C_22  and  C_23
REMARK   12  A    between atoms: N_25  and  C_26
REMARK                            x       y       z     vdW  Elec       q    Type
REMARK                         _______ _______ _______ _____ _____    ______ ____
ROOT
ATOM      1  O   UNL     1       1.625   8.860  19.606  0.00  0.00    +0.000 OA
ENDROOT
BRANCH   1   2
ATOM      2  C   UNL     1       0.934   9.261  20.730  0.00  0.00    +0.000 A 
ATOM      3  C   UNL     1       1.353   8.912  22.027  0.00  0.00    +0.000 A 
ATOM      4  C   UNL     1       0.646   9.326  23.160  0.00  0.00    +0.000 A 
ATOM      5  C   UNL     1      -0.481  10.118  23.020  0.00  0.00    +0.000 A 
ATOM      6  C   UNL     1      -0.889  10.502  21.745  0.00  0.00    +0.000 A 
ATOM      7  C   UNL     1      -0.193  10.092  20.585  0.00  0.00    +0.000 A 
BRANCH   7   8
ATOM      8  C   UNL     1      -0.775  10.584  19.290  0.00  0.00    +0.000 C 
ATOM      9  O   UNL     1      -0.199  11.514  18.734  0.00  0.00    +0.000 OA
ATOM     10  N   UNL     1      -1.917   9.970  18.811  0.00  0.00    +0.000 N 
ATOM     11  H   UNL     1      -2.291   9.204  19.363  0.00  0.00    +0.000 HD
BRANCH  10  12
ATOM     12  C   UNL     1      -2.635  10.340  17.647  0.00  0.00    +0.000 A 
ATOM     13  C   UNL     1      -3.829  11.065  17.651  0.00  0.00    +0.000 A 
ATOM     14  C   UNL     1      -4.486  11.350  16.456  0.00  0.00    +0.000 A 
ATOM     15  C   UNL     1      -3.926  10.905  15.275  0.00  0.00    +0.000 A 
ATOM     16  N   UNL     1      -2.767  10.212  15.213  0.00  0.00    +0.000 NA
ATOM     17  C   UNL     1      -2.152   9.955  16.397  0.00  0.00    +0.000 A 
ENDBRANCH  10  12
ENDBRANCH   7   8
ENDBRANCH   1   2
BRANCH   1  18
ATOM     18  C   UNL     1       1.277   7.556  19.120  0.00  0.00    +0.000 C 
BRANCH  18  25
ATOM     19  C   UNL     1       2.942   5.732  19.780  0.00  0.00    +0.000 A 
ATOM     20  C   UNL     1       4.192   5.129  19.594  0.00  0.00    +0.000 A 
ATOM     21  C   UNL     1       4.981   5.440  18.487  0.00  0.00    +0.000 A 
ATOM     22  C   UNL     1       4.523   6.356  17.553  0.00  0.00    +0.000 A 
ATOM     23 CL   UNL     1       5.474   6.708  16.164  0.00  0.00    +0.000 Cl
ATOM     24  C   UNL     1       3.309   7.008  17.749  0.00  0.00    +0.000 A 
ATOM     25  C   UNL     1       2.520   6.730  18.883  0.00  0.00    +0.000 A 
BRANCH  19  26
ATOM     26  O   UNL     1       2.078   5.419  20.794  0.00  0.00    +0.000 OA
BRANCH  26  27
ATOM     27  C   UNL     1       1.021   4.492  20.513  0.00  0.00    +0.000 C 
BRANCH  27  28
ATOM     28  C   UNL     1       1.387   3.101  21.029  0.00  0.00    +0.000 C 
BRANCH  28  29
ATOM     29  C   UNL     1       1.422   2.101  19.874  0.00  0.00    +0.000 C 
BRANCH  29  30
ATOM     30  C   UNL     1       1.428   2.798  18.517  0.00  0.00    +0.000 C 
BRANCH  30  32
ATOM     31  C   UNL     1       3.614   1.551  18.442  0.00  0.00    +0.000 C 
ATOM     32  C   UNL     1       2.513   2.200  17.623  0.00  0.00    +0.000 C 
ENDBRANCH  30  32
ENDBRANCH  29  30
ENDBRANCH  28  29
ENDBRANCH  27  28
ENDBRANCH  26  27
ENDBRANCH  19  26
ENDBRANCH  18  25
ENDBRANCH   1  18
TORSDOF 11
ENDMDL
MODEL 2
REMARK VINA RESULT:      -7.1      3.740      7.156
REMARK  Name = 
REMARK  12 active torsions:
REMARK  status: ('A' for Active; 'I' for Inactive)
REMARK    1  A    between atoms: C_1  and  C_2
REMARK    2  A    between atoms: C_2  and  C_3
REMARK    3  A    between atoms: C_3  and  C_4
REMARK    4  A    between atoms: C_4  and  C_5
REMARK    5  A    between atoms: C_5  and  C_6
REMARK    6  A    between atoms: C_6  and  O_7
REMARK    7  A    between atoms: O_7  and  C_8
REMARK    8  A    between atoms: C_14  and  C_15
REMARK    9  A    between atoms: C_15  and  O_16
REMARK   10  A    between atoms: O_16  and  C_17
REMARK   11  A    between atoms: C_22  and  C_23
REMARK   12  A    between atoms: N_25  and  C_26
REMARK                            x       y       z     vdW  Elec       q    Type
REMARK                         _______ _______ _______ _____ _____    ______ ____
ROOT
ATOM      1  O   UNL     1       4.298   5.947  18.811  0.00  0.00    +0.000 OA
ENDROOT
BRANCH   1   2
ATOM      2  C   UNL     1       3.943   4.761  19.418  0.00  0.00    +0.000 A 
ATOM      3  C   UNL     1       4.734   3.601  19.307  0.00  0.00    +0.000 A 
ATOM      4  C   UNL     1       4.366   2.404  19.929  0.00  0.00    +0.000 A 
ATOM      5  C   UNL     1       3.214   2.348  20.694  0.00  0.00    +0.000 A 
ATOM      6  C   UNL     1       2.439   3.496  20.843  0.00  0.00    +0.000 A 
ATOM      7  C   UNL     1       2.788   4.716  20.220  0.00  0.00    +0.000 A 
BRANCH   7   8
ATOM      8  C   UNL     1       1.836   5.851  20.473  0.00  0.00    +0.000 C 
ATOM      9  O   UNL     1       0.651   5.568  20.614  0.00  0.00    +0.000 OA
ATOM     10  N   UNL     1       2.347   7.135  20.523  0.00  0.00    +0.000 N 
ATOM     11  H   UNL     1       3.351   7.233  20.398  0.00  0.00    +0.000 HD
BRANCH  10  12
ATOM     12  C   UNL     1       1.596   8.324  20.688  0.00  0.00    +0.000 A 
ATOM     13  C   UNL     1       1.091   9.094  19.637  0.00  0.00    +0.000 A 
ATOM     14  C   UNL     1       0.394  10.272  19.895  0.00  0.00    +0.000 A 
ATOM     15  C   UNL     1       0.212  10.653  21.210  0.00  0.00    +0.000 A 
ATOM     16  N   UNL     1       0.667   9.940  22.264  0.00  0.00    +0.000 NA
ATOM     17  C   UNL     1       1.340   8.795  21.975  0.00  0.00    +0.000 A 
ENDBRANCH  10  12
ENDBRANCH   7   8
ENDBRANCH   1   2
BRANCH   1  18
ATOM     18  C   UNL     1       3.949   6.039  17.423  0.00  0.00    +0.000 C 
BRANCH  18  25
ATOM     19  C   UNL     1       6.413   6.110  16.743  0.00  0.00    +0.000 A 
ATOM     20  C   UNL     1       7.403   5.812  15.798  0.00  0.00    +0.000 A 
ATOM     21  C   UNL     1       7.139   4.961  14.727  0.00  0.00    +0.000 A 
ATOM     22  C   UNL     1       5.879   4.396  14.592  0.00  0.00    +0.000 A 
ATOM     23 CL   UNL     1       5.564   3.311  13.296  0.00  0.00    +0.000 Cl
ATOM     24  C   UNL     1       4.867   4.724  15.489  0.00  0.00    +0.000 A 
ATOM     25  C   UNL     1       5.111   5.612  16.556  0.00  0.00    +0.000 A 
BRANCH  19  26
ATOM     26  O   UNL     1       6.619   6.868  17.864  0.00  0.00    +0.000 OA
BRANCH  26  27
ATOM     27  C   UNL     1       7.936   7.386  18.092  0.00  0.00    +0.000 C 
BRANCH  27  28
ATOM     28  C   UNL     1       7.966   8.890  17.822  0.00  0.00    +0.000 C 
BRANCH  28  29
ATOM     29  C   UNL     1       8.941   9.578  18.778  0.00  0.00    +0.000 C 
BRANCH  29  30
ATOM     30  C   UNL     1       9.112  11.058  18.450  0.00  0.00    +0.000 C 
BRANCH  30  32
ATOM     31  C   UNL     1      10.947  12.719  17.987  0.00  0.00    +0.000 C 
ATOM     32  C   UNL     1      10.464  11.295  17.779  0.00  0.00    +0.000 C 
ENDBRANCH  30  32
ENDBRANCH  29  30
ENDBRANCH  28  29
ENDBRANCH  27  28
ENDBRANCH  26  27
ENDBRANCH  19  26
ENDBRANCH  18  25
ENDBRANCH   1  18
TORSDOF 11
ENDMDL
MODEL 3
REMARK VINA RESULT:      -7.1      3.924      7.601
REMARK  Name = 
REMARK  12 active torsions:
REMARK  status: ('A' for Active; 'I' for Inactive)
REMARK    1  A    between atoms: C_1  and  C_2
REMARK    2  A    between atoms: C_2  and  C_3
REMARK    3  A    between atoms: C_3  and  C_4
REMARK    4  A    between atoms: C_4  and  C_5
REMARK    5  A    between atoms: C_5  and  C_6
REMARK    6  A    between atoms: C_6  and  O_7
REMARK    7  A    between atoms: O_7  and  C_8
REMARK    8  A    between atoms: C_14  and  C_15
REMARK    9  A    between atoms: C_15  and  O_16
REMARK   10  A    between atoms: O_16  and  C_17
REMARK   11  A    between atoms: C_22  and  C_23
REMARK   12  A    between atoms: N_25  and  C_26
REMARK                            x       y       z     vdW  Elec       q    Type
REMARK                         _______ _______ _______ _____ _____    ______ ____
ROOT
ATOM      1  O   UNL     1       3.311   7.322  17.027  0.00  0.00    +0.000 OA
ENDROOT
BRANCH   1   2
ATOM      2  C   UNL     1       2.571   8.011  17.965  0.00  0.00    +0.000 A 
ATOM      3  C   UNL     1       2.159   9.341  17.758  0.00  0.00    +0.000 A 
ATOM      4  C   UNL     1       1.407  10.030  18.715  0.00  0.00    +0.000 A 
ATOM      5  C   UNL     1       1.030   9.395  19.886  0.00  0.00    +0.000 A 
ATOM      6  C   UNL     1       1.399   8.067  20.090  0.00  0.00    +0.000 A 
ATOM      7  C   UNL     1       2.163   7.353  19.140  0.00  0.00    +0.000 A 
BRANCH   7   8
ATOM      8  C   UNL     1       2.485   5.936  19.523  0.00  0.00    +0.000 C 
ATOM      9  O   UNL     1       2.256   5.602  20.681  0.00  0.00    +0.000 OA
ATOM     10  N   UNL     1       3.022   5.103  18.558  0.00  0.00    +0.000 N 
ATOM     11  H   UNL     1       3.155   5.501  17.633  0.00  0.00    +0.000 HD
BRANCH  10  12
ATOM     12  C   UNL     1       3.442   3.764  18.754  0.00  0.00    +0.000 A 
ATOM     13  C   UNL     1       2.894   2.659  18.098  0.00  0.00    +0.000 A 
ATOM     14  C   UNL     1       3.346   1.373  18.383  0.00  0.00    +0.000 A 
ATOM     15  C   UNL     1       4.347   1.221  19.322  0.00  0.00    +0.000 A 
ATOM     16  N   UNL     1       4.921   2.255  19.975  0.00  0.00    +0.000 NA
ATOM     17  C   UNL     1       4.458   3.496  19.670  0.00  0.00    +0.000 A 
ENDBRANCH  10  12
ENDBRANCH   7   8
ENDBRANCH   1   2
BRANCH   1  18
ATOM     18  C   UNL     1       4.730   7.513  17.123  0.00  0.00    +0.000 C 
BRANCH  18  25
ATOM     19  C   UNL     1       6.582   5.759  17.285  0.00  0.00    +0.000 A 
ATOM     20  C   UNL     1       7.321   4.739  16.673  0.00  0.00    +0.000 A 
ATOM     21  C   UNL     1       6.914   4.188  15.459  0.00  0.00    +0.000 A 
ATOM     22  C   UNL     1       5.759   4.651  14.847  0.00  0.00    +0.000 A 
ATOM     23 CL   UNL     1       5.231   3.942  13.372  0.00  0.00    +0.000 Cl
ATOM     24  C   UNL     1       5.042   5.702  15.412  0.00  0.00    +0.000 A 
ATOM     25  C   UNL     1       5.464   6.292  16.620  0.00  0.00    +0.000 A 
BRANCH  19  26
ATOM     26  O   UNL     1       6.871   6.291  18.512  0.00  0.00    +0.000 OA
BRANCH  26  27
ATOM     27  C   UNL     1       8.043   7.108  18.631  0.00  0.00    +0.000 C 
BRANCH  27  28
ATOM     28  C   UNL     1       8.123   8.089  17.460  0.00  0.00    +0.000 C 
BRANCH  28  29
ATOM     29  C   UNL     1       8.107   9.528  17.976  0.00  0.00    +0.000 C 
BRANCH  29  30
ATOM     30  C   UNL     1       9.116   9.742  19.100  0.00  0.00    +0.000 C 
BRANCH  30  32
ATOM     31  C   UNL     1       9.113  12.136  18.322  0.00  0.00    +0.000 C 
ATOM     32  C   UNL     1       9.963  10.982  18.818  0.00  0.00    +0.000 C 
ENDBRANCH  30  32
ENDBRANCH  29  30
ENDBRANCH  28  29
ENDBRANCH  27  28
ENDBRANCH  26  27
ENDBRANCH  19  26
ENDBRANCH  18  25
ENDBRANCH   1  18
TORSDOF 11
ENDMDL
MODEL 4
REMARK VINA RESULT:      -7.0      2.025      3.431
REMARK  Name = 
REMARK  12 active torsions:
REMARK  status: ('A' for Active; 'I' for Inactive)
REMARK    1  A    between atoms: C_1  and  C_2
REMARK    2  A    between atoms: C_2  and  C_3
REMARK    3  A    between atoms: C_3  and  C_4
REMARK    4  A    between atoms: C_4  and  C_5
REMARK    5  A    between atoms: C_5  and  C_6
REMARK    6  A    between atoms: C_6  and  O_7
REMARK    7  A    between atoms: O_7  and  C_8
REMARK    8  A    between atoms: C_14  and  C_15
REMARK    9  A    between atoms: C_15  and  O_16
REMARK   10  A    between atoms: O_16  and  C_17
REMARK   11  A    between atoms: C_22  and  C_23
REMARK   12  A    between atoms: N_25  and  C_26
REMARK                            x       y       z     vdW  Elec       q    Type
REMARK                         _______ _______ _______ _____ _____    ______ ____
ROOT
ATOM      1  O   UNL     1       1.229   8.544  19.991  0.00  0.00    +0.000 OA
ENDROOT
BRANCH   1   2
ATOM      2  C   UNL     1       0.541   9.194  20.994  0.00  0.00    +0.000 A 
ATOM      3  C   UNL     1       0.838   8.990  22.354  0.00  0.00    +0.000 A 
ATOM      4  C   UNL     1       0.137   9.657  23.363  0.00  0.00    +0.000 A 
ATOM      5  C   UNL     1      -0.860  10.558  23.032  0.00  0.00    +0.000 A 
ATOM      6  C   UNL     1      -1.143  10.798  21.689  0.00  0.00    +0.000 A 
ATOM      7  C   UNL     1      -0.450  10.132  20.652  0.00  0.00    +0.000 A 
BRANCH   7   8
ATOM      8  C   UNL     1      -0.888  10.497  19.262  0.00  0.00    +0.000 C 
ATOM      9  O   UNL     1      -0.130  11.199  18.601  0.00  0.00    +0.000 OA
ATOM     10  N   UNL     1      -2.112  10.030  18.818  0.00  0.00    +0.000 N 
ATOM     11  H   UNL     1      -2.641   9.449  19.461  0.00  0.00    +0.000 HD
BRANCH  10  12
ATOM     12  C   UNL     1      -2.711  10.323  17.568  0.00  0.00    +0.000 A 
ATOM     13  C   UNL     1      -2.208   9.906  16.333  0.00  0.00    +0.000 A 
ATOM     14  C   UNL     1      -2.844  10.275  15.150  0.00  0.00    +0.000 A 
ATOM     15  C   UNL     1      -3.982  11.053  15.231  0.00  0.00    +0.000 A 
ATOM     16  N   UNL     1      -4.519  11.472  16.398  0.00  0.00    +0.000 NA
ATOM     17  C   UNL     1      -3.873  11.091  17.532  0.00  0.00    +0.000 A 
ENDBRANCH  10  12
ENDBRANCH   7   8
ENDBRANCH   1   2
BRANCH   1  18
ATOM     18  C   UNL     1       2.303   7.708  20.444  0.00  0.00    +0.000 C 
BRANCH  18  25
ATOM     19  C   UNL     1       2.480   6.103  18.461  0.00  0.00    +0.000 A 
ATOM     20  C   UNL     1       2.198   4.847  17.910  0.00  0.00    +0.000 A 
ATOM     21  C   UNL     1       1.733   3.802  18.706  0.00  0.00    +0.000 A 
ATOM     22  C   UNL     1       1.548   4.004  20.065  0.00  0.00    +0.000 A 
ATOM     23 CL   UNL     1       1.016   2.704  21.057  0.00  0.00    +0.000 Cl
ATOM     24  C   UNL     1       1.769   5.260  20.622  0.00  0.00    +0.000 A 
ATOM     25  C   UNL     1       2.204   6.334  19.821  0.00  0.00    +0.000 A 
BRANCH  19  26
ATOM     26  O   UNL     1       3.016   7.150  17.762  0.00  0.00    +0.000 OA
BRANCH  26  27
ATOM     27  C   UNL     1       4.245   6.929  17.057  0.00  0.00    +0.000 C 
BRANCH  27  28
ATOM     28  C   UNL     1       5.253   6.222  17.964  0.00  0.00    +0.000 C 
BRANCH  28  29
ATOM     29  C   UNL     1       6.679   6.550  17.522  0.00  0.00    +0.000 C 
BRANCH  29  30
ATOM     30  C   UNL     1       7.110   5.716  16.320  0.00  0.00    +0.000 C 
BRANCH  30  32
ATOM     31  C   UNL     1       5.967   3.994  14.882  0.00  0.00    +0.000 C 
ATOM     32  C   UNL     1       6.345   4.393  16.296  0.00  0.00    +0.000 C 
ENDBRANCH  30  32
ENDBRANCH  29  30
ENDBRANCH  28  29
ENDBRANCH  27  28
ENDBRANCH  26  27
ENDBRANCH  19  26
ENDBRANCH  18  25
ENDBRANCH   1  18
TORSDOF 11
ENDMDL
MODEL 5
REMARK VINA RESULT:      -7.0      4.362      8.651
REMARK  Name = 
REMARK  12 active torsions:
REMARK  status: ('A' for Active; 'I' for Inactive)
REMARK    1  A    between atoms: C_1  and  C_2
REMARK    2  A    between atoms: C_2  and  C_3
REMARK    3  A    between atoms: C_3  and  C_4
REMARK    4  A    between atoms: C_4  and  C_5
REMARK    5  A    between atoms: C_5  and  C_6
REMARK    6  A    between atoms: C_6  and  O_7
REMARK    7  A    between atoms: O_7  and  C_8
REMARK    8  A    between atoms: C_14  and  C_15
REMARK    9  A    between atoms: C_15  and  O_16
REMARK   10  A    between atoms: O_16  and  C_17
REMARK   11  A    between atoms: C_22  and  C_23
REMARK   12  A    between atoms: N_25  and  C_26
REMARK                            x       y       z     vdW  Elec       q    Type
REMARK                         _______ _______ _______ _____ _____    ______ ____
ROOT
ATOM      1  O   UNL     1       4.835   6.077  18.212  0.00  0.00    +0.000 OA
ENDROOT
BRANCH   1   2
ATOM      2  C   UNL     1       5.524   5.609  17.113  0.00  0.00    +0.000 A 
ATOM      3  C   UNL     1       4.949   4.702  16.203  0.00  0.00    +0.000 A 
ATOM      4  C   UNL     1       5.656   4.237  15.090  0.00  0.00    +0.000 A 
ATOM      5  C   UNL     1       6.944   4.687  14.852  0.00  0.00    +0.000 A 
ATOM      6  C   UNL     1       7.514   5.611  15.723  0.00  0.00    +0.000 A 
ATOM      7  C   UNL     1       6.820   6.092  16.857  0.00  0.00    +0.000 A 
BRANCH   7   8
ATOM      8  C   UNL     1       7.586   7.074  17.698  0.00  0.00    +0.000 C 
ATOM      9  O   UNL     1       8.092   6.651  18.732  0.00  0.00    +0.000 OA
ATOM     10  N   UNL     1       7.667   8.385  17.264  0.00  0.00    +0.000 N 
ATOM     11  H   UNL     1       7.210   8.604  16.384  0.00  0.00    +0.000 HD
BRANCH  10  12
ATOM     12  C   UNL     1       8.290   9.453  17.954  0.00  0.00    +0.000 A 
ATOM     13  C   UNL     1       9.008   9.314  19.145  0.00  0.00    +0.000 A 
ATOM     14  C   UNL     1       9.555  10.430  19.774  0.00  0.00    +0.000 A 
ATOM     15  C   UNL     1       9.375  11.668  19.190  0.00  0.00    +0.000 A 
ATOM     16  N   UNL     1       8.702  11.858  18.033  0.00  0.00    +0.000 NA
ATOM     17  C   UNL     1       8.185  10.746  17.446  0.00  0.00    +0.000 A 
ENDBRANCH  10  12
ENDBRANCH   7   8
ENDBRANCH   1   2
BRANCH   1  18
ATOM     18  C   UNL     1       3.490   6.499  17.943  0.00  0.00    +0.000 C 
BRANCH  18  25
ATOM     19  C   UNL     1       1.929   6.202  19.946  0.00  0.00    +0.000 A 
ATOM     20  C   UNL     1       1.170   5.347  20.754  0.00  0.00    +0.000 A 
ATOM     21  C   UNL     1       0.908   4.034  20.364  0.00  0.00    +0.000 A 
ATOM     22  C   UNL     1       1.404   3.565  19.157  0.00  0.00    +0.000 A 
ATOM     23 CL   UNL     1       1.047   1.960  18.653  0.00  0.00    +0.000 Cl
ATOM     24  C   UNL     1       2.207   4.381  18.366  0.00  0.00    +0.000 A 
ATOM     25  C   UNL     1       2.509   5.698  18.767  0.00  0.00    +0.000 A 
BRANCH  19  26
ATOM     26  O   UNL     1       2.157   7.523  20.220  0.00  0.00    +0.000 OA
BRANCH  26  27
ATOM     27  C   UNL     1       1.328   8.158  21.202  0.00  0.00    +0.000 C 
BRANCH  27  28
ATOM     28  C   UNL     1       0.880   9.533  20.705  0.00  0.00    +0.000 C 
BRANCH  28  29
ATOM     29  C   UNL     1       0.996   9.607  19.182  0.00  0.00    +0.000 C 
BRANCH  29  30
ATOM     30  C   UNL     1       0.606  10.980  18.647  0.00  0.00    +0.000 C 
BRANCH  30  32
ATOM     31  C   UNL     1      -1.458  10.002  17.587  0.00  0.00    +0.000 C 
ATOM     32  C   UNL     1      -0.912  11.078  18.507  0.00  0.00    +0.000 C 
ENDBRANCH  30  32
ENDBRANCH  29  30
ENDBRANCH  28  29
ENDBRANCH  27  28
ENDBRANCH  26  27
ENDBRANCH  19  26
ENDBRANCH  18  25
ENDBRANCH   1  18
TORSDOF 11
ENDMDL
MODEL 6
REMARK VINA RESULT:      -7.0      4.355      7.884
REMARK  Name = 
REMARK  12 active torsions:
REMARK  status: ('A' for Active; 'I' for Inactive)
REMARK    1  A    between atoms: C_1  and  C_2
REMARK    2  A    between atoms: C_2  and  C_3
REMARK    3  A    between atoms: C_3  and  C_4
REMARK    4  A    between atoms: C_4  and  C_5
REMARK    5  A    between atoms: C_5  and  C_6
REMARK    6  A    between atoms: C_6  and  O_7
REMARK    7  A    between atoms: O_7  and  C_8
REMARK    8  A    between atoms: C_14  and  C_15
REMARK    9  A    between atoms: C_15  and  O_16
REMARK   10  A    between atoms: O_16  and  C_17
REMARK   11  A    between atoms: C_22  and  C_23
REMARK   12  A    between atoms: N_25  and  C_26
REMARK                            x       y       z     vdW  Elec       q    Type
REMARK                         _______ _______ _______ _____ _____    ______ ____
ROOT
ATOM      1  O   UNL     1       4.539   7.259  17.881  0.00  0.00    +0.000 OA
ENDROOT
BRANCH   1   2
ATOM      2  C   UNL     1       5.199   6.233  17.237  0.00  0.00    +0.000 A 
ATOM      3  C   UNL     1       4.509   5.225  16.539  0.00  0.00    +0.000 A 
ATOM      4  C   UNL     1       5.189   4.191  15.887  0.00  0.00    +0.000 A 
ATOM      5  C   UNL     1       6.572   4.158  15.900  0.00  0.00    +0.000 A 
ATOM      6  C   UNL     1       7.272   5.168  16.557  0.00  0.00    +0.000 A 
ATOM      7  C   UNL     1       6.606   6.220  17.226  0.00  0.00    +0.000 A 
BRANCH   7   8
ATOM      8  C   UNL     1       7.510   7.218  17.894  0.00  0.00    +0.000 C 
ATOM      9  O   UNL     1       8.215   6.810  18.811  0.00  0.00    +0.000 OA
ATOM     10  N   UNL     1       7.488   8.525  17.443  0.00  0.00    +0.000 N 
ATOM     11  H   UNL     1       6.865   8.731  16.668  0.00  0.00    +0.000 HD
BRANCH  10  12
ATOM     12  C   UNL     1       8.222   9.606  17.990  0.00  0.00    +0.000 A 
ATOM     13  C   UNL     1       9.076   9.506  19.091  0.00  0.00    +0.000 A 
ATOM     14  C   UNL     1       9.728  10.634  19.583  0.00  0.00    +0.000 A 
ATOM     15  C   UNL     1       9.513  11.845  18.955  0.00  0.00    +0.000 A 
ATOM     16  N   UNL     1       8.709  11.995  17.879  0.00  0.00    +0.000 NA
ATOM     17  C   UNL     1       8.091  10.873  17.424  0.00  0.00    +0.000 A 
ENDBRANCH  10  12
ENDBRANCH   7   8
ENDBRANCH   1   2
BRANCH   1  18
ATOM     18  C   UNL     1       3.204   7.499  17.414  0.00  0.00    +0.000 C 
BRANCH  18  25
ATOM     19  C   UNL     1       2.117   7.699  19.720  0.00  0.00    +0.000 A 
ATOM     20  C   UNL     1       1.226   8.368  20.569  0.00  0.00    +0.000 A 
ATOM     21  C   UNL     1       0.693   9.607  20.217  0.00  0.00    +0.000 A 
ATOM     22  C   UNL     1       1.049  10.190  19.011  0.00  0.00    +0.000 A 
ATOM     23 CL   UNL     1       0.428  11.739  18.594  0.00  0.00    +0.000 Cl
ATOM     24  C   UNL     1       1.889   9.516  18.129  0.00  0.00    +0.000 A 
ATOM     25  C   UNL     1       2.405   8.247  18.457  0.00  0.00    +0.000 A 
BRANCH  19  26
ATOM     26  O   UNL     1       2.744   6.523  20.031  0.00  0.00    +0.000 OA
BRANCH  26  27
ATOM     27  C   UNL     1       1.979   5.313  19.953  0.00  0.00    +0.000 C 
BRANCH  27  28
ATOM     28  C   UNL     1       2.898   4.098  20.082  0.00  0.00    +0.000 C 
BRANCH  28  29
ATOM     29  C   UNL     1       2.070   2.815  20.152  0.00  0.00    +0.000 C 
BRANCH  29  30
ATOM     30  C   UNL     1       1.382   2.508  18.826  0.00  0.00    +0.000 C 
BRANCH  30  32
ATOM     31  C   UNL     1       3.583   1.475  18.174  0.00  0.00    +0.000 C 
ATOM     32  C   UNL     1       2.422   2.340  17.720  0.00  0.00    +0.000 C 
ENDBRANCH  30  32
ENDBRANCH  29  30
ENDBRANCH  28  29
ENDBRANCH  27  28
ENDBRANCH  26  27
ENDBRANCH  19  26
ENDBRANCH  18  25
ENDBRANCH   1  18
TORSDOF 11
ENDMDL
MODEL 7
REMARK VINA RESULT:      -7.0      3.806      6.330
REMARK  Name = 
REMARK  12 active torsions:
REMARK  status: ('A' for Active; 'I' for Inactive)
REMARK    1  A    between atoms: C_1  and  C_2
REMARK    2  A    between atoms: C_2  and  C_3
REMARK    3  A    between atoms: C_3  and  C_4
REMARK    4  A    between atoms: C_4  and  C_5
REMARK    5  A    between atoms: C_5  and  C_6
REMARK    6  A    between atoms: C_6  and  O_7
REMARK    7  A    between atoms: O_7  and  C_8
REMARK    8  A    between atoms: C_14  and  C_15
REMARK    9  A    between atoms: C_15  and  O_16
REMARK   10  A    between atoms: O_16  and  C_17
REMARK   11  A    between atoms: C_22  and  C_23
REMARK   12  A    between atoms: N_25  and  C_26
REMARK                            x       y       z     vdW  Elec       q    Type
REMARK                         _______ _______ _______ _____ _____    ______ ____
ROOT
ATOM      1  O   UNL     1       2.784   4.714  17.571  0.00  0.00    +0.000 OA
ENDROOT
BRANCH   1   2
ATOM      2  C   UNL     1       2.378   4.185  18.778  0.00  0.00    +0.000 A 
ATOM      3  C   UNL     1       2.292   2.796  18.992  0.00  0.00    +0.000 A 
ATOM      4  C   UNL     1       1.883   2.270  20.221  0.00  0.00    +0.000 A 
ATOM      5  C   UNL     1       1.575   3.121  21.269  0.00  0.00    +0.000 A 
ATOM      6  C   UNL     1       1.689   4.497  21.085  0.00  0.00    +0.000 A 
ATOM      7  C   UNL     1       2.096   5.052  19.850  0.00  0.00    +0.000 A 
BRANCH   7   8
ATOM      8  C   UNL     1       2.154   6.553  19.819  0.00  0.00    +0.000 C 
ATOM      9  O   UNL     1       3.128   7.065  19.276  0.00  0.00    +0.000 OA
ATOM     10  N   UNL     1       1.121   7.260  20.405  0.00  0.00    +0.000 N 
ATOM     11  H   UNL     1       0.367   6.715  20.813  0.00  0.00    +0.000 HD
BRANCH  10  12
ATOM     12  C   UNL     1       1.039   8.669  20.524  0.00  0.00    +0.000 A 
ATOM     13  C   UNL     1       0.954   9.551  19.443  0.00  0.00    +0.000 A 
ATOM     14  C   UNL     1       0.915  10.927  19.655  0.00  0.00    +0.000 A 
ATOM     15  C   UNL     1       0.957  11.393  20.955  0.00  0.00    +0.000 A 
ATOM     16  N   UNL     1       1.025  10.585  22.036  0.00  0.00    +0.000 NA
ATOM     17  C   UNL     1       1.058   9.248  21.791  0.00  0.00    +0.000 A 
ENDBRANCH  10  12
ENDBRANCH   7   8
ENDBRANCH   1   2
BRANCH   1  18
ATOM     18  C   UNL     1       3.674   3.879  16.818  0.00  0.00    +0.000 C 
BRANCH  18  25
ATOM     19  C   UNL     1       6.039   4.308  15.945  0.00  0.00    +0.000 A 
ATOM     20  C   UNL     1       7.386   4.572  16.221  0.00  0.00    +0.000 A 
ATOM     21  C   UNL     1       7.797   4.945  17.500  0.00  0.00    +0.000 A 
ATOM     22  C   UNL     1       6.861   5.059  18.516  0.00  0.00    +0.000 A 
ATOM     23 CL   UNL     1       7.359   5.562  20.083  0.00  0.00    +0.000 Cl
ATOM     24  C   UNL     1       5.526   4.747  18.275  0.00  0.00    +0.000 A 
ATOM     25  C   UNL     1       5.104   4.333  16.996  0.00  0.00    +0.000 A 
BRANCH  19  26
ATOM     26  O   UNL     1       5.548   4.018  14.701  0.00  0.00    +0.000 OA
BRANCH  26  27
ATOM     27  C   UNL     1       6.232   4.564  13.565  0.00  0.00    +0.000 C 
BRANCH  27  28
ATOM     28  C   UNL     1       6.353   3.509  12.465  0.00  0.00    +0.000 C 
BRANCH  28  29
ATOM     29  C   UNL     1       4.971   3.162  11.913  0.00  0.00    +0.000 C 
BRANCH  29  30
ATOM     30  C   UNL     1       5.001   1.906  11.047  0.00  0.00    +0.000 C 
BRANCH  30  32
ATOM     31  C   UNL     1       6.111  -0.338  11.313  0.00  0.00    +0.000 C 
ATOM     32  C   UNL     1       6.322   1.163  11.244  0.00  0.00    +0.000 C 
ENDBRANCH  30  32
ENDBRANCH  29  30
ENDBRANCH  28  29
ENDBRANCH  27  28
ENDBRANCH  26  27
ENDBRANCH  19  26
ENDBRANCH  18  25
ENDBRANCH   1  18
TORSDOF 11
ENDMDL
MODEL 8
REMARK VINA RESULT:      -7.0      2.275      4.008
REMARK  Name = 
REMARK  12 active torsions:
REMARK  status: ('A' for Active; 'I' for Inactive)
REMARK    1  A    between atoms: C_1  and  C_2
REMARK    2  A    between atoms: C_2  and  C_3
REMARK    3  A    between atoms: C_3  and  C_4
REMARK    4  A    between atoms: C_4  and  C_5
REMARK    5  A    between atoms: C_5  and  C_6
REMARK    6  A    between atoms: C_6  and  O_7
REMARK    7  A    between atoms: O_7  and  C_8
REMARK    8  A    between atoms: C_14  and  C_15
REMARK    9  A    between atoms: C_15  and  O_16
REMARK   10  A    between atoms: O_16  and  C_17
REMARK   11  A    between atoms: C_22  and  C_23
REMARK   12  A    between atoms: N_25  and  C_26
REMARK                            x       y       z     vdW  Elec       q    Type
REMARK                         _______ _______ _______ _____ _____    ______ ____
ROOT
ATOM      1  O   UNL     1       0.792   7.785  19.984  0.00  0.00    +0.000 OA
ENDROOT
BRANCH   1   2
ATOM      2  C   UNL     1       0.387   8.738  20.895  0.00  0.00    +0.000 A 
ATOM      3  C   UNL     1       0.721   8.654  22.259  0.00  0.00    +0.000 A 
ATOM      4  C   UNL     1       0.308   9.628  23.174  0.00  0.00    +0.000 A 
ATOM      5  C   UNL     1      -0.426  10.718  22.739  0.00  0.00    +0.000 A 
ATOM      6  C   UNL     1      -0.735  10.834  21.386  0.00  0.00    +0.000 A 
ATOM      7  C   UNL     1      -0.333   9.860  20.444  0.00  0.00    +0.000 A 
BRANCH   7   8
ATOM      8  C   UNL     1      -0.760  10.133  19.029  0.00  0.00    +0.000 C 
ATOM      9  O   UNL     1       0.113  10.467  18.234  0.00  0.00    +0.000 OA
ATOM     10  N   UNL     1      -2.099  10.000  18.713  0.00  0.00    +0.000 N 
ATOM     11  H   UNL     1      -2.720   9.708  19.463  0.00  0.00    +0.000 HD
BRANCH  10  12
ATOM     12  C   UNL     1      -2.689  10.274  17.454  0.00  0.00    +0.000 A 
ATOM     13  C   UNL     1      -2.216   9.782  16.235  0.00  0.00    +0.000 A 
ATOM     14  C   UNL     1      -2.839  10.136  15.041  0.00  0.00    +0.000 A 
ATOM     15  C   UNL     1      -3.933  10.978  15.095  0.00  0.00    +0.000 A 
ATOM     16  N   UNL     1      -4.440  11.471  16.246  0.00  0.00    +0.000 NA
ATOM     17  C   UNL     1      -3.808  11.102  17.392  0.00  0.00    +0.000 A 
ENDBRANCH  10  12
ENDBRANCH   7   8
ENDBRANCH   1   2
BRANCH   1  18
ATOM     18  C   UNL     1       2.213   7.624  19.875  0.00  0.00    +0.000 C 
BRANCH  18  25
ATOM     19  C   UNL     1       3.549   5.631  18.991  0.00  0.00    +0.000 A 
ATOM     20  C   UNL     1       3.713   4.243  18.908  0.00  0.00    +0.000 A 
ATOM     21  C   UNL     1       2.994   3.384  19.739  0.00  0.00    +0.000 A 
ATOM     22  C   UNL     1       2.106   3.909  20.665  0.00  0.00    +0.000 A 
ATOM     23 CL   UNL     1       1.251   2.855  21.721  0.00  0.00    +0.000 Cl
ATOM     24  C   UNL     1       1.887   5.283  20.724  0.00  0.00    +0.000 A 
ATOM     25  C   UNL     1       2.580   6.158  19.864  0.00  0.00    +0.000 A 
BRANCH  19  26
ATOM     26  O   UNL     1       4.276   6.539  18.269  0.00  0.00    +0.000 OA
BRANCH  26  27
ATOM     27  C   UNL     1       4.588   6.218  16.907  0.00  0.00    +0.000 C 
BRANCH  27  28
ATOM     28  C   UNL     1       6.032   6.610  16.591  0.00  0.00    +0.000 C 
BRANCH  28  29
ATOM     29  C   UNL     1       6.989   5.936  17.573  0.00  0.00    +0.000 C 
BRANCH  29  30
ATOM     30  C   UNL     1       7.886   6.947  18.280  0.00  0.00    +0.000 C 
BRANCH  30  32
ATOM     31  C   UNL     1       8.568   9.369  18.353  0.00  0.00    +0.000 C 
ATOM     32  C   UNL     1       7.749   8.320  17.625  0.00  0.00    +0.000 C 
ENDBRANCH  30  32
ENDBRANCH  29  30
ENDBRANCH  28  29
ENDBRANCH  27  28
ENDBRANCH  26  27
ENDBRANCH  19  26
ENDBRANCH  18  25
ENDBRANCH   1  18
TORSDOF 11
ENDMDL
MODEL 9
REMARK VINA RESULT:      -6.9      3.658      6.799
REMARK  Name = 
REMARK  12 active torsions:
REMARK  status: ('A' for Active; 'I' for Inactive)
REMARK    1  A    between atoms: C_1  and  C_2
REMARK    2  A    between atoms: C_2  and  C_3
REMARK    3  A    between atoms: C_3  and  C_4
REMARK    4  A    between atoms: C_4  and  C_5
REMARK    5  A    between atoms: C_5  and  C_6
REMARK    6  A    between atoms: C_6  and  O_7
REMARK    7  A    between atoms: O_7  and  C_8
REMARK    8  A    between atoms: C_14  and  C_15
REMARK    9  A    between atoms: C_15  and  O_16
REMARK   10  A    between atoms: O_16  and  C_17
REMARK   11  A    between atoms: C_22  and  C_23
REMARK   12  A    between atoms: N_25  and  C_26
REMARK                            x       y       z     vdW  Elec       q    Type
REMARK                         _______ _______ _______ _____ _____    ______ ____
ROOT
ATOM      1  O   UNL     1       3.615   4.284  17.025  0.00  0.00    +0.000 OA
ENDROOT
BRANCH   1   2
ATOM      2  C   UNL     1       2.741   3.815  17.983  0.00  0.00    +0.000 A 
ATOM      3  C   UNL     1       2.390   2.455  18.069  0.00  0.00    +0.000 A 
ATOM      4  C   UNL     1       1.505   1.989  19.046  0.00  0.00    +0.000 A 
ATOM      5  C   UNL     1       0.972   2.870  19.971  0.00  0.00    +0.000 A 
ATOM      6  C   UNL     1       1.336   4.213  19.922  0.00  0.00    +0.000 A 
ATOM      7  C   UNL     1       2.225   4.707  18.940  0.00  0.00    +0.000 A 
BRANCH   7   8
ATOM      8  C   UNL     1       2.502   6.182  19.022  0.00  0.00    +0.000 C 
ATOM      9  O   UNL     1       3.615   6.524  19.406  0.00  0.00    +0.000 OA
ATOM     10  N   UNL     1       1.491   7.058  18.670  0.00  0.00    +0.000 N 
ATOM     11  H   UNL     1       0.616   6.645  18.359  0.00  0.00    +0.000 HD
BRANCH  10  12
ATOM     12  C   UNL     1       1.551   8.471  18.743  0.00  0.00    +0.000 A 
ATOM     13  C   UNL     1       0.948   9.237  19.744  0.00  0.00    +0.000 A 
ATOM     14  C   UNL     1       1.028  10.628  19.714  0.00  0.00    +0.000 A 
ATOM     15  C   UNL     1       1.719  11.224  18.677  0.00  0.00    +0.000 A 
ATOM     16  N   UNL     1       2.332  10.531  17.692  0.00  0.00    +0.000 NA
ATOM     17  C   UNL     1       2.235   9.177  17.755  0.00  0.00    +0.000 A 
ENDBRANCH  10  12
ENDBRANCH   7   8
ENDBRANCH   1   2
BRANCH   1  18
ATOM     18  C   UNL     1       4.974   3.854  17.189  0.00  0.00    +0.000 C 
BRANCH  18  25
ATOM     19  C   UNL     1       7.002   4.714  15.892  0.00  0.00    +0.000 A 
ATOM     20  C   UNL     1       7.587   5.036  14.661  0.00  0.00    +0.000 A 
ATOM     21  C   UNL     1       6.994   4.646  13.461  0.00  0.00    +0.000 A 
ATOM     22  C   UNL     1       5.809   3.926  13.483  0.00  0.00    +0.000 A 
ATOM     23 CL   UNL     1       5.098   3.406  12.006  0.00  0.00    +0.000 Cl
ATOM     24  C   UNL     1       5.183   3.645  14.694  0.00  0.00    +0.000 A 
ATOM     25  C   UNL     1       5.754   4.066  15.912  0.00  0.00    +0.000 A 
BRANCH  19  26
ATOM     26  O   UNL     1       7.565   4.989  17.109  0.00  0.00    +0.000 OA
BRANCH  26  27
ATOM     27  C   UNL     1       6.847   5.851  18.002  0.00  0.00    +0.000 C 
BRANCH  27  28
ATOM     28  C   UNL     1       7.015   7.310  17.577  0.00  0.00    +0.000 C 
BRANCH  28  29
ATOM     29  C   UNL     1       8.237   7.921  18.263  0.00  0.00    +0.000 C 
BRANCH  29  30
ATOM     30  C   UNL     1       8.402   9.398  17.922  0.00  0.00    +0.000 C 
BRANCH  30  32
ATOM     31  C   UNL     1       9.909  11.333  18.492  0.00  0.00    +0.000 C 
ATOM     32  C   UNL     1       9.190  10.107  19.023  0.00  0.00    +0.000 C 
ENDBRANCH  30  32
ENDBRANCH  29  30
ENDBRANCH  28  29
ENDBRANCH  27  28
ENDBRANCH  26  27
ENDBRANCH  19  26
ENDBRANCH  18  25
ENDBRANCH   1  18
TORSDOF 11
ENDMDL
