MODEL 1
REMARK VINA RESULT:      -9.5      0.000      0.000
REMARK  Name = 
REMARK  8 active torsions:
REMARK  status: ('A' for Active; 'I' for Inactive)
REMARK    1  A    between atoms: N_2  and  C_4
REMARK    2  A    between atoms: C_8  and  O_9
REMARK    3  A    between atoms: O_9  and  C_10
REMARK    4  A    between atoms: C_12  and  N_13
REMARK    5  A    between atoms: N_13  and  C_14
REMARK    6  A    between atoms: C_17  and  O_18
REMARK    7  A    between atoms: O_18  and  C_19
REMARK    8  A    between atoms: C_19  and  C_20
REMARK                            x       y       z     vdW  Elec       q    Type
REMARK                         _______ _______ _______ _____ _____    ______ ____
ROOT
ATOM      1  N   UNL     1       1.936   6.441  21.205  0.00  0.00    +0.000 N 
ATOM      2  H   UNL     1       1.740   6.301  22.188  0.00  0.00    +0.000 HD
ENDROOT
BRANCH   1   3
ATOM      3  C   UNL     1       1.507   7.699  20.740  0.00  0.00    +0.000 A 
ATOM      4  C   UNL     1       1.737   8.039  19.402  0.00  0.00    +0.000 A 
ATOM      5  C   UNL     1       1.276   9.246  18.876  0.00  0.00    +0.000 A 
ATOM      6  C   UNL     1       0.530  10.124  19.667  0.00  0.00    +0.000 A 
ATOM      7  C   UNL     1       0.369   9.828  21.026  0.00  0.00    +0.000 A 
ATOM      8 CL   UNL     1      -0.478  10.903  22.084  0.00  0.00    +0.000 Cl
ATOM      9  C   UNL     1       0.858   8.628  21.557  0.00  0.00    +0.000 A 
BRANCH   6  10
ATOM     10  O   UNL     1      -0.066  11.259  19.171  0.00  0.00    +0.000 OA
BRANCH  10  11
ATOM     11  C   UNL     1      -1.470  11.351  19.434  0.00  0.00    +0.000 C 
BRANCH  11  12
ATOM     12  C   UNL     1      -2.323  11.008  18.236  0.00  0.00    +0.000 A 
ATOM     13  C   UNL     1      -1.877  10.160  17.215  0.00  0.00    +0.000 A 
ATOM     14  C   UNL     1      -2.645   9.963  16.067  0.00  0.00    +0.000 A 
ATOM     15  C   UNL     1      -3.862  10.628  15.917  0.00  0.00    +0.000 A 
ATOM     16  C   UNL     1      -4.303  11.472  16.927  0.00  0.00    +0.000 A 
ATOM     17  F   UNL     1      -5.470  12.131  16.777  0.00  0.00    +0.000 F 
ATOM     18  C   UNL     1      -3.550  11.672  18.075  0.00  0.00    +0.000 A 
ENDBRANCH  11  12
ENDBRANCH  10  11
ENDBRANCH   6  10
ENDBRANCH   1   3
BRANCH   1  21
ATOM     19  C   UNL     1       3.177   3.628  19.268  0.00  0.00    +0.000 A 
ATOM     20  C   UNL     1       3.184   4.811  19.969  0.00  0.00    +0.000 A 
ATOM     21  C   UNL     1       1.974   5.222  20.493  0.00  0.00    +0.000 A 
ATOM     22  N   UNL     1       0.852   4.510  20.296  0.00  0.00    +0.000 NA
ATOM     23  C   UNL     1       0.956   3.373  19.600  0.00  0.00    +0.000 A 
ATOM     24  N   UNL     1       2.081   2.872  19.088  0.00  0.00    +0.000 NA
BRANCH  19  25
ATOM     25  O   UNL     1       4.404   3.208  18.761  0.00  0.00    +0.000 OA
BRANCH  25  30
ATOM     26  C   UNL     1       6.631   5.788  17.336  0.00  0.00    +0.000 A 
ATOM     27  C   UNL     1       6.330   5.647  15.975  0.00  0.00    +0.000 A 
ATOM     28  C   UNL     1       5.403   4.683  15.573  0.00  0.00    +0.000 A 
ATOM     29  C   UNL     1       4.767   3.884  16.525  0.00  0.00    +0.000 A 
ATOM     30  C   UNL     1       5.058   4.044  17.884  0.00  0.00    +0.000 A 
ATOM     31  C   UNL     1       6.022   4.969  18.291  0.00  0.00    +0.000 A 
BRANCH  26  33
ATOM     32  O   UNL     1       7.751   7.795  17.030  0.00  0.00    +0.000 OA
ATOM     33  N   UNL     1       7.581   6.818  17.772  0.00  0.00    +0.000 N 
ATOM     34  O   UNL     1       8.159   6.650  18.856  0.00  0.00    +0.000 OA
ENDBRANCH  26  33
ENDBRANCH  25  30
ENDBRANCH  19  25
ENDBRANCH   1  21
TORSDOF 8
ENDMDL
MODEL 2
REMARK VINA RESULT:      -9.4      4.963     10.512
REMARK  Name = 
REMARK  8 active torsions:
REMARK  status: ('A' for Active; 'I' for Inactive)
REMARK    1  A    between atoms: N_2  and  C_4
REMARK    2  A    between atoms: C_8  and  O_9
REMARK    3  A    between atoms: O_9  and  C_10
REMARK    4  A    between atoms: C_12  and  N_13
REMARK    5  A    between atoms: N_13  and  C_14
REMARK    6  A    between atoms: C_17  and  O_18
REMARK    7  A    between atoms: O_18  and  C_19
REMARK    8  A    between atoms: C_19  and  C_20
REMARK                            x       y       z     vdW  Elec       q    Type
REMARK                         _______ _______ _______ _____ _____    ______ ____
ROOT
ATOM      1  N   UNL     1      -1.087  11.472  18.211  0.00  0.00    +0.000 N 
ATOM      2  H   UNL     1      -0.540  12.271  17.917  0.00  0.00    +0.000 HD
ENDROOT
BRANCH   1   3
ATOM      3  C   UNL     1      -0.292  10.429  18.723  0.00  0.00    +0.000 A 
ATOM      4  C   UNL     1       0.564   9.743  17.854  0.00  0.00    +0.000 A 
ATOM      5  C   UNL     1       1.418   8.744  18.324  0.00  0.00    +0.000 A 
ATOM      6  C   UNL     1       1.469   8.440  19.686  0.00  0.00    +0.000 A 
ATOM      7  C   UNL     1       0.557   9.063  20.546  0.00  0.00    +0.000 A 
ATOM      8 CL   UNL     1       0.510   8.683  22.233  0.00  0.00    +0.000 Cl
ATOM      9  C   UNL     1      -0.318  10.045  20.066  0.00  0.00    +0.000 A 
BRANCH   6  10
ATOM     10  O   UNL     1       2.383   7.566  20.227  0.00  0.00    +0.000 OA
BRANCH  10  11
ATOM     11  C   UNL     1       2.958   6.656  19.284  0.00  0.00    +0.000 C 
BRANCH  11  12
ATOM     12  C   UNL     1       2.324   5.286  19.319  0.00  0.00    +0.000 A 
ATOM     13  C   UNL     1       1.903   4.623  18.159  0.00  0.00    +0.000 A 
ATOM     14  C   UNL     1       1.213   3.413  18.242  0.00  0.00    +0.000 A 
ATOM     15  C   UNL     1       0.920   2.859  19.488  0.00  0.00    +0.000 A 
ATOM     16  C   UNL     1       1.335   3.517  20.638  0.00  0.00    +0.000 A 
ATOM     17  F   UNL     1       1.037   2.993  21.845  0.00  0.00    +0.000 F 
ATOM     18  C   UNL     1       2.025   4.718  20.568  0.00  0.00    +0.000 A 
ENDBRANCH  11  12
ENDBRANCH  10  11
ENDBRANCH   6  10
ENDBRANCH   1   3
BRANCH   1  21
ATOM     19  C   UNL     1      -4.609  11.719  17.348  0.00  0.00    +0.000 A 
ATOM     20  C   UNL     1      -3.448  11.857  18.074  0.00  0.00    +0.000 A 
ATOM     21  C   UNL     1      -2.297  11.364  17.491  0.00  0.00    +0.000 A 
ATOM     22  N   UNL     1      -2.328  10.757  16.293  0.00  0.00    +0.000 NA
ATOM     23  C   UNL     1      -3.510  10.676  15.672  0.00  0.00    +0.000 A 
ATOM     24  N   UNL     1      -4.667  11.154  16.132  0.00  0.00    +0.000 NA
BRANCH  19  25
ATOM     25  O   UNL     1      -5.762  12.238  17.932  0.00  0.00    +0.000 OA
BRANCH  25  30
ATOM     26  C   UNL     1      -7.390  11.251  21.098  0.00  0.00    +0.000 A 
ATOM     27  C   UNL     1      -7.609   9.889  20.847  0.00  0.00    +0.000 A 
ATOM     28  C   UNL     1      -7.219   9.345  19.621  0.00  0.00    +0.000 A 
ATOM     29  C   UNL     1      -6.597  10.151  18.665  0.00  0.00    +0.000 A 
ATOM     30  C   UNL     1      -6.364  11.504  18.930  0.00  0.00    +0.000 A 
ATOM     31  C   UNL     1      -6.797  12.068  20.132  0.00  0.00    +0.000 A 
BRANCH  26  33
ATOM     32  O   UNL     1      -7.917  11.048  23.347  0.00  0.00    +0.000 OA
ATOM     33  N   UNL     1      -7.768  11.825  22.394  0.00  0.00    +0.000 N 
ATOM     34  O   UNL     1      -7.916  13.055  22.461  0.00  0.00    +0.000 OA
ENDBRANCH  26  33
ENDBRANCH  25  30
ENDBRANCH  19  25
ENDBRANCH   1  21
TORSDOF 8
ENDMDL
MODEL 3
REMARK VINA RESULT:      -9.3      0.777      1.249
REMARK  Name = 
REMARK  8 active torsions:
REMARK  status: ('A' for Active; 'I' for Inactive)
REMARK    1  A    between atoms: N_2  and  C_4
REMARK    2  A    between atoms: C_8  and  O_9
REMARK    3  A    between atoms: O_9  and  C_10
REMARK    4  A    between atoms: C_12  and  N_13
REMARK    5  A    between atoms: N_13  and  C_14
REMARK    6  A    between atoms: C_17  and  O_18
REMARK    7  A    between atoms: O_18  and  C_19
REMARK    8  A    between atoms: C_19  and  C_20
REMARK                            x       y       z     vdW  Elec       q    Type
REMARK                         _______ _______ _______ _____ _____    ______ ____
ROOT
ATOM      1  N   UNL     1       1.992   6.647  21.199  0.00  0.00    +0.000 N 
ATOM      2  H   UNL     1       1.844   6.539  22.195  0.00  0.00    +0.000 HD
ENDROOT
BRANCH   1   3
ATOM      3  C   UNL     1       1.517   7.879  20.710  0.00  0.00    +0.000 A 
ATOM      4  C   UNL     1       1.602   8.139  19.337  0.00  0.00    +0.000 A 
ATOM      5  C   UNL     1       1.089   9.317  18.794  0.00  0.00    +0.000 A 
ATOM      6  C   UNL     1       0.436  10.246  19.608  0.00  0.00    +0.000 A 
ATOM      7  C   UNL     1       0.422  10.031  20.991  0.00  0.00    +0.000 A 
ATOM      8 CL   UNL     1      -0.303  11.173  22.070  0.00  0.00    +0.000 Cl
ATOM      9  C   UNL     1       0.963   8.860  21.536  0.00  0.00    +0.000 A 
BRANCH   6  10
ATOM     10  O   UNL     1      -0.208  11.356  19.113  0.00  0.00    +0.000 OA
BRANCH  10  11
ATOM     11  C   UNL     1      -1.592  11.441  19.468  0.00  0.00    +0.000 C 
BRANCH  11  12
ATOM     12  C   UNL     1      -2.515  11.403  18.273  0.00  0.00    +0.000 A 
ATOM     13  C   UNL     1      -3.870  11.746  18.359  0.00  0.00    +0.000 A 
ATOM     14  C   UNL     1      -4.716  11.583  17.262  0.00  0.00    +0.000 A 
ATOM     15  C   UNL     1      -4.222  11.055  16.068  0.00  0.00    +0.000 A 
ATOM     16  C   UNL     1      -2.879  10.712  15.984  0.00  0.00    +0.000 A 
ATOM     17  F   UNL     1      -2.402  10.185  14.838  0.00  0.00    +0.000 F 
ATOM     18  C   UNL     1      -2.027  10.874  17.067  0.00  0.00    +0.000 A 
ENDBRANCH  11  12
ENDBRANCH  10  11
ENDBRANCH   6  10
ENDBRANCH   1   3
BRANCH   1  21
ATOM     19  C   UNL     1       3.204   3.772  19.336  0.00  0.00    +0.000 A 
ATOM     20  C   UNL     1       3.220   4.980  19.994  0.00  0.00    +0.000 A 
ATOM     21  C   UNL     1       2.020   5.404  20.530  0.00  0.00    +0.000 A 
ATOM     22  N   UNL     1       0.898   4.680  20.383  0.00  0.00    +0.000 NA
ATOM     23  C   UNL     1       0.993   3.519  19.726  0.00  0.00    +0.000 A 
ATOM     24  N   UNL     1       2.109   3.006  19.207  0.00  0.00    +0.000 NA
BRANCH  19  25
ATOM     25  O   UNL     1       4.422   3.340  18.817  0.00  0.00    +0.000 OA
BRANCH  25  30
ATOM     26  C   UNL     1       6.643   5.881  17.316  0.00  0.00    +0.000 A 
ATOM     27  C   UNL     1       6.311   5.728  15.963  0.00  0.00    +0.000 A 
ATOM     28  C   UNL     1       5.366   4.769  15.591  0.00  0.00    +0.000 A 
ATOM     29  C   UNL     1       4.744   3.987  16.566  0.00  0.00    +0.000 A 
ATOM     30  C   UNL     1       5.065   4.160  17.917  0.00  0.00    +0.000 A 
ATOM     31  C   UNL     1       6.046   5.079  18.293  0.00  0.00    +0.000 A 
BRANCH  26  33
ATOM     32  O   UNL     1       8.185   6.760  18.808  0.00  0.00    +0.000 OA
ATOM     33  N   UNL     1       7.612   6.906  17.720  0.00  0.00    +0.000 N 
ATOM     34  O   UNL     1       7.803   7.858  16.948  0.00  0.00    +0.000 OA
ENDBRANCH  26  33
ENDBRANCH  25  30
ENDBRANCH  19  25
ENDBRANCH   1  21
TORSDOF 8
ENDMDL
MODEL 4
REMARK VINA RESULT:      -9.2      0.908      1.141
REMARK  Name = 
REMARK  8 active torsions:
REMARK  status: ('A' for Active; 'I' for Inactive)
REMARK    1  A    between atoms: N_2  and  C_4
REMARK    2  A    between atoms: C_8  and  O_9
REMARK    3  A    between atoms: O_9  and  C_10
REMARK    4  A    between atoms: C_12  and  N_13
REMARK    5  A    between atoms: N_13  and  C_14
REMARK    6  A    between atoms: C_17  and  O_18
REMARK    7  A    between atoms: O_18  and  C_19
REMARK    8  A    between atoms: C_19  and  C_20
REMARK                            x       y       z     vdW  Elec       q    Type
REMARK                         _______ _______ _______ _____ _____    ______ ____
ROOT
ATOM      1  N   UNL     1       2.526   6.754  20.497  0.00  0.00    +0.000 N 
ATOM      2  H   UNL     1       3.036   6.698  21.369  0.00  0.00    +0.000 HD
ENDROOT
BRANCH   1   3
ATOM      3  C   UNL     1       1.722   7.907  20.411  0.00  0.00    +0.000 A 
ATOM      4  C   UNL     1       1.623   8.572  19.183  0.00  0.00    +0.000 A 
ATOM      5  C   UNL     1       0.791   9.681  19.030  0.00  0.00    +0.000 A 
ATOM      6  C   UNL     1      -0.000  10.124  20.093  0.00  0.00    +0.000 A 
ATOM      7  C   UNL     1       0.157   9.516  21.344  0.00  0.00    +0.000 A 
ATOM      8 CL   UNL     1      -0.732  10.060  22.724  0.00  0.00    +0.000 Cl
ATOM      9  C   UNL     1       1.015   8.421  21.501  0.00  0.00    +0.000 A 
BRANCH   6  10
ATOM     10  O   UNL     1      -0.938  11.122  19.965  0.00  0.00    +0.000 OA
BRANCH  10  11
ATOM     11  C   UNL     1      -1.027  11.684  18.652  0.00  0.00    +0.000 C 
BRANCH  11  12
ATOM     12  C   UNL     1      -2.376  11.476  18.007  0.00  0.00    +0.000 A 
ATOM     13  C   UNL     1      -2.517  11.086  16.669  0.00  0.00    +0.000 A 
ATOM     14  C   UNL     1      -3.778  11.022  16.076  0.00  0.00    +0.000 A 
ATOM     15  C   UNL     1      -4.915  11.365  16.809  0.00  0.00    +0.000 A 
ATOM     16  C   UNL     1      -4.775  11.754  18.134  0.00  0.00    +0.000 A 
ATOM     17  F   UNL     1      -5.870  12.104  18.840  0.00  0.00    +0.000 F 
ATOM     18  C   UNL     1      -3.527  11.818  18.736  0.00  0.00    +0.000 A 
ENDBRANCH  11  12
ENDBRANCH  10  11
ENDBRANCH   6  10
ENDBRANCH   1   3
BRANCH   1  21
ATOM     19  C   UNL     1       2.869   3.736  18.503  0.00  0.00    +0.000 A 
ATOM     20  C   UNL     1       3.163   4.974  19.024  0.00  0.00    +0.000 A 
ATOM     21  C   UNL     1       2.269   5.478  19.949  0.00  0.00    +0.000 A 
ATOM     22  N   UNL     1       1.162   4.799  20.290  0.00  0.00    +0.000 NA
ATOM     23  C   UNL     1       0.973   3.602  19.723  0.00  0.00    +0.000 A 
ATOM     24  N   UNL     1       1.792   3.013  18.851  0.00  0.00    +0.000 NA
BRANCH  19  25
ATOM     25  O   UNL     1       3.785   3.224  17.587  0.00  0.00    +0.000 OA
BRANCH  25  30
ATOM     26  C   UNL     1       6.840   5.296  17.721  0.00  0.00    +0.000 A 
ATOM     27  C   UNL     1       7.000   5.586  16.359  0.00  0.00    +0.000 A 
ATOM     28  C   UNL     1       6.090   5.067  15.435  0.00  0.00    +0.000 A 
ATOM     29  C   UNL     1       5.019   4.285  15.872  0.00  0.00    +0.000 A 
ATOM     30  C   UNL     1       4.855   4.017  17.235  0.00  0.00    +0.000 A 
ATOM     31  C   UNL     1       5.789   4.487  18.160  0.00  0.00    +0.000 A 
BRANCH  26  33
ATOM     32  O   UNL     1       8.150   5.127  19.627  0.00  0.00    +0.000 OA
ATOM     33  N   UNL     1       7.774   5.860  18.702  0.00  0.00    +0.000 N 
ATOM     34  O   UNL     1       8.132   7.037  18.549  0.00  0.00    +0.000 OA
ENDBRANCH  26  33
ENDBRANCH  25  30
ENDBRANCH  19  25
ENDBRANCH   1  21
TORSDOF 8
ENDMDL
MODEL 5
REMARK VINA RESULT:      -9.2      1.383      1.733
REMARK  Name = 
REMARK  8 active torsions:
REMARK  status: ('A' for Active; 'I' for Inactive)
REMARK    1  A    between atoms: N_2  and  C_4
REMARK    2  A    between atoms: C_8  and  O_9
REMARK    3  A    between atoms: O_9  and  C_10
REMARK    4  A    between atoms: C_12  and  N_13
REMARK    5  A    between atoms: N_13  and  C_14
REMARK    6  A    between atoms: C_17  and  O_18
REMARK    7  A    between atoms: O_18  and  C_19
REMARK    8  A    between atoms: C_19  and  C_20
REMARK                            x       y       z     vdW  Elec       q    Type
REMARK                         _______ _______ _______ _____ _____    ______ ____
ROOT
ATOM      1  N   UNL     1       1.773   6.301  21.002  0.00  0.00    +0.000 N 
ATOM      2  H   UNL     1       1.206   6.028  21.795  0.00  0.00    +0.000 HD
ENDROOT
BRANCH   1   3
ATOM      3  C   UNL     1       1.458   7.589  20.528  0.00  0.00    +0.000 A 
ATOM      4  C   UNL     1       1.687   7.887  19.180  0.00  0.00    +0.000 A 
ATOM      5  C   UNL     1       1.333   9.127  18.646  0.00  0.00    +0.000 A 
ATOM      6  C   UNL     1       0.698  10.084  19.441  0.00  0.00    +0.000 A 
ATOM      7  C   UNL     1       0.544   9.824  20.808  0.00  0.00    +0.000 A 
ATOM      8 CL   UNL     1      -0.165  10.992  21.869  0.00  0.00    +0.000 Cl
ATOM      9  C   UNL     1       0.925   8.589  21.345  0.00  0.00    +0.000 A 
BRANCH   6  10
ATOM     10  O   UNL     1       0.204  11.267  18.942  0.00  0.00    +0.000 OA
BRANCH  10  11
ATOM     11  C   UNL     1      -1.181  11.492  19.222  0.00  0.00    +0.000 C 
BRANCH  11  12
ATOM     12  C   UNL     1      -2.091  11.069  18.093  0.00  0.00    +0.000 A 
ATOM     13  C   UNL     1      -1.694  10.154  17.111  0.00  0.00    +0.000 A 
ATOM     14  C   UNL     1      -2.517   9.881  16.018  0.00  0.00    +0.000 A 
ATOM     15  C   UNL     1      -3.743  10.534  15.884  0.00  0.00    +0.000 A 
ATOM     16  C   UNL     1      -4.136  11.443  16.857  0.00  0.00    +0.000 A 
ATOM     17  F   UNL     1      -5.311  12.091  16.721  0.00  0.00    +0.000 F 
ATOM     18  C   UNL     1      -3.327  11.721  17.950  0.00  0.00    +0.000 A 
ENDBRANCH  11  12
ENDBRANCH  10  11
ENDBRANCH   6  10
ENDBRANCH   1   3
BRANCH   1  21
ATOM     19  C   UNL     1       3.953   3.905  19.356  0.00  0.00    +0.000 A 
ATOM     20  C   UNL     1       3.568   4.992  20.105  0.00  0.00    +0.000 A 
ATOM     21  C   UNL     1       2.209   5.186  20.253  0.00  0.00    +0.000 A 
ATOM     22  N   UNL     1       1.320   4.367  19.666  0.00  0.00    +0.000 NA
ATOM     23  C   UNL     1       1.802   3.339  18.959  0.00  0.00    +0.000 A 
ATOM     24  N   UNL     1       3.091   3.045  18.790  0.00  0.00    +0.000 NA
BRANCH  19  25
ATOM     25  O   UNL     1       5.325   3.703  19.229  0.00  0.00    +0.000 OA
BRANCH  25  30
ATOM     26  C   UNL     1       6.744   5.242  16.186  0.00  0.00    +0.000 A 
ATOM     27  C   UNL     1       7.453   6.308  16.758  0.00  0.00    +0.000 A 
ATOM     28  C   UNL     1       7.423   6.488  18.142  0.00  0.00    +0.000 A 
ATOM     29  C   UNL     1       6.708   5.599  18.947  0.00  0.00    +0.000 A 
ATOM     30  C   UNL     1       6.020   4.526  18.371  0.00  0.00    +0.000 A 
ATOM     31  C   UNL     1       6.002   4.368  16.984  0.00  0.00    +0.000 A 
BRANCH  26  33
ATOM     32  O   UNL     1       7.752   5.506  14.114  0.00  0.00    +0.000 OA
ATOM     33  N   UNL     1       6.794   5.026  14.735  0.00  0.00    +0.000 N 
ATOM     34  O   UNL     1       5.875   4.376  14.215  0.00  0.00    +0.000 OA
ENDBRANCH  26  33
ENDBRANCH  25  30
ENDBRANCH  19  25
ENDBRANCH   1  21
TORSDOF 8
ENDMDL
MODEL 6
REMARK VINA RESULT:      -9.0      1.632      2.134
REMARK  Name = 
REMARK  8 active torsions:
REMARK  status: ('A' for Active; 'I' for Inactive)
REMARK    1  A    between atoms: N_2  and  C_4
REMARK    2  A    between atoms: C_8  and  O_9
REMARK    3  A    between atoms: O_9  and  C_10
REMARK    4  A    between atoms: C_12  and  N_13
REMARK    5  A    between atoms: N_13  and  C_14
REMARK    6  A    between atoms: C_17  and  O_18
REMARK    7  A    between atoms: O_18  and  C_19
REMARK    8  A    between atoms: C_19  and  C_20
REMARK                            x       y       z     vdW  Elec       q    Type
REMARK                         _______ _______ _______ _____ _____    ______ ____
ROOT
ATOM      1  N   UNL     1       1.697   6.239  21.258  0.00  0.00    +0.000 N 
ATOM      2  H   UNL     1       1.279   6.001  22.148  0.00  0.00    +0.000 HD
ENDROOT
BRANCH   1   3
ATOM      3  C   UNL     1       1.222   7.462  20.745  0.00  0.00    +0.000 A 
ATOM      4  C   UNL     1       0.221   8.145  21.445  0.00  0.00    +0.000 A 
ATOM      5  C   UNL     1      -0.238   9.390  21.013  0.00  0.00    +0.000 A 
ATOM      6  C   UNL     1       0.328  10.003  19.893  0.00  0.00    +0.000 A 
ATOM      7  C   UNL     1       1.269   9.288  19.142  0.00  0.00    +0.000 A 
ATOM      8 CL   UNL     1       1.959   9.952  17.701  0.00  0.00    +0.000 Cl
ATOM      9  C   UNL     1       1.707   8.027  19.563  0.00  0.00    +0.000 A 
BRANCH   6  10
ATOM     10  O   UNL     1       0.015  11.283  19.499  0.00  0.00    +0.000 OA
BRANCH  10  11
ATOM     11  C   UNL     1      -1.371  11.616  19.623  0.00  0.00    +0.000 C 
BRANCH  11  12
ATOM     12  C   UNL     1      -2.191  11.194  18.426  0.00  0.00    +0.000 A 
ATOM     13  C   UNL     1      -1.674  10.380  17.411  0.00  0.00    +0.000 A 
ATOM     14  C   UNL     1      -2.423  10.112  16.264  0.00  0.00    +0.000 A 
ATOM     15  C   UNL     1      -3.692  10.670  16.110  0.00  0.00    +0.000 A 
ATOM     16  C   UNL     1      -4.204  11.479  17.116  0.00  0.00    +0.000 A 
ATOM     17  F   UNL     1      -5.423  12.035  16.962  0.00  0.00    +0.000 F 
ATOM     18  C   UNL     1      -3.471  11.750  18.262  0.00  0.00    +0.000 A 
ENDBRANCH  11  12
ENDBRANCH  10  11
ENDBRANCH   6  10
ENDBRANCH   1   3
BRANCH   1  21
ATOM     19  C   UNL     1       3.787   3.759  19.619  0.00  0.00    +0.000 A 
ATOM     20  C   UNL     1       3.443   4.877  20.342  0.00  0.00    +0.000 A 
ATOM     21  C   UNL     1       2.092   5.092  20.534  0.00  0.00    +0.000 A 
ATOM     22  N   UNL     1       1.173   4.263  20.013  0.00  0.00    +0.000 NA
ATOM     23  C   UNL     1       1.617   3.204  19.326  0.00  0.00    +0.000 A 
ATOM     24  N   UNL     1       2.895   2.889  19.118  0.00  0.00    +0.000 NA
BRANCH  19  25
ATOM     25  O   UNL     1       5.151   3.536  19.447  0.00  0.00    +0.000 OA
BRANCH  25  30
ATOM     26  C   UNL     1       6.431   5.061  16.335  0.00  0.00    +0.000 A 
ATOM     27  C   UNL     1       7.236   6.075  16.872  0.00  0.00    +0.000 A 
ATOM     28  C   UNL     1       7.314   6.228  18.258  0.00  0.00    +0.000 A 
ATOM     29  C   UNL     1       6.612   5.361  19.098  0.00  0.00    +0.000 A 
ATOM     30  C   UNL     1       5.827   4.339  18.555  0.00  0.00    +0.000 A 
ATOM     31  C   UNL     1       5.701   4.211  17.171  0.00  0.00    +0.000 A 
BRANCH  26  33
ATOM     32  O   UNL     1       6.445   3.715  14.447  0.00  0.00    +0.000 OA
ATOM     33  N   UNL     1       6.365   4.872  14.881  0.00  0.00    +0.000 N 
ATOM     34  O   UNL     1       6.233   5.881  14.173  0.00  0.00    +0.000 OA
ENDBRANCH  26  33
ENDBRANCH  25  30
ENDBRANCH  19  25
ENDBRANCH   1  21
TORSDOF 8
ENDMDL
MODEL 7
REMARK VINA RESULT:      -8.9      3.079      3.836
REMARK  Name = 
REMARK  8 active torsions:
REMARK  status: ('A' for Active; 'I' for Inactive)
REMARK    1  A    between atoms: N_2  and  C_4
REMARK    2  A    between atoms: C_8  and  O_9
REMARK    3  A    between atoms: O_9  and  C_10
REMARK    4  A    between atoms: C_12  and  N_13
REMARK    5  A    between atoms: N_13  and  C_14
REMARK    6  A    between atoms: C_17  and  O_18
REMARK    7  A    between atoms: O_18  and  C_19
REMARK    8  A    between atoms: C_19  and  C_20
REMARK                            x       y       z     vdW  Elec       q    Type
REMARK                         _______ _______ _______ _____ _____    ______ ____
ROOT
ATOM      1  N   UNL     1       1.667   6.195  20.957  0.00  0.00    +0.000 N 
ATOM      2  H   UNL     1       0.980   5.945  21.656  0.00  0.00    +0.000 HD
ENDROOT
BRANCH   1   3
ATOM      3  C   UNL     1       1.511   7.514  20.489  0.00  0.00    +0.000 A 
ATOM      4  C   UNL     1       1.907   7.819  19.182  0.00  0.00    +0.000 A 
ATOM      5  C   UNL     1       1.715   9.095  18.650  0.00  0.00    +0.000 A 
ATOM      6  C   UNL     1       1.078  10.085  19.400  0.00  0.00    +0.000 A 
ATOM      7  C   UNL     1       0.756   9.812  20.735  0.00  0.00    +0.000 A 
ATOM      8 CL   UNL     1       0.033  11.013  21.749  0.00  0.00    +0.000 Cl
ATOM      9  C   UNL     1       0.976   8.539  21.274  0.00  0.00    +0.000 A 
BRANCH   6  10
ATOM     10  O   UNL     1       0.738  11.315  18.886  0.00  0.00    +0.000 OA
BRANCH  10  11
ATOM     11  C   UNL     1       1.854  12.105  18.463  0.00  0.00    +0.000 C 
BRANCH  11  12
ATOM     12  C   UNL     1       1.631  13.589  18.638  0.00  0.00    +0.000 A 
ATOM     13  C   UNL     1       0.425  14.116  19.118  0.00  0.00    +0.000 A 
ATOM     14  C   UNL     1       0.215  15.494  19.152  0.00  0.00    +0.000 A 
ATOM     15  C   UNL     1       1.202  16.365  18.688  0.00  0.00    +0.000 A 
ATOM     16  C   UNL     1       2.395  15.843  18.209  0.00  0.00    +0.000 A 
ATOM     17  F   UNL     1       3.345  16.680  17.743  0.00  0.00    +0.000 F 
ATOM     18  C   UNL     1       2.618  14.474  18.174  0.00  0.00    +0.000 A 
ENDBRANCH  11  12
ENDBRANCH  10  11
ENDBRANCH   6  10
ENDBRANCH   1   3
BRANCH   1  21
ATOM     19  C   UNL     1       3.891   3.790  19.384  0.00  0.00    +0.000 A 
ATOM     20  C   UNL     1       3.486   4.888  20.107  0.00  0.00    +0.000 A 
ATOM     21  C   UNL     1       2.124   5.070  20.235  0.00  0.00    +0.000 A 
ATOM     22  N   UNL     1       1.250   4.230  19.655  0.00  0.00    +0.000 NA
ATOM     23  C   UNL     1       1.751   3.193  18.975  0.00  0.00    +0.000 A 
ATOM     24  N   UNL     1       3.045   2.909  18.826  0.00  0.00    +0.000 NA
BRANCH  19  25
ATOM     25  O   UNL     1       5.266   3.599  19.276  0.00  0.00    +0.000 OA
BRANCH  25  30
ATOM     26  C   UNL     1       6.647   5.174  16.233  0.00  0.00    +0.000 A 
ATOM     27  C   UNL     1       7.412   6.196  16.812  0.00  0.00    +0.000 A 
ATOM     28  C   UNL     1       7.431   6.338  18.201  0.00  0.00    +0.000 A 
ATOM     29  C   UNL     1       6.709   5.452  19.003  0.00  0.00    +0.000 A 
ATOM     30  C   UNL     1       5.965   4.422  18.420  0.00  0.00    +0.000 A 
ATOM     31  C   UNL     1       5.898   4.304  17.031  0.00  0.00    +0.000 A 
BRANCH  26  33
ATOM     32  O   UNL     1       5.645   4.480  14.261  0.00  0.00    +0.000 OA
ATOM     33  N   UNL     1       6.644   4.998  14.776  0.00  0.00    +0.000 N 
ATOM     34  O   UNL     1       7.642   5.380  14.146  0.00  0.00    +0.000 OA
ENDBRANCH  26  33
ENDBRANCH  25  30
ENDBRANCH  19  25
ENDBRANCH   1  21
TORSDOF 8
ENDMDL
MODEL 8
REMARK VINA RESULT:      -8.8      4.695     10.378
REMARK  Name = 
REMARK  8 active torsions:
REMARK  status: ('A' for Active; 'I' for Inactive)
REMARK    1  A    between atoms: N_2  and  C_4
REMARK    2  A    between atoms: C_8  and  O_9
REMARK    3  A    between atoms: O_9  and  C_10
REMARK    4  A    between atoms: C_12  and  N_13
REMARK    5  A    between atoms: N_13  and  C_14
REMARK    6  A    between atoms: C_17  and  O_18
REMARK    7  A    between atoms: O_18  and  C_19
REMARK    8  A    between atoms: C_19  and  C_20
REMARK                            x       y       z     vdW  Elec       q    Type
REMARK                         _______ _______ _______ _____ _____    ______ ____
ROOT
ATOM      1  N   UNL     1       1.669   7.734  21.252  0.00  0.00    +0.000 N 
ATOM      2  H   UNL     1       2.473   7.856  21.854  0.00  0.00    +0.000 HD
ENDROOT
BRANCH   1   3
ATOM      3  C   UNL     1       1.874   6.750  20.265  0.00  0.00    +0.000 A 
ATOM      4  C   UNL     1       2.396   7.136  19.025  0.00  0.00    +0.000 A 
ATOM      5  C   UNL     1       2.678   6.192  18.036  0.00  0.00    +0.000 A 
ATOM      6  C   UNL     1       2.487   4.831  18.284  0.00  0.00    +0.000 A 
ATOM      7  C   UNL     1       1.887   4.446  19.489  0.00  0.00    +0.000 A 
ATOM      8 CL   UNL     1       1.551   2.785  19.835  0.00  0.00    +0.000 Cl
ATOM      9  C   UNL     1       1.580   5.399  20.468  0.00  0.00    +0.000 A 
BRANCH   6  10
ATOM     10  O   UNL     1       2.873   3.846  17.404  0.00  0.00    +0.000 OA
BRANCH  10  11
ATOM     11  C   UNL     1       4.167   3.295  17.667  0.00  0.00    +0.000 C 
BRANCH  11  12
ATOM     12  C   UNL     1       5.270   4.326  17.631  0.00  0.00    +0.000 A 
ATOM     13  C   UNL     1       5.744   4.878  16.435  0.00  0.00    +0.000 A 
ATOM     14  C   UNL     1       6.843   5.737  16.434  0.00  0.00    +0.000 A 
ATOM     15  C   UNL     1       7.496   6.040  17.629  0.00  0.00    +0.000 A 
ATOM     16  C   UNL     1       7.028   5.491  18.815  0.00  0.00    +0.000 A 
ATOM     17  F   UNL     1       7.667   5.767  19.970  0.00  0.00    +0.000 F 
ATOM     18  C   UNL     1       5.933   4.639  18.829  0.00  0.00    +0.000 A 
ENDBRANCH  11  12
ENDBRANCH  10  11
ENDBRANCH   6  10
ENDBRANCH   1   3
BRANCH   1  21
ATOM     19  C   UNL     1      -0.280  10.658  22.179  0.00  0.00    +0.000 A 
ATOM     20  C   UNL     1       0.484   9.522  22.319  0.00  0.00    +0.000 A 
ATOM     21  C   UNL     1       0.897   8.912  21.151  0.00  0.00    +0.000 A 
ATOM     22  N   UNL     1       0.540   9.394  19.949  0.00  0.00    +0.000 NA
ATOM     23  C   UNL     1      -0.204  10.506  19.926  0.00  0.00    +0.000 A 
ATOM     24  N   UNL     1      -0.620  11.188  20.993  0.00  0.00    +0.000 NA
BRANCH  19  25
ATOM     25  O   UNL     1      -0.674  11.281  23.360  0.00  0.00    +0.000 OA
BRANCH  25  30
ATOM     26  C   UNL     1      -3.855  13.159  23.361  0.00  0.00    +0.000 A 
ATOM     27  C   UNL     1      -3.377  14.451  23.108  0.00  0.00    +0.000 A 
ATOM     28  C   UNL     1      -2.004  14.659  22.960  0.00  0.00    +0.000 A 
ATOM     29  C   UNL     1      -1.121  13.580  23.043  0.00  0.00    +0.000 A 
ATOM     30  C   UNL     1      -1.607  12.290  23.275  0.00  0.00    +0.000 A 
ATOM     31  C   UNL     1      -2.973  12.081  23.476  0.00  0.00    +0.000 A 
BRANCH  26  33
ATOM     32  O   UNL     1      -6.050  13.529  22.711  0.00  0.00    +0.000 OA
ATOM     33  N   UNL     1      -5.298  12.925  23.488  0.00  0.00    +0.000 N 
ATOM     34  O   UNL     1      -5.682  12.137  24.366  0.00  0.00    +0.000 OA
ENDBRANCH  26  33
ENDBRANCH  25  30
ENDBRANCH  19  25
ENDBRANCH   1  21
TORSDOF 8
ENDMDL
MODEL 9
REMARK VINA RESULT:      -8.8      2.785      3.906
REMARK  Name = 
REMARK  8 active torsions:
REMARK  status: ('A' for Active; 'I' for Inactive)
REMARK    1  A    between atoms: N_2  and  C_4
REMARK    2  A    between atoms: C_8  and  O_9
REMARK    3  A    between atoms: O_9  and  C_10
REMARK    4  A    between atoms: C_12  and  N_13
REMARK    5  A    between atoms: N_13  and  C_14
REMARK    6  A    between atoms: C_17  and  O_18
REMARK    7  A    between atoms: O_18  and  C_19
REMARK    8  A    between atoms: C_19  and  C_20
REMARK                            x       y       z     vdW  Elec       q    Type
REMARK                         _______ _______ _______ _____ _____    ______ ____
ROOT
ATOM      1  N   UNL     1       1.957   8.834  17.734  0.00  0.00    +0.000 N 
ATOM      2  H   UNL     1       2.727   9.037  17.109  0.00  0.00    +0.000 HD
ENDROOT
BRANCH   1   3
ATOM      3  C   UNL     1       1.237   9.987  18.101  0.00  0.00    +0.000 A 
ATOM      4  C   UNL     1       1.943  11.155  18.409  0.00  0.00    +0.000 A 
ATOM      5  C   UNL     1       1.274  12.341  18.717  0.00  0.00    +0.000 A 
ATOM      6  C   UNL     1      -0.121  12.397  18.676  0.00  0.00    +0.000 A 
ATOM      7  C   UNL     1      -0.833  11.213  18.451  0.00  0.00    +0.000 A 
ATOM      8 CL   UNL     1      -2.563  11.190  18.461  0.00  0.00    +0.000 Cl
ATOM      9  C   UNL     1      -0.159  10.019  18.171  0.00  0.00    +0.000 A 
BRANCH   6  10
ATOM     10  O   UNL     1      -0.830  13.565  18.834  0.00  0.00    +0.000 OA
BRANCH  10  11
ATOM     11  C   UNL     1      -0.642  14.202  20.102  0.00  0.00    +0.000 C 
BRANCH  11  12
ATOM     12  C   UNL     1      -1.291  13.455  21.244  0.00  0.00    +0.000 A 
ATOM     13  C   UNL     1      -0.576  12.580  22.071  0.00  0.00    +0.000 A 
ATOM     14  C   UNL     1      -1.233  11.818  23.037  0.00  0.00    +0.000 A 
ATOM     15  C   UNL     1      -2.619  11.906  23.175  0.00  0.00    +0.000 A 
ATOM     16  C   UNL     1      -3.328  12.771  22.353  0.00  0.00    +0.000 A 
ATOM     17  F   UNL     1      -4.670  12.845  22.470  0.00  0.00    +0.000 F 
ATOM     18  C   UNL     1      -2.685  13.537  21.391  0.00  0.00    +0.000 A 
ENDBRANCH  11  12
ENDBRANCH  10  11
ENDBRANCH   6  10
ENDBRANCH   1   3
BRANCH   1  21
ATOM     19  C   UNL     1       2.948   5.467  18.676  0.00  0.00    +0.000 A 
ATOM     20  C   UNL     1       2.746   6.576  17.889  0.00  0.00    +0.000 A 
ATOM     21  C   UNL     1       2.196   7.679  18.512  0.00  0.00    +0.000 A 
ATOM     22  N   UNL     1       1.853   7.647  19.810  0.00  0.00    +0.000 NA
ATOM     23  C   UNL     1       2.094   6.517  20.484  0.00  0.00    +0.000 A 
ATOM     24  N   UNL     1       2.654   5.415  19.985  0.00  0.00    +0.000 NA
BRANCH  19  25
ATOM     25  O   UNL     1       3.523   4.366  18.047  0.00  0.00    +0.000 OA
BRANCH  25  30
ATOM     26  C   UNL     1       6.501   4.644  15.878  0.00  0.00    +0.000 A 
ATOM     27  C   UNL     1       7.502   4.770  16.851  0.00  0.00    +0.000 A 
ATOM     28  C   UNL     1       7.150   4.774  18.202  0.00  0.00    +0.000 A 
ATOM     29  C   UNL     1       5.812   4.631  18.576  0.00  0.00    +0.000 A 
ATOM     30  C   UNL     1       4.821   4.484  17.601  0.00  0.00    +0.000 A 
ATOM     31  C   UNL     1       5.157   4.532  16.246  0.00  0.00    +0.000 A 
BRANCH  26  33
ATOM     32  O   UNL     1       7.735   5.396  14.065  0.00  0.00    +0.000 OA
ATOM     33  N   UNL     1       6.864   4.608  14.457  0.00  0.00    +0.000 N 
ATOM     34  O   UNL     1       6.278   3.791  13.731  0.00  0.00    +0.000 OA
ENDBRANCH  26  33
ENDBRANCH  25  30
ENDBRANCH  19  25
ENDBRANCH   1  21
TORSDOF 8
ENDMDL
