MODEL 1
REMARK VINA RESULT:      -7.5      0.000      0.000
REMARK  Name = 
REMARK  8 active torsions:
REMARK  status: ('A' for Active; 'I' for Inactive)
REMARK    1  A    between atoms: C_1  and  C_2
REMARK    2  A    between atoms: C_2  and  C_3
REMARK    3  A    between atoms: C_2  and  C_4
REMARK    4  A    between atoms: C_8  and  C_9
REMARK    5  A    between atoms: C_9  and  N_10
REMARK    6  A    between atoms: N_10  and  C_11
REMARK    7  A    between atoms: C_16  and  S_17
REMARK    8  A    between atoms: S_17  and  C_18
REMARK                            x       y       z     vdW  Elec       q    Type
REMARK                         _______ _______ _______ _____ _____    ______ ____
ROOT
ATOM      1  N   UNL     1       4.045   3.924  17.929  0.00  0.00    +0.000 N 
ATOM      2  H   UNL     1       4.955   3.679  18.342  0.00  0.00    +0.000 HD
ENDROOT
BRANCH   1   3
ATOM      3  C   UNL     1       3.341   4.806  18.762  0.00  0.00    +0.000 A 
ATOM      4  C   UNL     1       3.289   6.186  18.475  0.00  0.00    +0.000 A 
ATOM      5  C   UNL     1       2.537   7.080  19.241  0.00  0.00    +0.000 A 
ATOM      6  C   UNL     1       1.775   6.613  20.303  0.00  0.00    +0.000 A 
ATOM      7  C   UNL     1       1.765   5.249  20.591  0.00  0.00    +0.000 A 
ATOM      8  C   UNL     1       2.523   4.355  19.820  0.00  0.00    +0.000 A 
BRANCH   8   9
ATOM      9  S   UNL     1       2.521   2.644  20.332  0.00  0.00    +0.000 S 
ATOM     10  C   UNL     1       1.522   2.611  21.795  0.00  0.00    +0.000 C 
ATOM     11  O   UNL     1       1.835   1.870  19.310  0.00  0.00    +0.000 OA
ATOM     12  O   UNL     1       3.878   2.299  20.717  0.00  0.00    +0.000 OA
ENDBRANCH   8   9
ENDBRANCH   1   3
BRANCH   1  13
ATOM     13  C   UNL     1       4.220   4.306  16.527  0.00  0.00    +0.000 C 
BRANCH  13  18
ATOM     14  C   UNL     1       6.286   5.734  16.285  0.00  0.00    +0.000 C 
ATOM     15  O   UNL     1       7.304   5.842  15.279  0.00  0.00    +0.000 OA
ATOM     16  C   UNL     1       7.251   4.695  14.425  0.00  0.00    +0.000 C 
ATOM     17  C   UNL     1       5.993   3.930  14.753  0.00  0.00    +0.000 C 
ATOM     18  C   UNL     1       5.707   4.323  16.189  0.00  0.00    +0.000 C 
BRANCH  14  20
ATOM     19  C   UNL     1       7.734   5.018  18.291  0.00  0.00    +0.000 C 
ATOM     20  C   UNL     1       6.844   6.105  17.677  0.00  0.00    +0.000 C 
ATOM     21  C   UNL     1       7.643   7.409  17.596  0.00  0.00    +0.000 C 
ENDBRANCH  14  20
ENDBRANCH  13  18
ENDBRANCH   1  13
TORSDOF 5
ENDMDL
MODEL 2
REMARK VINA RESULT:      -7.0      1.050      2.124
REMARK  Name = 
REMARK  8 active torsions:
REMARK  status: ('A' for Active; 'I' for Inactive)
REMARK    1  A    between atoms: C_1  and  C_2
REMARK    2  A    between atoms: C_2  and  C_3
REMARK    3  A    between atoms: C_2  and  C_4
REMARK    4  A    between atoms: C_8  and  C_9
REMARK    5  A    between atoms: C_9  and  N_10
REMARK    6  A    between atoms: N_10  and  C_11
REMARK    7  A    between atoms: C_16  and  S_17
REMARK    8  A    between atoms: S_17  and  C_18
REMARK                            x       y       z     vdW  Elec       q    Type
REMARK                         _______ _______ _______ _____ _____    ______ ____
ROOT
ATOM      1  N   UNL     1       3.080   4.083  17.280  0.00  0.00    +0.000 N 
ATOM      2  H   UNL     1       2.358   3.354  17.191  0.00  0.00    +0.000 HD
ENDROOT
BRANCH   1   3
ATOM      3  C   UNL     1       2.761   4.978  18.311  0.00  0.00    +0.000 A 
ATOM      4  C   UNL     1       2.760   6.371  18.086  0.00  0.00    +0.000 A 
ATOM      5  C   UNL     1       2.375   7.285  19.070  0.00  0.00    +0.000 A 
ATOM      6  C   UNL     1       1.937   6.831  20.306  0.00  0.00    +0.000 A 
ATOM      7  C   UNL     1       1.881   5.460  20.551  0.00  0.00    +0.000 A 
ATOM      8  C   UNL     1       2.270   4.546  19.562  0.00  0.00    +0.000 A 
BRANCH   8   9
ATOM      9  S   UNL     1       2.256   2.816  20.010  0.00  0.00    +0.000 S 
ATOM     10  C   UNL     1       1.439   2.764  21.581  0.00  0.00    +0.000 C 
ATOM     11  O   UNL     1       1.420   2.111  19.053  0.00  0.00    +0.000 OA
ATOM     12  O   UNL     1       3.633   2.405  20.214  0.00  0.00    +0.000 OA
ENDBRANCH   8   9
ENDBRANCH   1   3
BRANCH   1  13
ATOM     13  C   UNL     1       4.408   3.468  17.300  0.00  0.00    +0.000 C 
BRANCH  13  18
ATOM     14  C   UNL     1       6.598   4.320  16.379  0.00  0.00    +0.000 C 
ATOM     15  O   UNL     1       7.810   4.796  16.985  0.00  0.00    +0.000 OA
ATOM     16  C   UNL     1       7.563   5.106  18.360  0.00  0.00    +0.000 C 
ATOM     17  C   UNL     1       6.192   4.585  18.715  0.00  0.00    +0.000 C 
ATOM     18  C   UNL     1       5.470   4.560  17.382  0.00  0.00    +0.000 C 
BRANCH  14  20
ATOM     19  C   UNL     1       5.924   3.984  13.917  0.00  0.00    +0.000 C 
ATOM     20  C   UNL     1       6.378   4.973  14.997  0.00  0.00    +0.000 C 
ATOM     21  C   UNL     1       5.345   6.098  15.102  0.00  0.00    +0.000 C 
ENDBRANCH  14  20
ENDBRANCH  13  18
ENDBRANCH   1  13
TORSDOF 5
ENDMDL
MODEL 3
REMARK VINA RESULT:      -6.9      1.990      2.776
REMARK  Name = 
REMARK  8 active torsions:
REMARK  status: ('A' for Active; 'I' for Inactive)
REMARK    1  A    between atoms: C_1  and  C_2
REMARK    2  A    between atoms: C_2  and  C_3
REMARK    3  A    between atoms: C_2  and  C_4
REMARK    4  A    between atoms: C_8  and  C_9
REMARK    5  A    between atoms: C_9  and  N_10
REMARK    6  A    between atoms: N_10  and  C_11
REMARK    7  A    between atoms: C_16  and  S_17
REMARK    8  A    between atoms: S_17  and  C_18
REMARK                            x       y       z     vdW  Elec       q    Type
REMARK                         _______ _______ _______ _____ _____    ______ ____
ROOT
ATOM      1  N   UNL     1       4.364   3.353  17.652  0.00  0.00    +0.000 N 
ATOM      2  H   UNL     1       5.005   3.888  18.255  0.00  0.00    +0.000 HD
ENDROOT
BRANCH   1   3
ATOM      3  C   UNL     1       3.092   3.260  18.237  0.00  0.00    +0.000 A 
ATOM      4  C   UNL     1       2.379   2.044  18.228  0.00  0.00    +0.000 A 
ATOM      5  C   UNL     1       1.144   1.898  18.866  0.00  0.00    +0.000 A 
ATOM      6  C   UNL     1       0.598   2.960  19.571  0.00  0.00    +0.000 A 
ATOM      7  C   UNL     1       1.294   4.166  19.641  0.00  0.00    +0.000 A 
ATOM      8  C   UNL     1       2.532   4.309  18.998  0.00  0.00    +0.000 A 
BRANCH   8   9
ATOM      9  S   UNL     1       3.295   5.923  19.064  0.00  0.00    +0.000 S 
ATOM     10  C   UNL     1       2.241   6.878  20.120  0.00  0.00    +0.000 C 
ATOM     11  O   UNL     1       4.581   5.786  19.727  0.00  0.00    +0.000 OA
ATOM     12  O   UNL     1       3.222   6.497  17.732  0.00  0.00    +0.000 OA
ENDBRANCH   8   9
ENDBRANCH   1   3
BRANCH   1  13
ATOM     13  C   UNL     1       4.446   3.845  16.277  0.00  0.00    +0.000 C 
BRANCH  13  18
ATOM     14  C   UNL     1       6.333   5.514  16.120  0.00  0.00    +0.000 C 
ATOM     15  O   UNL     1       7.294   5.830  15.102  0.00  0.00    +0.000 OA
ATOM     16  C   UNL     1       7.335   4.769  14.143  0.00  0.00    +0.000 C 
ATOM     17  C   UNL     1       6.182   3.839  14.429  0.00  0.00    +0.000 C 
ATOM     18  C   UNL     1       5.908   4.062  15.902  0.00  0.00    +0.000 C 
BRANCH  14  20
ATOM     19  C   UNL     1       7.865   4.741  18.040  0.00  0.00    +0.000 C 
ATOM     20  C   UNL     1       6.898   5.814  17.526  0.00  0.00    +0.000 C 
ATOM     21  C   UNL     1       7.614   7.168  17.530  0.00  0.00    +0.000 C 
ENDBRANCH  14  20
ENDBRANCH  13  18
ENDBRANCH   1  13
TORSDOF 5
ENDMDL
MODEL 4
REMARK VINA RESULT:      -6.9      0.766      1.109
REMARK  Name = 
REMARK  8 active torsions:
REMARK  status: ('A' for Active; 'I' for Inactive)
REMARK    1  A    between atoms: C_1  and  C_2
REMARK    2  A    between atoms: C_2  and  C_3
REMARK    3  A    between atoms: C_2  and  C_4
REMARK    4  A    between atoms: C_8  and  C_9
REMARK    5  A    between atoms: C_9  and  N_10
REMARK    6  A    between atoms: N_10  and  C_11
REMARK    7  A    between atoms: C_16  and  S_17
REMARK    8  A    between atoms: S_17  and  C_18
REMARK                            x       y       z     vdW  Elec       q    Type
REMARK                         _______ _______ _______ _____ _____    ______ ____
ROOT
ATOM      1  N   UNL     1       3.968   4.195  17.972  0.00  0.00    +0.000 N 
ATOM      2  H   UNL     1       3.505   3.283  17.851  0.00  0.00    +0.000 HD
ENDROOT
BRANCH   1   3
ATOM      3  C   UNL     1       3.245   5.007  18.859  0.00  0.00    +0.000 A 
ATOM      4  C   UNL     1       3.163   6.401  18.660  0.00  0.00    +0.000 A 
ATOM      5  C   UNL     1       2.391   7.227  19.481  0.00  0.00    +0.000 A 
ATOM      6  C   UNL     1       1.640   6.677  20.509  0.00  0.00    +0.000 A 
ATOM      7  C   UNL     1       1.660   5.297  20.710  0.00  0.00    +0.000 A 
ATOM      8  C   UNL     1       2.438   4.471  19.885  0.00  0.00    +0.000 A 
BRANCH   8   9
ATOM      9  S   UNL     1       2.473   2.731  20.287  0.00  0.00    +0.000 S 
ATOM     10  C   UNL     1       1.422   2.574  21.704  0.00  0.00    +0.000 C 
ATOM     11  O   UNL     1       1.853   2.004  19.192  0.00  0.00    +0.000 OA
ATOM     12  O   UNL     1       3.826   2.404  20.703  0.00  0.00    +0.000 OA
ENDBRANCH   8   9
ENDBRANCH   1   3
BRANCH   1  13
ATOM     13  C   UNL     1       5.393   3.998  18.239  0.00  0.00    +0.000 C 
BRANCH  13  18
ATOM     14  C   UNL     1       6.363   5.908  16.904  0.00  0.00    +0.000 C 
ATOM     15  O   UNL     1       6.365   6.240  15.507  0.00  0.00    +0.000 OA
ATOM     16  C   UNL     1       5.997   5.087  14.744  0.00  0.00    +0.000 C 
ATOM     17  C   UNL     1       5.508   4.032  15.705  0.00  0.00    +0.000 C 
ATOM     18  C   UNL     1       6.199   4.392  17.005  0.00  0.00    +0.000 C 
BRANCH  14  20
ATOM     19  C   UNL     1       7.717   7.997  17.565  0.00  0.00    +0.000 C 
ATOM     20  C   UNL     1       7.619   6.467  17.607  0.00  0.00    +0.000 C 
ATOM     21  C   UNL     1       7.655   6.010  19.068  0.00  0.00    +0.000 C 
ENDBRANCH  14  20
ENDBRANCH  13  18
ENDBRANCH   1  13
TORSDOF 5
ENDMDL
MODEL 5
REMARK VINA RESULT:      -6.9      2.141      5.878
REMARK  Name = 
REMARK  8 active torsions:
REMARK  status: ('A' for Active; 'I' for Inactive)
REMARK    1  A    between atoms: C_1  and  C_2
REMARK    2  A    between atoms: C_2  and  C_3
REMARK    3  A    between atoms: C_2  and  C_4
REMARK    4  A    between atoms: C_8  and  C_9
REMARK    5  A    between atoms: C_9  and  N_10
REMARK    6  A    between atoms: N_10  and  C_11
REMARK    7  A    between atoms: C_16  and  S_17
REMARK    8  A    between atoms: S_17  and  C_18
REMARK                            x       y       z     vdW  Elec       q    Type
REMARK                         _______ _______ _______ _____ _____    ______ ____
ROOT
ATOM      1  N   UNL     1       5.235   3.650  18.136  0.00  0.00    +0.000 N 
ATOM      2  H   UNL     1       4.558   3.776  17.370  0.00  0.00    +0.000 HD
ENDROOT
BRANCH   1   3
ATOM      3  C   UNL     1       6.095   4.754  18.228  0.00  0.00    +0.000 A 
ATOM      4  C   UNL     1       6.807   5.020  19.416  0.00  0.00    +0.000 A 
ATOM      5  C   UNL     1       7.727   6.066  19.516  0.00  0.00    +0.000 A 
ATOM      6  C   UNL     1       7.996   6.862  18.412  0.00  0.00    +0.000 A 
ATOM      7  C   UNL     1       7.345   6.603  17.206  0.00  0.00    +0.000 A 
ATOM      8  C   UNL     1       6.421   5.552  17.110  0.00  0.00    +0.000 A 
BRANCH   8   9
ATOM      9  S   UNL     1       5.569   5.366  15.551  0.00  0.00    +0.000 S 
ATOM     10  C   UNL     1       6.810   4.792  14.424  0.00  0.00    +0.000 C 
ATOM     11  O   UNL     1       4.583   4.309  15.701  0.00  0.00    +0.000 OA
ATOM     12  O   UNL     1       5.156   6.688  15.116  0.00  0.00    +0.000 OA
ENDBRANCH   8   9
ENDBRANCH   1   3
BRANCH   1  13
ATOM     13  C   UNL     1       4.539   3.227  19.351  0.00  0.00    +0.000 C 
BRANCH  13  18
ATOM     14  C   UNL     1       2.747   4.796  20.188  0.00  0.00    +0.000 C 
ATOM     15  O   UNL     1       1.403   4.606  20.656  0.00  0.00    +0.000 OA
ATOM     16  C   UNL     1       0.946   3.307  20.269  0.00  0.00    +0.000 C 
ATOM     17  C   UNL     1       2.128   2.538  19.735  0.00  0.00    +0.000 C 
ATOM     18  C   UNL     1       3.069   3.626  19.259  0.00  0.00    +0.000 C 
BRANCH  14  20
ATOM     19  C   UNL     1       2.637   6.213  18.041  0.00  0.00    +0.000 C 
ATOM     20  C   UNL     1       2.918   6.191  19.548  0.00  0.00    +0.000 C 
ATOM     21  C   UNL     1       2.000   7.205  20.237  0.00  0.00    +0.000 C 
ENDBRANCH  14  20
ENDBRANCH  13  18
ENDBRANCH   1  13
TORSDOF 5
ENDMDL
MODEL 6
REMARK VINA RESULT:      -6.8      1.028      1.322
REMARK  Name = 
REMARK  8 active torsions:
REMARK  status: ('A' for Active; 'I' for Inactive)
REMARK    1  A    between atoms: C_1  and  C_2
REMARK    2  A    between atoms: C_2  and  C_3
REMARK    3  A    between atoms: C_2  and  C_4
REMARK    4  A    between atoms: C_8  and  C_9
REMARK    5  A    between atoms: C_9  and  N_10
REMARK    6  A    between atoms: N_10  and  C_11
REMARK    7  A    between atoms: C_16  and  S_17
REMARK    8  A    between atoms: S_17  and  C_18
REMARK                            x       y       z     vdW  Elec       q    Type
REMARK                         _______ _______ _______ _____ _____    ______ ____
ROOT
ATOM      1  N   UNL     1       4.432   4.343  18.043  0.00  0.00    +0.000 N 
ATOM      2  H   UNL     1       5.409   4.385  18.365  0.00  0.00    +0.000 HD
ENDROOT
BRANCH   1   3
ATOM      3  C   UNL     1       3.591   5.054  18.912  0.00  0.00    +0.000 A 
ATOM      4  C   UNL     1       3.259   6.401  18.656  0.00  0.00    +0.000 A 
ATOM      5  C   UNL     1       2.367   7.115  19.459  0.00  0.00    +0.000 A 
ATOM      6  C   UNL     1       1.743   6.489  20.529  0.00  0.00    +0.000 A 
ATOM      7  C   UNL     1       2.011   5.146  20.788  0.00  0.00    +0.000 A 
ATOM      8  C   UNL     1       2.909   4.433  19.980  0.00  0.00    +0.000 A 
BRANCH   8   9
ATOM      9  S   UNL     1       3.260   2.747  20.455  0.00  0.00    +0.000 S 
ATOM     10  C   UNL     1       2.240   1.758  19.397  0.00  0.00    +0.000 C 
ATOM     11  O   UNL     1       4.647   2.466  20.123  0.00  0.00    +0.000 OA
ATOM     12  O   UNL     1       2.788   2.568  21.817  0.00  0.00    +0.000 OA
ENDBRANCH   8   9
ENDBRANCH   1   3
BRANCH   1  13
ATOM     13  C   UNL     1       4.362   4.660  16.617  0.00  0.00    +0.000 C 
BRANCH  13  18
ATOM     14  C   UNL     1       6.560   5.627  15.839  0.00  0.00    +0.000 C 
ATOM     15  O   UNL     1       7.325   5.501  14.631  0.00  0.00    +0.000 OA
ATOM     16  C   UNL     1       6.858   4.371  13.888  0.00  0.00    +0.000 C 
ATOM     17  C   UNL     1       5.581   3.888  14.532  0.00  0.00    +0.000 C 
ATOM     18  C   UNL     1       5.708   4.364  15.965  0.00  0.00    +0.000 C 
BRANCH  14  20
ATOM     19  C   UNL     1       6.919   6.959  18.013  0.00  0.00    +0.000 C 
ATOM     20  C   UNL     1       7.478   5.906  17.049  0.00  0.00    +0.000 C 
ATOM     21  C   UNL     1       7.737   4.613  17.826  0.00  0.00    +0.000 C 
ENDBRANCH  14  20
ENDBRANCH  13  18
ENDBRANCH   1  13
TORSDOF 5
ENDMDL
MODEL 7
REMARK VINA RESULT:      -6.7      2.281      5.871
REMARK  Name = 
REMARK  8 active torsions:
REMARK  status: ('A' for Active; 'I' for Inactive)
REMARK    1  A    between atoms: C_1  and  C_2
REMARK    2  A    between atoms: C_2  and  C_3
REMARK    3  A    between atoms: C_2  and  C_4
REMARK    4  A    between atoms: C_8  and  C_9
REMARK    5  A    between atoms: C_9  and  N_10
REMARK    6  A    between atoms: N_10  and  C_11
REMARK    7  A    between atoms: C_16  and  S_17
REMARK    8  A    between atoms: S_17  and  C_18
REMARK                            x       y       z     vdW  Elec       q    Type
REMARK                         _______ _______ _______ _____ _____    ______ ____
ROOT
ATOM      1  N   UNL     1       4.974   3.543  18.564  0.00  0.00    +0.000 N 
ATOM      2  H   UNL     1       5.734   3.165  19.147  0.00  0.00    +0.000 HD
ENDROOT
BRANCH   1   3
ATOM      3  C   UNL     1       5.473   4.021  17.344  0.00  0.00    +0.000 A 
ATOM      4  C   UNL     1       4.859   3.670  16.124  0.00  0.00    +0.000 A 
ATOM      5  C   UNL     1       5.285   4.188  14.898  0.00  0.00    +0.000 A 
ATOM      6  C   UNL     1       6.321   5.111  14.857  0.00  0.00    +0.000 A 
ATOM      7  C   UNL     1       6.924   5.516  16.046  0.00  0.00    +0.000 A 
ATOM      8  C   UNL     1       6.495   4.993  17.274  0.00  0.00    +0.000 A 
BRANCH   8   9
ATOM      9  S   UNL     1       7.398   5.501  18.729  0.00  0.00    +0.000 S 
ATOM     10  C   UNL     1       7.983   7.130  18.352  0.00  0.00    +0.000 C 
ATOM     11  O   UNL     1       6.454   5.612  19.828  0.00  0.00    +0.000 OA
ATOM     12  O   UNL     1       8.557   4.634  18.851  0.00  0.00    +0.000 OA
ENDBRANCH   8   9
ENDBRANCH   1   3
BRANCH   1  13
ATOM     13  C   UNL     1       3.861   2.595  18.519  0.00  0.00    +0.000 C 
BRANCH  13  18
ATOM     14  C   UNL     1       2.861   4.584  19.708  0.00  0.00    +0.000 C 
ATOM     15  O   UNL     1       2.384   4.804  21.044  0.00  0.00    +0.000 OA
ATOM     16  C   UNL     1       2.184   3.542  21.689  0.00  0.00    +0.000 C 
ATOM     17  C   UNL     1       2.782   2.471  20.811  0.00  0.00    +0.000 C 
ATOM     18  C   UNL     1       2.738   3.087  19.427  0.00  0.00    +0.000 C 
BRANCH  14  20
ATOM     19  C   UNL     1       3.019   6.542  18.042  0.00  0.00    +0.000 C 
ATOM     20  C   UNL     1       2.119   5.490  18.700  0.00  0.00    +0.000 C 
ATOM     21  C   UNL     1       1.470   4.640  17.604  0.00  0.00    +0.000 C 
ENDBRANCH  14  20
ENDBRANCH  13  18
ENDBRANCH   1  13
TORSDOF 5
ENDMDL
MODEL 8
REMARK VINA RESULT:      -6.6      3.826      5.567
REMARK  Name = 
REMARK  8 active torsions:
REMARK  status: ('A' for Active; 'I' for Inactive)
REMARK    1  A    between atoms: C_1  and  C_2
REMARK    2  A    between atoms: C_2  and  C_3
REMARK    3  A    between atoms: C_2  and  C_4
REMARK    4  A    between atoms: C_8  and  C_9
REMARK    5  A    between atoms: C_9  and  N_10
REMARK    6  A    between atoms: N_10  and  C_11
REMARK    7  A    between atoms: C_16  and  S_17
REMARK    8  A    between atoms: S_17  and  C_18
REMARK                            x       y       z     vdW  Elec       q    Type
REMARK                         _______ _______ _______ _____ _____    ______ ____
ROOT
ATOM      1  N   UNL     1       1.989   7.122  20.932  0.00  0.00    +0.000 N 
ATOM      2  H   UNL     1       2.993   7.106  21.160  0.00  0.00    +0.000 HD
ENDROOT
BRANCH   1   3
ATOM      3  C   UNL     1       1.692   8.187  20.069  0.00  0.00    +0.000 A 
ATOM      4  C   UNL     1       2.130   8.176  18.728  0.00  0.00    +0.000 A 
ATOM      5  C   UNL     1       1.788   9.184  17.823  0.00  0.00    +0.000 A 
ATOM      6  C   UNL     1       0.959  10.223  18.223  0.00  0.00    +0.000 A 
ATOM      7  C   UNL     1       0.470  10.246  19.528  0.00  0.00    +0.000 A 
ATOM      8  C   UNL     1       0.816   9.232  20.433  0.00  0.00    +0.000 A 
BRANCH   8   9
ATOM      9  S   UNL     1       0.219   9.406  22.108  0.00  0.00    +0.000 S 
ATOM     10  C   UNL     1      -0.631  10.960  22.125  0.00  0.00    +0.000 C 
ATOM     11  O   UNL     1      -0.762   8.361  22.346  0.00  0.00    +0.000 OA
ATOM     12  O   UNL     1       1.377   9.528  22.976  0.00  0.00    +0.000 OA
ENDBRANCH   8   9
ENDBRANCH   1   3
BRANCH   1  13
ATOM     13  C   UNL     1       1.547   5.784  20.539  0.00  0.00    +0.000 C 
BRANCH  13  18
ATOM     14  C   UNL     1       3.266   4.519  19.191  0.00  0.00    +0.000 C 
ATOM     15  O   UNL     1       3.731   3.161  19.203  0.00  0.00    +0.000 OA
ATOM     16  C   UNL     1       3.327   2.531  20.423  0.00  0.00    +0.000 C 
ATOM     17  C   UNL     1       2.359   3.453  21.123  0.00  0.00    +0.000 C 
ATOM     18  C   UNL     1       2.730   4.823  20.590  0.00  0.00    +0.000 C 
BRANCH  14  20
ATOM     19  C   UNL     1       5.779   5.082  19.179  0.00  0.00    +0.000 C 
ATOM     20  C   UNL     1       4.375   5.479  18.706  0.00  0.00    +0.000 C 
ATOM     21  C   UNL     1       4.373   5.559  17.177  0.00  0.00    +0.000 C 
ENDBRANCH  14  20
ENDBRANCH  13  18
ENDBRANCH   1  13
TORSDOF 5
ENDMDL
MODEL 9
REMARK VINA RESULT:      -6.6      1.097      1.446
REMARK  Name = 
REMARK  8 active torsions:
REMARK  status: ('A' for Active; 'I' for Inactive)
REMARK    1  A    between atoms: C_1  and  C_2
REMARK    2  A    between atoms: C_2  and  C_3
REMARK    3  A    between atoms: C_2  and  C_4
REMARK    4  A    between atoms: C_8  and  C_9
REMARK    5  A    between atoms: C_9  and  N_10
REMARK    6  A    between atoms: N_10  and  C_11
REMARK    7  A    between atoms: C_16  and  S_17
REMARK    8  A    between atoms: S_17  and  C_18
REMARK                            x       y       z     vdW  Elec       q    Type
REMARK                         _______ _______ _______ _____ _____    ______ ____
ROOT
ATOM      1  N   UNL     1       3.573   4.812  17.628  0.00  0.00    +0.000 N 
ATOM      2  H   UNL     1       4.158   4.015  17.919  0.00  0.00    +0.000 HD
ENDROOT
BRANCH   1   3
ATOM      3  C   UNL     1       2.920   5.378  18.733  0.00  0.00    +0.000 A 
ATOM      4  C   UNL     1       2.800   6.778  18.863  0.00  0.00    +0.000 A 
ATOM      5  C   UNL     1       2.092   7.372  19.910  0.00  0.00    +0.000 A 
ATOM      6  C   UNL     1       1.443   6.579  20.846  0.00  0.00    +0.000 A 
ATOM      7  C   UNL     1       1.501   5.192  20.727  0.00  0.00    +0.000 A 
ATOM      8  C   UNL     1       2.214   4.599  19.674  0.00  0.00    +0.000 A 
BRANCH   8   9
ATOM      9  S   UNL     1       2.310   2.815  19.667  0.00  0.00    +0.000 S 
ATOM     10  C   UNL     1       3.992   2.452  20.090  0.00  0.00    +0.000 C 
ATOM     11  O   UNL     1       1.465   2.315  20.738  0.00  0.00    +0.000 OA
ATOM     12  O   UNL     1       2.093   2.370  18.301  0.00  0.00    +0.000 OA
ENDBRANCH   8   9
ENDBRANCH   1   3
BRANCH   1  13
ATOM     13  C   UNL     1       4.342   5.704  16.761  0.00  0.00    +0.000 C 
BRANCH  13  18
ATOM     14  C   UNL     1       6.773   5.997  16.148  0.00  0.00    +0.000 C 
ATOM     15  O   UNL     1       7.588   5.515  15.069  0.00  0.00    +0.000 OA
ATOM     16  C   UNL     1       6.921   4.430  14.419  0.00  0.00    +0.000 C 
ATOM     17  C   UNL     1       5.512   4.364  14.953  0.00  0.00    +0.000 C 
ATOM     18  C   UNL     1       5.624   5.004  16.322  0.00  0.00    +0.000 C 
BRANCH  14  20
ATOM     19  C   UNL     1       7.709   7.703  17.835  0.00  0.00    +0.000 C 
ATOM     20  C   UNL     1       7.619   6.230  17.419  0.00  0.00    +0.000 C 
ATOM     21  C   UNL     1       7.051   5.420  18.588  0.00  0.00    +0.000 C 
ENDBRANCH  14  20
ENDBRANCH  13  18
ENDBRANCH   1  13
TORSDOF 5
ENDMDL
