MODEL 1
REMARK VINA RESULT:      -9.1      0.000      0.000
REMARK  Name = 
REMARK  6 active torsions:
REMARK  status: ('A' for Active; 'I' for Inactive)
REMARK    1  A    between atoms: C_1  and  C_2
REMARK    2  A    between atoms: C_5  and  C_6
REMARK    3  A    between atoms: C_6  and  C_8
REMARK    4  A    between atoms: C_14  and  O_15
REMARK    5  A    between atoms: O_15  and  C_16
REMARK    6  A    between atoms: C_16  and  C_18
REMARK                            x       y       z     vdW  Elec       q    Type
REMARK                         _______ _______ _______ _____ _____    ______ ____
ROOT
ATOM      1  C   UNL     1       2.222   4.800  19.648  0.00  0.00    +0.000 A 
ATOM      2  C   UNL     1       1.865   4.246  20.886  0.00  0.00    +0.000 A 
ATOM      3  C   UNL     1       1.191   3.030  20.935  0.00  0.00    +0.000 A 
ATOM      4  F   UNL     1       0.898   2.482  22.122  0.00  0.00    +0.000 F 
ATOM      5  C   UNL     1       0.836   2.357  19.772  0.00  0.00    +0.000 A 
ATOM      6  C   UNL     1       1.237   2.865  18.537  0.00  0.00    +0.000 A 
ATOM      7  C   UNL     1       1.968   4.063  18.482  0.00  0.00    +0.000 A 
ENDROOT
BRANCH   1   8
ATOM      8  C   UNL     1       2.928   6.106  19.646  0.00  0.00    +0.000 C 
ATOM      9  O   UNL     1       4.146   6.109  19.810  0.00  0.00    +0.000 OA
BRANCH   8  14
ATOM     10  C   UNL     1      -0.050  10.998  18.688  0.00  0.00    +0.000 C 
ATOM     11  C   UNL     1       0.800   9.792  18.970  0.00  0.00    +0.000 A 
ATOM     12  C   UNL     1       1.512   9.164  17.943  0.00  0.00    +0.000 A 
ATOM     13  C   UNL     1       2.220   7.984  18.191  0.00  0.00    +0.000 A 
ATOM     14  C   UNL     1       2.217   7.404  19.465  0.00  0.00    +0.000 A 
ATOM     15  C   UNL     1       1.568   8.068  20.513  0.00  0.00    +0.000 A 
ATOM     16  C   UNL     1       0.858   9.252  20.261  0.00  0.00    +0.000 A 
ENDBRANCH   8  14
ENDBRANCH   1   8
BRANCH   7  17
ATOM     17  O   UNL     1       2.705   4.366  17.317  0.00  0.00    +0.000 OA
BRANCH  17  18
ATOM     18  C   UNL     1       3.926   3.745  17.177  0.00  0.00    +0.000 C 
ATOM     19  O   UNL     1       4.135   2.544  17.240  0.00  0.00    +0.000 OA
BRANCH  18  20
ATOM     20  C   UNL     1       5.015   4.769  17.089  0.00  0.00    +0.000 A 
ATOM     21  C   UNL     1       6.212   4.509  17.777  0.00  0.00    +0.000 A 
ATOM     22  C   UNL     1       7.170   5.511  17.932  0.00  0.00    +0.000 A 
ATOM     23  C   UNL     1       6.943   6.778  17.389  0.00  0.00    +0.000 A 
ATOM     24 CL   UNL     1       8.061   8.051  17.687  0.00  0.00    +0.000 Cl
ATOM     25  C   UNL     1       5.791   7.028  16.644  0.00  0.00    +0.000 A 
ATOM     26  C   UNL     1       4.829   6.024  16.487  0.00  0.00    +0.000 A 
ENDBRANCH  18  20
ENDBRANCH  17  18
ENDBRANCH   7  17
TORSDOF 5
ENDMDL
MODEL 2
REMARK VINA RESULT:      -8.4      2.597      5.850
REMARK  Name = 
REMARK  6 active torsions:
REMARK  status: ('A' for Active; 'I' for Inactive)
REMARK    1  A    between atoms: C_1  and  C_2
REMARK    2  A    between atoms: C_5  and  C_6
REMARK    3  A    between atoms: C_6  and  C_8
REMARK    4  A    between atoms: C_14  and  O_15
REMARK    5  A    between atoms: O_15  and  C_16
REMARK    6  A    between atoms: C_16  and  C_18
REMARK                            x       y       z     vdW  Elec       q    Type
REMARK                         _______ _______ _______ _____ _____    ______ ____
ROOT
ATOM      1  C   UNL     1       3.837   4.228  19.462  0.00  0.00    +0.000 A 
ATOM      2  C   UNL     1       3.384   2.915  19.269  0.00  0.00    +0.000 A 
ATOM      3  C   UNL     1       2.090   2.565  19.644  0.00  0.00    +0.000 A 
ATOM      4  F   UNL     1       1.646   1.323  19.411  0.00  0.00    +0.000 F 
ATOM      5  C   UNL     1       1.238   3.490  20.235  0.00  0.00    +0.000 A 
ATOM      6  C   UNL     1       1.654   4.813  20.377  0.00  0.00    +0.000 A 
ATOM      7  C   UNL     1       2.938   5.187  19.949  0.00  0.00    +0.000 A 
ENDROOT
BRANCH   1   8
ATOM      8  C   UNL     1       5.230   4.550  19.059  0.00  0.00    +0.000 C 
ATOM      9  O   UNL     1       6.021   4.905  19.931  0.00  0.00    +0.000 OA
BRANCH   8  14
ATOM     10  C   UNL     1       6.809   4.512  13.472  0.00  0.00    +0.000 C 
ATOM     11  C   UNL     1       6.434   4.422  14.923  0.00  0.00    +0.000 A 
ATOM     12  C   UNL     1       5.113   4.167  15.304  0.00  0.00    +0.000 A 
ATOM     13  C   UNL     1       4.750   4.183  16.655  0.00  0.00    +0.000 A 
ATOM     14  C   UNL     1       5.697   4.472  17.645  0.00  0.00    +0.000 A 
ATOM     15  C   UNL     1       7.034   4.655  17.275  0.00  0.00    +0.000 A 
ATOM     16  C   UNL     1       7.396   4.637  15.919  0.00  0.00    +0.000 A 
ENDBRANCH   8  14
ENDBRANCH   1   8
BRANCH   7  17
ATOM     17  O   UNL     1       3.215   6.552  19.718  0.00  0.00    +0.000 OA
BRANCH  17  18
ATOM     18  C   UNL     1       2.633   7.124  18.610  0.00  0.00    +0.000 C 
ATOM     19  O   UNL     1       2.811   6.793  17.448  0.00  0.00    +0.000 OA
BRANCH  18  20
ATOM     20  C   UNL     1       1.852   8.338  19.010  0.00  0.00    +0.000 A 
ATOM     21  C   UNL     1       1.462   8.449  20.355  0.00  0.00    +0.000 A 
ATOM     22  C   UNL     1       0.543   9.422  20.747  0.00  0.00    +0.000 A 
ATOM     23  C   UNL     1       0.016  10.301  19.797  0.00  0.00    +0.000 A 
ATOM     24 CL   UNL     1      -1.211  11.417  20.252  0.00  0.00    +0.000 Cl
ATOM     25  C   UNL     1       0.447  10.247  18.473  0.00  0.00    +0.000 A 
ATOM     26  C   UNL     1       1.370   9.270  18.078  0.00  0.00    +0.000 A 
ENDBRANCH  18  20
ENDBRANCH  17  18
ENDBRANCH   7  17
TORSDOF 5
ENDMDL
MODEL 3
REMARK VINA RESULT:      -8.4      1.589      1.838
REMARK  Name = 
REMARK  6 active torsions:
REMARK  status: ('A' for Active; 'I' for Inactive)
REMARK    1  A    between atoms: C_1  and  C_2
REMARK    2  A    between atoms: C_5  and  C_6
REMARK    3  A    between atoms: C_6  and  C_8
REMARK    4  A    between atoms: C_14  and  O_15
REMARK    5  A    between atoms: O_15  and  C_16
REMARK    6  A    between atoms: C_16  and  C_18
REMARK                            x       y       z     vdW  Elec       q    Type
REMARK                         _______ _______ _______ _____ _____    ______ ____
ROOT
ATOM      1  C   UNL     1       2.339   4.718  19.527  0.00  0.00    +0.000 A 
ATOM      2  C   UNL     1       1.873   4.269  20.771  0.00  0.00    +0.000 A 
ATOM      3  C   UNL     1       1.196   3.056  20.864  0.00  0.00    +0.000 A 
ATOM      4  F   UNL     1       0.798   2.609  22.062  0.00  0.00    +0.000 F 
ATOM      5  C   UNL     1       0.948   2.285  19.735  0.00  0.00    +0.000 A 
ATOM      6  C   UNL     1       1.458   2.689  18.502  0.00  0.00    +0.000 A 
ATOM      7  C   UNL     1       2.191   3.883  18.411  0.00  0.00    +0.000 A 
ENDROOT
BRANCH   1   8
ATOM      8  C   UNL     1       3.043   6.025  19.477  0.00  0.00    +0.000 C 
ATOM      9  O   UNL     1       4.270   6.028  19.548  0.00  0.00    +0.000 OA
BRANCH   8  14
ATOM     10  C   UNL     1       0.014  10.925  18.753  0.00  0.00    +0.000 C 
ATOM     11  C   UNL     1       0.878   9.716  18.974  0.00  0.00    +0.000 A 
ATOM     12  C   UNL     1       1.568   9.127  17.910  0.00  0.00    +0.000 A 
ATOM     13  C   UNL     1       2.290   7.945  18.102  0.00  0.00    +0.000 A 
ATOM     14  C   UNL     1       2.320   7.323  19.356  0.00  0.00    +0.000 A 
ATOM     15  C   UNL     1       1.693   7.948  20.441  0.00  0.00    +0.000 A 
ATOM     16  C   UNL     1       0.970   9.135  20.245  0.00  0.00    +0.000 A 
ENDBRANCH   8  14
ENDBRANCH   1   8
BRANCH   7  17
ATOM     17  O   UNL     1       3.031   4.091  17.295  0.00  0.00    +0.000 OA
BRANCH  17  18
ATOM     18  C   UNL     1       4.298   3.559  17.364  0.00  0.00    +0.000 C 
ATOM     19  O   UNL     1       4.710   2.786  18.215  0.00  0.00    +0.000 OA
BRANCH  18  20
ATOM     20  C   UNL     1       5.176   4.187  16.326  0.00  0.00    +0.000 A 
ATOM     21  C   UNL     1       4.762   4.105  14.985  0.00  0.00    +0.000 A 
ATOM     22  C   UNL     1       5.632   4.455  13.954  0.00  0.00    +0.000 A 
ATOM     23  C   UNL     1       6.922   4.901  14.256  0.00  0.00    +0.000 A 
ATOM     24 CL   UNL     1       8.040   5.212  12.986  0.00  0.00    +0.000 Cl
ATOM     25  C   UNL     1       7.321   5.054  15.583  0.00  0.00    +0.000 A 
ATOM     26  C   UNL     1       6.448   4.703  16.620  0.00  0.00    +0.000 A 
ENDBRANCH  18  20
ENDBRANCH  17  18
ENDBRANCH   7  17
TORSDOF 5
ENDMDL
MODEL 4
REMARK VINA RESULT:      -8.3      1.280      1.875
REMARK  Name = 
REMARK  6 active torsions:
REMARK  status: ('A' for Active; 'I' for Inactive)
REMARK    1  A    between atoms: C_1  and  C_2
REMARK    2  A    between atoms: C_5  and  C_6
REMARK    3  A    between atoms: C_6  and  C_8
REMARK    4  A    between atoms: C_14  and  O_15
REMARK    5  A    between atoms: O_15  and  C_16
REMARK    6  A    between atoms: C_16  and  C_18
REMARK                            x       y       z     vdW  Elec       q    Type
REMARK                         _______ _______ _______ _____ _____    ______ ____
ROOT
ATOM      1  C   UNL     1       2.977   4.476  18.884  0.00  0.00    +0.000 A 
ATOM      2  C   UNL     1       1.694   4.073  19.282  0.00  0.00    +0.000 A 
ATOM      3  C   UNL     1       1.198   2.836  18.880  0.00  0.00    +0.000 A 
ATOM      4  F   UNL     1      -0.007   2.435  19.306  0.00  0.00    +0.000 F 
ATOM      5  C   UNL     1       1.944   1.994  18.064  0.00  0.00    +0.000 A 
ATOM      6  C   UNL     1       3.244   2.356  17.710  0.00  0.00    +0.000 A 
ATOM      7  C   UNL     1       3.772   3.577  18.159  0.00  0.00    +0.000 A 
ENDROOT
BRANCH   1   8
ATOM      8  C   UNL     1       3.457   5.810  19.326  0.00  0.00    +0.000 C 
ATOM      9  O   UNL     1       4.543   5.877  19.898  0.00  0.00    +0.000 OA
BRANCH   8  14
ATOM     10  C   UNL     1       0.587  10.827  18.771  0.00  0.00    +0.000 C 
ATOM     11  C   UNL     1       1.246   9.481  18.873  0.00  0.00    +0.000 A 
ATOM     12  C   UNL     1       1.238   8.771  20.078  0.00  0.00    +0.000 A 
ATOM     13  C   UNL     1       1.938   7.566  20.195  0.00  0.00    +0.000 A 
ATOM     14  C   UNL     1       2.670   7.059  19.114  0.00  0.00    +0.000 A 
ATOM     15  C   UNL     1       2.620   7.726  17.885  0.00  0.00    +0.000 A 
ATOM     16  C   UNL     1       1.917   8.936  17.771  0.00  0.00    +0.000 A 
ENDBRANCH   8  14
ENDBRANCH   1   8
BRANCH   7  17
ATOM     17  O   UNL     1       5.171   3.764  18.153  0.00  0.00    +0.000 OA
BRANCH  17  18
ATOM     18  C   UNL     1       5.730   4.226  16.983  0.00  0.00    +0.000 C 
ATOM     19  O   UNL     1       5.645   3.697  15.885  0.00  0.00    +0.000 OA
BRANCH  18  20
ATOM     20  C   UNL     1       6.608   5.406  17.264  0.00  0.00    +0.000 A 
ATOM     21  C   UNL     1       7.532   5.296  18.317  0.00  0.00    +0.000 A 
ATOM     22  C   UNL     1       8.210   6.422  18.783  0.00  0.00    +0.000 A 
ATOM     23  C   UNL     1       7.978   7.666  18.191  0.00  0.00    +0.000 A 
ATOM     24 CL   UNL     1       8.714   9.076  18.845  0.00  0.00    +0.000 Cl
ATOM     25  C   UNL     1       7.117   7.776  17.100  0.00  0.00    +0.000 A 
ATOM     26  C   UNL     1       6.435   6.647  16.631  0.00  0.00    +0.000 A 
ENDBRANCH  18  20
ENDBRANCH  17  18
ENDBRANCH   7  17
TORSDOF 5
ENDMDL
MODEL 5
REMARK VINA RESULT:      -8.2      2.510      5.832
REMARK  Name = 
REMARK  6 active torsions:
REMARK  status: ('A' for Active; 'I' for Inactive)
REMARK    1  A    between atoms: C_1  and  C_2
REMARK    2  A    between atoms: C_5  and  C_6
REMARK    3  A    between atoms: C_6  and  C_8
REMARK    4  A    between atoms: C_14  and  O_15
REMARK    5  A    between atoms: O_15  and  C_16
REMARK    6  A    between atoms: C_16  and  C_18
REMARK                            x       y       z     vdW  Elec       q    Type
REMARK                         _______ _______ _______ _____ _____    ______ ____
ROOT
ATOM      1  C   UNL     1       3.746   4.121  19.433  0.00  0.00    +0.000 A 
ATOM      2  C   UNL     1       3.227   2.841  19.187  0.00  0.00    +0.000 A 
ATOM      3  C   UNL     1       1.927   2.532  19.576  0.00  0.00    +0.000 A 
ATOM      4  F   UNL     1       1.420   1.325  19.293  0.00  0.00    +0.000 F 
ATOM      5  C   UNL     1       1.133   3.464  20.232  0.00  0.00    +0.000 A 
ATOM      6  C   UNL     1       1.614   4.758  20.430  0.00  0.00    +0.000 A 
ATOM      7  C   UNL     1       2.904   5.094  19.989  0.00  0.00    +0.000 A 
ENDROOT
BRANCH   1   8
ATOM      8  C   UNL     1       5.143   4.399  19.012  0.00  0.00    +0.000 C 
ATOM      9  O   UNL     1       5.988   4.580  19.885  0.00  0.00    +0.000 OA
BRANCH   8  14
ATOM     10  C   UNL     1       6.977   4.445  13.503  0.00  0.00    +0.000 C 
ATOM     11  C   UNL     1       6.470   4.532  14.914  0.00  0.00    +0.000 A 
ATOM     12  C   UNL     1       7.345   4.803  15.971  0.00  0.00    +0.000 A 
ATOM     13  C   UNL     1       6.886   4.785  17.293  0.00  0.00    +0.000 A 
ATOM     14  C   UNL     1       5.550   4.479  17.580  0.00  0.00    +0.000 A 
ATOM     15  C   UNL     1       4.655   4.280  16.522  0.00  0.00    +0.000 A 
ATOM     16  C   UNL     1       5.118   4.299  15.198  0.00  0.00    +0.000 A 
ENDBRANCH   8  14
ENDBRANCH   1   8
BRANCH   7  17
ATOM     17  O   UNL     1       3.239   6.455  19.818  0.00  0.00    +0.000 OA
BRANCH  17  18
ATOM     18  C   UNL     1       2.682   7.101  18.739  0.00  0.00    +0.000 C 
ATOM     19  O   UNL     1       2.942   6.898  17.563  0.00  0.00    +0.000 OA
BRANCH  18  20
ATOM     20  C   UNL     1       1.806   8.222  19.207  0.00  0.00    +0.000 A 
ATOM     21  C   UNL     1       1.479   9.227  18.281  0.00  0.00    +0.000 A 
ATOM     22  C   UNL     1       0.872  10.408  18.704  0.00  0.00    +0.000 A 
ATOM     23  C   UNL     1       0.574  10.590  20.057  0.00  0.00    +0.000 A 
ATOM     24 CL   UNL     1      -0.057  12.094  20.601  0.00  0.00    +0.000 Cl
ATOM     25  C   UNL     1       0.830   9.573  20.976  0.00  0.00    +0.000 A 
ATOM     26  C   UNL     1       1.440   8.386  20.553  0.00  0.00    +0.000 A 
ENDBRANCH  18  20
ENDBRANCH  17  18
ENDBRANCH   7  17
TORSDOF 5
ENDMDL
MODEL 6
REMARK VINA RESULT:      -8.2      1.758      1.858
REMARK  Name = 
REMARK  6 active torsions:
REMARK  status: ('A' for Active; 'I' for Inactive)
REMARK    1  A    between atoms: C_1  and  C_2
REMARK    2  A    between atoms: C_5  and  C_6
REMARK    3  A    between atoms: C_6  and  C_8
REMARK    4  A    between atoms: C_14  and  O_15
REMARK    5  A    between atoms: O_15  and  C_16
REMARK    6  A    between atoms: C_16  and  C_18
REMARK                            x       y       z     vdW  Elec       q    Type
REMARK                         _______ _______ _______ _____ _____    ______ ____
ROOT
ATOM      1  C   UNL     1       2.399   4.883  19.318  0.00  0.00    +0.000 A 
ATOM      2  C   UNL     1       1.772   4.398  20.475  0.00  0.00    +0.000 A 
ATOM      3  C   UNL     1       1.142   3.157  20.456  0.00  0.00    +0.000 A 
ATOM      4  F   UNL     1       0.590   2.677  21.578  0.00  0.00    +0.000 F 
ATOM      5  C   UNL     1       1.097   2.391  19.297  0.00  0.00    +0.000 A 
ATOM      6  C   UNL     1       1.767   2.834  18.156  0.00  0.00    +0.000 A 
ATOM      7  C   UNL     1       2.454   4.058  18.185  0.00  0.00    +0.000 A 
ENDROOT
BRANCH   1   8
ATOM      8  C   UNL     1       3.045   6.218  19.383  0.00  0.00    +0.000 C 
ATOM      9  O   UNL     1       4.264   6.267  19.535  0.00  0.00    +0.000 OA
BRANCH   8  14
ATOM     10  C   UNL     1      -0.167  11.012  18.742  0.00  0.00    +0.000 C 
ATOM     11  C   UNL     1       0.742   9.833  18.941  0.00  0.00    +0.000 A 
ATOM     12  C   UNL     1       1.438   9.278  17.863  0.00  0.00    +0.000 A 
ATOM     13  C   UNL     1       2.204   8.120  18.035  0.00  0.00    +0.000 A 
ATOM     14  C   UNL     1       2.275   7.491  19.283  0.00  0.00    +0.000 A 
ATOM     15  C   UNL     1       1.641   8.084  20.382  0.00  0.00    +0.000 A 
ATOM     16  C   UNL     1       0.873   9.245  20.206  0.00  0.00    +0.000 A 
ENDBRANCH   8  14
ENDBRANCH   1   8
BRANCH   7  17
ATOM     17  O   UNL     1       3.440   4.317  17.208  0.00  0.00    +0.000 OA
BRANCH  17  18
ATOM     18  C   UNL     1       4.689   3.784  17.432  0.00  0.00    +0.000 C 
ATOM     19  O   UNL     1       5.102   3.334  18.489  0.00  0.00    +0.000 OA
BRANCH  18  20
ATOM     20  C   UNL     1       5.552   3.975  16.223  0.00  0.00    +0.000 A 
ATOM     21  C   UNL     1       6.801   4.594  16.403  0.00  0.00    +0.000 A 
ATOM     22  C   UNL     1       7.547   5.013  15.303  0.00  0.00    +0.000 A 
ATOM     23  C   UNL     1       7.057   4.805  14.011  0.00  0.00    +0.000 A 
ATOM     24 CL   UNL     1       7.913   5.433  12.658  0.00  0.00    +0.000 Cl
ATOM     25  C   UNL     1       5.853   4.130  13.817  0.00  0.00    +0.000 A 
ATOM     26  C   UNL     1       5.101   3.708  14.920  0.00  0.00    +0.000 A 
ENDBRANCH  18  20
ENDBRANCH  17  18
ENDBRANCH   7  17
TORSDOF 5
ENDMDL
MODEL 7
REMARK VINA RESULT:      -8.2      2.568      5.735
REMARK  Name = 
REMARK  6 active torsions:
REMARK  status: ('A' for Active; 'I' for Inactive)
REMARK    1  A    between atoms: C_1  and  C_2
REMARK    2  A    between atoms: C_5  and  C_6
REMARK    3  A    between atoms: C_6  and  C_8
REMARK    4  A    between atoms: C_14  and  O_15
REMARK    5  A    between atoms: O_15  and  C_16
REMARK    6  A    between atoms: C_16  and  C_18
REMARK                            x       y       z     vdW  Elec       q    Type
REMARK                         _______ _______ _______ _____ _____    ______ ____
ROOT
ATOM      1  C   UNL     1       3.233   3.660  19.262  0.00  0.00    +0.000 A 
ATOM      2  C   UNL     1       2.541   2.520  18.827  0.00  0.00    +0.000 A 
ATOM      3  C   UNL     1       1.172   2.410  19.051  0.00  0.00    +0.000 A 
ATOM      4  F   UNL     1       0.508   1.343  18.588  0.00  0.00    +0.000 F 
ATOM      5  C   UNL     1       0.473   3.403  19.726  0.00  0.00    +0.000 A 
ATOM      6  C   UNL     1       1.136   4.569  20.111  0.00  0.00    +0.000 A 
ATOM      7  C   UNL     1       2.506   4.711  19.837  0.00  0.00    +0.000 A 
ENDROOT
BRANCH   1   8
ATOM      8  C   UNL     1       4.695   3.725  19.012  0.00  0.00    +0.000 C 
ATOM      9  O   UNL     1       5.456   3.467  19.942  0.00  0.00    +0.000 OA
BRANCH   8  14
ATOM     10  C   UNL     1       7.202   4.950  13.920  0.00  0.00    +0.000 C 
ATOM     11  C   UNL     1       6.509   4.728  15.233  0.00  0.00    +0.000 A 
ATOM     12  C   UNL     1       7.187   4.924  16.440  0.00  0.00    +0.000 A 
ATOM     13  C   UNL     1       6.569   4.620  17.658  0.00  0.00    +0.000 A 
ATOM     14  C   UNL     1       5.269   4.101  17.688  0.00  0.00    +0.000 A 
ATOM     15  C   UNL     1       4.559   3.973  16.488  0.00  0.00    +0.000 A 
ATOM     16  C   UNL     1       5.182   4.278  15.268  0.00  0.00    +0.000 A 
ENDBRANCH   8  14
ENDBRANCH   1   8
BRANCH   7  17
ATOM     17  O   UNL     1       3.079   6.001  19.852  0.00  0.00    +0.000 OA
BRANCH  17  18
ATOM     18  C   UNL     1       2.748   6.839  18.811  0.00  0.00    +0.000 C 
ATOM     19  O   UNL     1       3.090   6.711  17.646  0.00  0.00    +0.000 OA
BRANCH  18  20
ATOM     20  C   UNL     1       2.026   8.043  19.331  0.00  0.00    +0.000 A 
ATOM     21  C   UNL     1       1.591   8.017  20.667  0.00  0.00    +0.000 A 
ATOM     22  C   UNL     1       0.717   8.993  21.145  0.00  0.00    +0.000 A 
ATOM     23  C   UNL     1       0.280  10.011  20.294  0.00  0.00    +0.000 A 
ATOM     24 CL   UNL     1      -0.895  11.141  20.841  0.00  0.00    +0.000 Cl
ATOM     25  C   UNL     1       0.760  10.088  18.986  0.00  0.00    +0.000 A 
ATOM     26  C   UNL     1       1.637   9.109  18.505  0.00  0.00    +0.000 A 
ENDBRANCH  18  20
ENDBRANCH  17  18
ENDBRANCH   7  17
TORSDOF 5
ENDMDL
MODEL 8
REMARK VINA RESULT:      -8.1      1.380      2.057
REMARK  Name = 
REMARK  6 active torsions:
REMARK  status: ('A' for Active; 'I' for Inactive)
REMARK    1  A    between atoms: C_1  and  C_2
REMARK    2  A    between atoms: C_5  and  C_6
REMARK    3  A    between atoms: C_6  and  C_8
REMARK    4  A    between atoms: C_14  and  O_15
REMARK    5  A    between atoms: O_15  and  C_16
REMARK    6  A    between atoms: C_16  and  C_18
REMARK                            x       y       z     vdW  Elec       q    Type
REMARK                         _______ _______ _______ _____ _____    ______ ____
ROOT
ATOM      1  C   UNL     1       3.067   4.406  18.827  0.00  0.00    +0.000 A 
ATOM      2  C   UNL     1       1.764   3.948  19.066  0.00  0.00    +0.000 A 
ATOM      3  C   UNL     1       1.334   2.749  18.503  0.00  0.00    +0.000 A 
ATOM      4  F   UNL     1       0.105   2.292  18.777  0.00  0.00    +0.000 F 
ATOM      5  C   UNL     1       2.169   2.003  17.681  0.00  0.00    +0.000 A 
ATOM      6  C   UNL     1       3.486   2.415  17.483  0.00  0.00    +0.000 A 
ATOM      7  C   UNL     1       3.944   3.594  18.094  0.00  0.00    +0.000 A 
ENDROOT
BRANCH   1   8
ATOM      8  C   UNL     1       3.475   5.697  19.437  0.00  0.00    +0.000 C 
ATOM      9  O   UNL     1       4.496   5.721  20.120  0.00  0.00    +0.000 OA
BRANCH   8  14
ATOM     10  C   UNL     1       0.231  10.419  18.490  0.00  0.00    +0.000 C 
ATOM     11  C   UNL     1       1.144   9.261  18.774  0.00  0.00    +0.000 A 
ATOM     12  C   UNL     1       1.934   8.710  17.761  0.00  0.00    +0.000 A 
ATOM     13  C   UNL     1       2.707   7.570  18.006  0.00  0.00    +0.000 A 
ATOM     14  C   UNL     1       2.690   6.953  19.262  0.00  0.00    +0.000 A 
ATOM     15  C   UNL     1       1.959   7.543  20.301  0.00  0.00    +0.000 A 
ATOM     16  C   UNL     1       1.185   8.687  20.052  0.00  0.00    +0.000 A 
ENDBRANCH   8  14
ENDBRANCH   1   8
BRANCH   7  17
ATOM     17  O   UNL     1       5.333   3.801  18.233  0.00  0.00    +0.000 OA
BRANCH  17  18
ATOM     18  C   UNL     1       5.979   4.406  17.179  0.00  0.00    +0.000 C 
ATOM     19  O   UNL     1       6.179   3.917  16.079  0.00  0.00    +0.000 OA
BRANCH  18  20
ATOM     20  C   UNL     1       6.557   5.717  17.616  0.00  0.00    +0.000 A 
ATOM     21  C   UNL     1       6.118   6.877  16.957  0.00  0.00    +0.000 A 
ATOM     22  C   UNL     1       6.777   8.091  17.146  0.00  0.00    +0.000 A 
ATOM     23  C   UNL     1       7.876   8.157  18.007  0.00  0.00    +0.000 A 
ATOM     24 CL   UNL     1       8.769   9.620  18.146  0.00  0.00    +0.000 Cl
ATOM     25  C   UNL     1       8.278   7.029  18.721  0.00  0.00    +0.000 A 
ATOM     26  C   UNL     1       7.617   5.810  18.532  0.00  0.00    +0.000 A 
ENDBRANCH  18  20
ENDBRANCH  17  18
ENDBRANCH   7  17
TORSDOF 5
ENDMDL
MODEL 9
REMARK VINA RESULT:      -8.0      2.780      6.109
REMARK  Name = 
REMARK  6 active torsions:
REMARK  status: ('A' for Active; 'I' for Inactive)
REMARK    1  A    between atoms: C_1  and  C_2
REMARK    2  A    between atoms: C_5  and  C_6
REMARK    3  A    between atoms: C_6  and  C_8
REMARK    4  A    between atoms: C_14  and  O_15
REMARK    5  A    between atoms: O_15  and  C_16
REMARK    6  A    between atoms: C_16  and  C_18
REMARK                            x       y       z     vdW  Elec       q    Type
REMARK                         _______ _______ _______ _____ _____    ______ ____
ROOT
ATOM      1  C   UNL     1       3.608   4.576  19.300  0.00  0.00    +0.000 A 
ATOM      2  C   UNL     1       3.176   3.313  18.868  0.00  0.00    +0.000 A 
ATOM      3  C   UNL     1       1.896   2.869  19.189  0.00  0.00    +0.000 A 
ATOM      4  F   UNL     1       1.472   1.684  18.731  0.00  0.00    +0.000 F 
ATOM      5  C   UNL     1       1.038   3.647  19.956  0.00  0.00    +0.000 A 
ATOM      6  C   UNL     1       1.431   4.928  20.341  0.00  0.00    +0.000 A 
ATOM      7  C   UNL     1       2.700   5.405  19.973  0.00  0.00    +0.000 A 
ENDROOT
BRANCH   1   8
ATOM      8  C   UNL     1       4.986   5.000  18.945  0.00  0.00    +0.000 C 
ATOM      9  O   UNL     1       5.702   5.454  19.835  0.00  0.00    +0.000 OA
BRANCH   8  14
ATOM     10  C   UNL     1       7.065   5.001  13.524  0.00  0.00    +0.000 C 
ATOM     11  C   UNL     1       6.494   4.903  14.909  0.00  0.00    +0.000 A 
ATOM     12  C   UNL     1       5.240   5.447  15.204  0.00  0.00    +0.000 A 
ATOM     13  C   UNL     1       4.756   5.441  16.517  0.00  0.00    +0.000 A 
ATOM     14  C   UNL     1       5.524   4.906  17.557  0.00  0.00    +0.000 A 
ATOM     15  C   UNL     1       6.747   4.294  17.256  0.00  0.00    +0.000 A 
ATOM     16  C   UNL     1       7.229   4.301  15.938  0.00  0.00    +0.000 A 
ENDBRANCH   8  14
ENDBRANCH   1   8
BRANCH   7  17
ATOM     17  O   UNL     1       2.946   6.795  20.001  0.00  0.00    +0.000 OA
BRANCH  17  18
ATOM     18  C   UNL     1       2.134   7.585  19.219  0.00  0.00    +0.000 C 
ATOM     19  O   UNL     1       2.053   7.554  18.001  0.00  0.00    +0.000 OA
BRANCH  18  20
ATOM     20  C   UNL     1       1.461   8.622  20.064  0.00  0.00    +0.000 A 
ATOM     21  C   UNL     1       1.424   8.410  21.453  0.00  0.00    +0.000 A 
ATOM     22  C   UNL     1       0.619   9.204  22.268  0.00  0.00    +0.000 A 
ATOM     23  C   UNL     1      -0.148  10.226  21.703  0.00  0.00    +0.000 A 
ATOM     24 CL   UNL     1      -1.237  11.123  22.685  0.00  0.00    +0.000 Cl
ATOM     25  C   UNL     1      -0.067  10.492  20.336  0.00  0.00    +0.000 A 
ATOM     26  C   UNL     1       0.741   9.695  19.516  0.00  0.00    +0.000 A 
ENDBRANCH  18  20
ENDBRANCH  17  18
ENDBRANCH   7  17
TORSDOF 5
ENDMDL
