MODEL 1
REMARK VINA RESULT:      -7.1      0.000      0.000
REMARK  Name = 
REMARK  6 active torsions:
REMARK  status: ('A' for Active; 'I' for Inactive)
REMARK    1  A    between atoms: C_1  and  C_2
REMARK    2  A    between atoms: C_5  and  C_6
REMARK    3  A    between atoms: C_7  and  C_8
REMARK    4  A    between atoms: C_7  and  C_10
REMARK    5  A    between atoms: N_12  and  C_13
REMARK    6  A    between atoms: C_13  and  C_14
REMARK                            x       y       z     vdW  Elec       q    Type
REMARK                         _______ _______ _______ _____ _____    ______ ____
ROOT
ATOM      1  C   UNL     1       5.240   5.074  16.196  0.00  0.00    +0.000 C 
ATOM      2  C   UNL     1       5.842   4.988  17.399  0.00  0.00    +0.000 C 
ENDROOT
BRANCH   1   7
ATOM      3  C   UNL     1       8.380   5.745  12.493  0.00  0.00    +0.000 C 
ATOM      4  C   UNL     1       7.302   5.054  13.226  0.00  0.00    +0.000 A 
ATOM      5  C   UNL     1       6.576   3.927  12.948  0.00  0.00    +0.000 A 
ATOM      6  C   UNL     1       5.679   3.763  14.030  0.00  0.00    +0.000 A 
ATOM      7  C   UNL     1       5.891   4.801  14.943  0.00  0.00    +0.000 A 
ATOM      8  O   UNL     1       6.903   5.583  14.411  0.00  0.00    +0.000 OA
ENDBRANCH   1   7
BRANCH   2   9
ATOM      9  C   UNL     1       5.050   5.305  18.652  0.00  0.00    +0.000 C 
ATOM     10  O   UNL     1       5.566   5.260  19.768  0.00  0.00    +0.000 OA
ATOM     11  N   UNL     1       3.721   5.631  18.461  0.00  0.00    +0.000 N 
ATOM     12  H   UNL     1       3.320   5.703  17.531  0.00  0.00    +0.000 HD
BRANCH  11  13
ATOM     13  C   UNL     1       2.832   5.972  19.557  0.00  0.00    +0.000 C 
BRANCH  13  14
ATOM     14  C   UNL     1       2.169   4.741  20.077  0.00  0.00    +0.000 A 
ATOM     15  C   UNL     1       2.155   4.089  21.299  0.00  0.00    +0.000 A 
ATOM     16  C   UNL     1       1.306   2.964  21.149  0.00  0.00    +0.000 A 
ATOM     17  C   UNL     1       0.853   2.999  19.854  0.00  0.00    +0.000 A 
ATOM     18  O   UNL     1       1.365   4.070  19.196  0.00  0.00    +0.000 OA
ENDBRANCH  13  14
ENDBRANCH  11  13
ENDBRANCH   2   9
BRANCH   2  19
ATOM     19  C   UNL     1       7.205   4.616  17.576  0.00  0.00    +0.000 C 
ATOM     20  N   UNL     1       8.269   4.225  17.799  0.00  0.00    +0.000 NA
ENDBRANCH   2  19
TORSDOF 5
ENDMDL
MODEL 2
REMARK VINA RESULT:      -7.1      2.034      6.903
REMARK  Name = 
REMARK  6 active torsions:
REMARK  status: ('A' for Active; 'I' for Inactive)
REMARK    1  A    between atoms: C_1  and  C_2
REMARK    2  A    between atoms: C_5  and  C_6
REMARK    3  A    between atoms: C_7  and  C_8
REMARK    4  A    between atoms: C_7  and  C_10
REMARK    5  A    between atoms: N_12  and  C_13
REMARK    6  A    between atoms: C_13  and  C_14
REMARK                            x       y       z     vdW  Elec       q    Type
REMARK                         _______ _______ _______ _____ _____    ______ ____
ROOT
ATOM      1  C   UNL     1       4.335   4.063  17.311  0.00  0.00    +0.000 C 
ATOM      2  C   UNL     1       5.612   4.443  17.513  0.00  0.00    +0.000 C 
ENDROOT
BRANCH   1   7
ATOM      3  C   UNL     1       2.266   2.761  21.559  0.00  0.00    +0.000 C 
ATOM      4  C   UNL     1       2.335   3.462  20.262  0.00  0.00    +0.000 A 
ATOM      5  C   UNL     1       1.463   4.301  19.622  0.00  0.00    +0.000 A 
ATOM      6  C   UNL     1       2.086   4.656  18.401  0.00  0.00    +0.000 A 
ATOM      7  C   UNL     1       3.329   4.019  18.337  0.00  0.00    +0.000 A 
ATOM      8  O   UNL     1       3.450   3.287  19.506  0.00  0.00    +0.000 OA
ENDBRANCH   1   7
BRANCH   2   9
ATOM      9  C   UNL     1       6.583   4.444  16.349  0.00  0.00    +0.000 C 
ATOM     10  O   UNL     1       7.800   4.416  16.526  0.00  0.00    +0.000 OA
ATOM     11  N   UNL     1       6.017   4.491  15.089  0.00  0.00    +0.000 N 
ATOM     12  H   UNL     1       5.010   4.473  14.958  0.00  0.00    +0.000 HD
BRANCH  11  13
ATOM     13  C   UNL     1       6.809   4.484  13.873  0.00  0.00    +0.000 C 
BRANCH  13  14
ATOM     14  C   UNL     1       6.138   3.650  12.833  0.00  0.00    +0.000 A 
ATOM     15  C   UNL     1       6.542   2.604  12.021  0.00  0.00    +0.000 A 
ATOM     16  C   UNL     1       5.413   2.229  11.250  0.00  0.00    +0.000 A 
ATOM     17  C   UNL     1       4.393   3.061  11.640  0.00  0.00    +0.000 A 
ATOM     18  O   UNL     1       4.818   3.922  12.599  0.00  0.00    +0.000 OA
ENDBRANCH  13  14
ENDBRANCH  11  13
ENDBRANCH   2   9
BRANCH   2  19
ATOM     19  C   UNL     1       6.124   4.849  18.778  0.00  0.00    +0.000 C 
ATOM     20  N   UNL     1       6.540   5.296  19.759  0.00  0.00    +0.000 NA
ENDBRANCH   2  19
TORSDOF 5
ENDMDL
MODEL 3
REMARK VINA RESULT:      -7.0      0.779      1.266
REMARK  Name = 
REMARK  6 active torsions:
REMARK  status: ('A' for Active; 'I' for Inactive)
REMARK    1  A    between atoms: C_1  and  C_2
REMARK    2  A    between atoms: C_5  and  C_6
REMARK    3  A    between atoms: C_7  and  C_8
REMARK    4  A    between atoms: C_7  and  C_10
REMARK    5  A    between atoms: N_12  and  C_13
REMARK    6  A    between atoms: C_13  and  C_14
REMARK                            x       y       z     vdW  Elec       q    Type
REMARK                         _______ _______ _______ _____ _____    ______ ____
ROOT
ATOM      1  C   UNL     1       5.226   5.000  16.114  0.00  0.00    +0.000 C 
ATOM      2  C   UNL     1       5.841   4.925  17.311  0.00  0.00    +0.000 C 
ENDROOT
BRANCH   1   7
ATOM      3  C   UNL     1       5.757   2.753  11.791  0.00  0.00    +0.000 C 
ATOM      4  C   UNL     1       6.143   3.673  12.879  0.00  0.00    +0.000 A 
ATOM      5  C   UNL     1       7.217   4.506  13.042  0.00  0.00    +0.000 A 
ATOM      6  C   UNL     1       7.036   5.136  14.296  0.00  0.00    +0.000 A 
ATOM      7  C   UNL     1       5.847   4.665  14.861  0.00  0.00    +0.000 A 
ATOM      8  O   UNL     1       5.320   3.759  13.956  0.00  0.00    +0.000 OA
ENDBRANCH   1   7
BRANCH   2   9
ATOM      9  C   UNL     1       5.081   5.309  18.565  0.00  0.00    +0.000 C 
ATOM     10  O   UNL     1       5.632   5.352  19.663  0.00  0.00    +0.000 OA
ATOM     11  N   UNL     1       3.739   5.591  18.396  0.00  0.00    +0.000 N 
ATOM     12  H   UNL     1       3.307   5.591  17.477  0.00  0.00    +0.000 HD
BRANCH  11  13
ATOM     13  C   UNL     1       2.876   5.987  19.494  0.00  0.00    +0.000 C 
BRANCH  13  14
ATOM     14  C   UNL     1       2.199   4.787  20.067  0.00  0.00    +0.000 A 
ATOM     15  C   UNL     1       2.198   4.175  21.309  0.00  0.00    +0.000 A 
ATOM     16  C   UNL     1       1.322   3.064  21.213  0.00  0.00    +0.000 A 
ATOM     17  C   UNL     1       0.842   3.067  19.926  0.00  0.00    +0.000 A 
ATOM     18  O   UNL     1       1.362   4.106  19.225  0.00  0.00    +0.000 OA
ENDBRANCH  13  14
ENDBRANCH  11  13
ENDBRANCH   2   9
BRANCH   2  19
ATOM     19  C   UNL     1       7.191   4.504  17.480  0.00  0.00    +0.000 C 
ATOM     20  N   UNL     1       8.285   4.227  17.727  0.00  0.00    +0.000 NA
ENDBRANCH   2  19
TORSDOF 5
ENDMDL
MODEL 4
REMARK VINA RESULT:      -6.8      2.034      6.886
REMARK  Name = 
REMARK  6 active torsions:
REMARK  status: ('A' for Active; 'I' for Inactive)
REMARK    1  A    between atoms: C_1  and  C_2
REMARK    2  A    between atoms: C_5  and  C_6
REMARK    3  A    between atoms: C_7  and  C_8
REMARK    4  A    between atoms: C_7  and  C_10
REMARK    5  A    between atoms: N_12  and  C_13
REMARK    6  A    between atoms: C_13  and  C_14
REMARK                            x       y       z     vdW  Elec       q    Type
REMARK                         _______ _______ _______ _____ _____    ______ ____
ROOT
ATOM      1  C   UNL     1       4.738   3.951  17.437  0.00  0.00    +0.000 C 
ATOM      2  C   UNL     1       5.867   4.684  17.503  0.00  0.00    +0.000 C 
ENDROOT
BRANCH   1   7
ATOM      3  C   UNL     1       1.034   4.076  20.644  0.00  0.00    +0.000 C 
ATOM      4  C   UNL     1       2.295   3.565  20.074  0.00  0.00    +0.000 A 
ATOM      5  C   UNL     1       3.129   2.546  20.451  0.00  0.00    +0.000 A 
ATOM      6  C   UNL     1       4.186   2.538  19.511  0.00  0.00    +0.000 A 
ATOM      7  C   UNL     1       3.960   3.557  18.581  0.00  0.00    +0.000 A 
ATOM      8  O   UNL     1       2.780   4.174  18.961  0.00  0.00    +0.000 OA
ENDBRANCH   1   7
BRANCH   2   9
ATOM      9  C   UNL     1       6.603   5.034  16.224  0.00  0.00    +0.000 C 
ATOM     10  O   UNL     1       7.444   5.931  16.191  0.00  0.00    +0.000 OA
ATOM     11  N   UNL     1       6.260   4.295  15.108  0.00  0.00    +0.000 N 
ATOM     12  H   UNL     1       5.593   3.531  15.160  0.00  0.00    +0.000 HD
BRANCH  11  13
ATOM     13  C   UNL     1       6.882   4.499  13.812  0.00  0.00    +0.000 C 
BRANCH  13  14
ATOM     14  C   UNL     1       6.207   3.652  12.785  0.00  0.00    +0.000 A 
ATOM     15  C   UNL     1       6.622   2.637  11.940  0.00  0.00    +0.000 A 
ATOM     16  C   UNL     1       5.479   2.227  11.207  0.00  0.00    +0.000 A 
ATOM     17  C   UNL     1       4.442   3.009  11.650  0.00  0.00    +0.000 A 
ATOM     18  O   UNL     1       4.868   3.873  12.606  0.00  0.00    +0.000 OA
ENDBRANCH  13  14
ENDBRANCH  11  13
ENDBRANCH   2   9
BRANCH   2  19
ATOM     19  C   UNL     1       6.432   5.159  18.720  0.00  0.00    +0.000 C 
ATOM     20  N   UNL     1       6.960   5.439  19.709  0.00  0.00    +0.000 NA
ENDBRANCH   2  19
TORSDOF 5
ENDMDL
MODEL 5
REMARK VINA RESULT:      -6.8      1.679      7.215
REMARK  Name = 
REMARK  6 active torsions:
REMARK  status: ('A' for Active; 'I' for Inactive)
REMARK    1  A    between atoms: C_1  and  C_2
REMARK    2  A    between atoms: C_5  and  C_6
REMARK    3  A    between atoms: C_7  and  C_8
REMARK    4  A    between atoms: C_7  and  C_10
REMARK    5  A    between atoms: N_12  and  C_13
REMARK    6  A    between atoms: C_13  and  C_14
REMARK                            x       y       z     vdW  Elec       q    Type
REMARK                         _______ _______ _______ _____ _____    ______ ____
ROOT
ATOM      1  C   UNL     1       3.731   4.193  17.844  0.00  0.00    +0.000 C 
ATOM      2  C   UNL     1       3.963   5.504  17.634  0.00  0.00    +0.000 C 
ENDROOT
BRANCH   1   7
ATOM      3  C   UNL     1       1.422   2.618  21.870  0.00  0.00    +0.000 C 
ATOM      4  C   UNL     1       1.539   2.952  20.437  0.00  0.00    +0.000 A 
ATOM      5  C   UNL     1       0.648   2.880  19.400  0.00  0.00    +0.000 A 
ATOM      6  C   UNL     1       1.343   3.337  18.255  0.00  0.00    +0.000 A 
ATOM      7  C   UNL     1       2.645   3.679  18.634  0.00  0.00    +0.000 A 
ATOM      8  O   UNL     1       2.732   3.426  19.993  0.00  0.00    +0.000 OA
ENDBRANCH   1   7
BRANCH   2   9
ATOM      9  C   UNL     1       5.145   5.924  16.782  0.00  0.00    +0.000 C 
ATOM     10  O   UNL     1       5.318   7.098  16.458  0.00  0.00    +0.000 OA
ATOM     11  N   UNL     1       5.997   4.910  16.389  0.00  0.00    +0.000 N 
ATOM     12  H   UNL     1       5.863   3.953  16.698  0.00  0.00    +0.000 HD
BRANCH  11  13
ATOM     13  C   UNL     1       7.180   5.149  15.582  0.00  0.00    +0.000 C 
BRANCH  13  14
ATOM     14  C   UNL     1       6.960   4.646  14.195  0.00  0.00    +0.000 A 
ATOM     15  C   UNL     1       6.142   3.682  13.631  0.00  0.00    +0.000 A 
ATOM     16  C   UNL     1       6.398   3.696  12.237  0.00  0.00    +0.000 A 
ATOM     17  C   UNL     1       7.349   4.665  12.034  0.00  0.00    +0.000 A 
ATOM     18  O   UNL     1       7.694   5.249  13.210  0.00  0.00    +0.000 OA
ENDBRANCH  13  14
ENDBRANCH  11  13
ENDBRANCH   2   9
BRANCH   2  19
ATOM     19  C   UNL     1       3.158   6.546  18.177  0.00  0.00    +0.000 C 
ATOM     20  N   UNL     1       2.417   7.356  18.535  0.00  0.00    +0.000 NA
ENDBRANCH   2  19
TORSDOF 5
ENDMDL
MODEL 6
REMARK VINA RESULT:      -6.8      1.705      7.022
REMARK  Name = 
REMARK  6 active torsions:
REMARK  status: ('A' for Active; 'I' for Inactive)
REMARK    1  A    between atoms: C_1  and  C_2
REMARK    2  A    between atoms: C_5  and  C_6
REMARK    3  A    between atoms: C_7  and  C_8
REMARK    4  A    between atoms: C_7  and  C_10
REMARK    5  A    between atoms: N_12  and  C_13
REMARK    6  A    between atoms: C_13  and  C_14
REMARK                            x       y       z     vdW  Elec       q    Type
REMARK                         _______ _______ _______ _____ _____    ______ ____
ROOT
ATOM      1  C   UNL     1       3.647   5.300  17.608  0.00  0.00    +0.000 C 
ATOM      2  C   UNL     1       4.987   5.424  17.545  0.00  0.00    +0.000 C 
ENDROOT
BRANCH   1   7
ATOM      3  C   UNL     1       1.496   2.685  21.153  0.00  0.00    +0.000 C 
ATOM      4  C   UNL     1       1.914   3.924  20.467  0.00  0.00    +0.000 A 
ATOM      5  C   UNL     1       1.736   5.247  20.769  0.00  0.00    +0.000 A 
ATOM      6  C   UNL     1       2.363   5.974  19.730  0.00  0.00    +0.000 A 
ATOM      7  C   UNL     1       2.911   5.063  18.821  0.00  0.00    +0.000 A 
ATOM      8  O   UNL     1       2.612   3.802  19.309  0.00  0.00    +0.000 OA
ENDBRANCH   1   7
BRANCH   2   9
ATOM      9  C   UNL     1       5.650   5.669  16.203  0.00  0.00    +0.000 C 
ATOM     10  O   UNL     1       5.511   6.734  15.603  0.00  0.00    +0.000 OA
ATOM     11  N   UNL     1       6.402   4.625  15.701  0.00  0.00    +0.000 N 
ATOM     12  H   UNL     1       6.541   3.768  16.227  0.00  0.00    +0.000 HD
BRANCH  11  13
ATOM     13  C   UNL     1       7.110   4.707  14.436  0.00  0.00    +0.000 C 
BRANCH  13  14
ATOM     14  C   UNL     1       6.336   4.002  13.373  0.00  0.00    +0.000 A 
ATOM     15  C   UNL     1       4.988   3.851  13.094  0.00  0.00    +0.000 A 
ATOM     16  C   UNL     1       4.903   3.067  11.916  0.00  0.00    +0.000 A 
ATOM     17  C   UNL     1       6.196   2.792  11.547  0.00  0.00    +0.000 A 
ATOM     18  O   UNL     1       7.072   3.355  12.418  0.00  0.00    +0.000 OA
ENDBRANCH  13  14
ENDBRANCH  11  13
ENDBRANCH   2   9
BRANCH   2  19
ATOM     19  C   UNL     1       5.844   5.330  18.678  0.00  0.00    +0.000 C 
ATOM     20  N   UNL     1       6.438   5.281  19.668  0.00  0.00    +0.000 NA
ENDBRANCH   2  19
TORSDOF 5
ENDMDL
MODEL 7
REMARK VINA RESULT:      -6.7      1.981      7.154
REMARK  Name = 
REMARK  6 active torsions:
REMARK  status: ('A' for Active; 'I' for Inactive)
REMARK    1  A    between atoms: C_1  and  C_2
REMARK    2  A    between atoms: C_5  and  C_6
REMARK    3  A    between atoms: C_7  and  C_8
REMARK    4  A    between atoms: C_7  and  C_10
REMARK    5  A    between atoms: N_12  and  C_13
REMARK    6  A    between atoms: C_13  and  C_14
REMARK                            x       y       z     vdW  Elec       q    Type
REMARK                         _______ _______ _______ _____ _____    ______ ____
ROOT
ATOM      1  C   UNL     1       3.783   3.915  17.382  0.00  0.00    +0.000 C 
ATOM      2  C   UNL     1       4.149   5.181  17.100  0.00  0.00    +0.000 C 
ENDROOT
BRANCH   1   7
ATOM      3  C   UNL     1       2.048   2.922  21.857  0.00  0.00    +0.000 C 
ATOM      4  C   UNL     1       1.960   3.095  20.394  0.00  0.00    +0.000 A 
ATOM      5  C   UNL     1       0.918   2.971  19.515  0.00  0.00    +0.000 A 
ATOM      6  C   UNL     1       1.450   3.260  18.235  0.00  0.00    +0.000 A 
ATOM      7  C   UNL     1       2.809   3.557  18.377  0.00  0.00    +0.000 A 
ATOM      8  O   UNL     1       3.091   3.443  19.728  0.00  0.00    +0.000 OA
ENDBRANCH   1   7
BRANCH   2   9
ATOM      9  C   UNL     1       5.193   5.433  16.029  0.00  0.00    +0.000 C 
ATOM     10  O   UNL     1       5.708   6.540  15.881  0.00  0.00    +0.000 OA
ATOM     11  N   UNL     1       5.512   4.352  15.230  0.00  0.00    +0.000 N 
ATOM     12  H   UNL     1       5.108   3.435  15.390  0.00  0.00    +0.000 HD
BRANCH  11  13
ATOM     13  C   UNL     1       6.500   4.426  14.169  0.00  0.00    +0.000 C 
BRANCH  13  14
ATOM     14  C   UNL     1       6.031   3.652  12.982  0.00  0.00    +0.000 A 
ATOM     15  C   UNL     1       6.612   2.713  12.146  0.00  0.00    +0.000 A 
ATOM     16  C   UNL     1       5.621   2.343  11.202  0.00  0.00    +0.000 A 
ATOM     17  C   UNL     1       4.501   3.071  11.520  0.00  0.00    +0.000 A 
ATOM     18  O   UNL     1       4.735   3.863  12.596  0.00  0.00    +0.000 OA
ENDBRANCH  13  14
ENDBRANCH  11  13
ENDBRANCH   2   9
BRANCH   2  19
ATOM     19  C   UNL     1       3.616   6.325  17.760  0.00  0.00    +0.000 C 
ATOM     20  N   UNL     1       3.186   7.310  18.182  0.00  0.00    +0.000 NA
ENDBRANCH   2  19
TORSDOF 5
ENDMDL
MODEL 8
REMARK VINA RESULT:      -6.6      1.656      2.030
REMARK  Name = 
REMARK  6 active torsions:
REMARK  status: ('A' for Active; 'I' for Inactive)
REMARK    1  A    between atoms: C_1  and  C_2
REMARK    2  A    between atoms: C_5  and  C_6
REMARK    3  A    between atoms: C_7  and  C_8
REMARK    4  A    between atoms: C_7  and  C_10
REMARK    5  A    between atoms: N_12  and  C_13
REMARK    6  A    between atoms: C_13  and  C_14
REMARK                            x       y       z     vdW  Elec       q    Type
REMARK                         _______ _______ _______ _____ _____    ______ ____
ROOT
ATOM      1  C   UNL     1       6.102   3.899  16.082  0.00  0.00    +0.000 C 
ATOM      2  C   UNL     1       5.625   4.808  16.955  0.00  0.00    +0.000 C 
ENDROOT
BRANCH   1   7
ATOM      3  C   UNL     1       8.641   6.050  12.483  0.00  0.00    +0.000 C 
ATOM      4  C   UNL     1       7.618   5.147  13.047  0.00  0.00    +0.000 A 
ATOM      5  C   UNL     1       6.713   4.303  12.461  0.00  0.00    +0.000 A 
ATOM      6  C   UNL     1       5.996   3.702  13.522  0.00  0.00    +0.000 A 
ATOM      7  C   UNL     1       6.493   4.200  14.731  0.00  0.00    +0.000 A 
ATOM      8  O   UNL     1       7.496   5.094  14.398  0.00  0.00    +0.000 OA
ENDBRANCH   1   7
BRANCH   2   9
ATOM      9  C   UNL     1       5.243   4.368  18.355  0.00  0.00    +0.000 C 
ATOM     10  O   UNL     1       5.280   5.146  19.306  0.00  0.00    +0.000 OA
ATOM     11  N   UNL     1       4.866   3.045  18.491  0.00  0.00    +0.000 N 
ATOM     12  H   UNL     1       4.802   2.426  17.689  0.00  0.00    +0.000 HD
BRANCH  11  13
ATOM     13  C   UNL     1       4.460   2.473  19.761  0.00  0.00    +0.000 C 
BRANCH  13  14
ATOM     14  C   UNL     1       3.017   2.759  20.010  0.00  0.00    +0.000 A 
ATOM     15  C   UNL     1       1.940   3.087  19.204  0.00  0.00    +0.000 A 
ATOM     16  C   UNL     1       0.817   3.217  20.059  0.00  0.00    +0.000 A 
ATOM     17  C   UNL     1       1.273   2.958  21.328  0.00  0.00    +0.000 A 
ATOM     18  O   UNL     1       2.601   2.677  21.311  0.00  0.00    +0.000 OA
ENDBRANCH  13  14
ENDBRANCH  11  13
ENDBRANCH   2   9
BRANCH   2  19
ATOM     19  C   UNL     1       5.445   6.186  16.642  0.00  0.00    +0.000 C 
ATOM     20  N   UNL     1       5.175   7.283  16.402  0.00  0.00    +0.000 NA
ENDBRANCH   2  19
TORSDOF 5
ENDMDL
MODEL 9
REMARK VINA RESULT:      -6.6      1.979      6.874
REMARK  Name = 
REMARK  6 active torsions:
REMARK  status: ('A' for Active; 'I' for Inactive)
REMARK    1  A    between atoms: C_1  and  C_2
REMARK    2  A    between atoms: C_5  and  C_6
REMARK    3  A    between atoms: C_7  and  C_8
REMARK    4  A    between atoms: C_7  and  C_10
REMARK    5  A    between atoms: N_12  and  C_13
REMARK    6  A    between atoms: C_13  and  C_14
REMARK                            x       y       z     vdW  Elec       q    Type
REMARK                         _______ _______ _______ _____ _____    ______ ____
ROOT
ATOM      1  C   UNL     1       4.659   5.668  16.968  0.00  0.00    +0.000 C 
ATOM      2  C   UNL     1       5.931   5.312  17.237  0.00  0.00    +0.000 C 
ENDROOT
BRANCH   1   7
ATOM      3  C   UNL     1       1.616   5.174  20.778  0.00  0.00    +0.000 C 
ATOM      4  C   UNL     1       2.301   5.910  19.698  0.00  0.00    +0.000 A 
ATOM      5  C   UNL     1       2.247   7.218  19.298  0.00  0.00    +0.000 A 
ATOM      6  C   UNL     1       3.131   7.328  18.198  0.00  0.00    +0.000 A 
ATOM      7  C   UNL     1       3.703   6.074  17.963  0.00  0.00    +0.000 A 
ATOM      8  O   UNL     1       3.165   5.219  18.910  0.00  0.00    +0.000 OA
ENDBRANCH   1   7
BRANCH   2   9
ATOM      9  C   UNL     1       6.845   4.900  16.100  0.00  0.00    +0.000 C 
ATOM     10  O   UNL     1       7.954   4.410  16.312  0.00  0.00    +0.000 OA
ATOM     11  N   UNL     1       6.361   5.119  14.825  0.00  0.00    +0.000 N 
ATOM     12  H   UNL     1       5.428   5.487  14.667  0.00  0.00    +0.000 HD
BRANCH  11  13
ATOM     13  C   UNL     1       7.109   4.768  13.631  0.00  0.00    +0.000 C 
BRANCH  13  14
ATOM     14  C   UNL     1       6.291   3.869  12.765  0.00  0.00    +0.000 A 
ATOM     15  C   UNL     1       4.946   3.788  12.448  0.00  0.00    +0.000 A 
ATOM     16  C   UNL     1       4.806   2.707  11.543  0.00  0.00    +0.000 A 
ATOM     17  C   UNL     1       6.068   2.198  11.359  0.00  0.00    +0.000 A 
ATOM     18  O   UNL     1       6.975   2.895  12.090  0.00  0.00    +0.000 OA
ENDBRANCH  13  14
ENDBRANCH  11  13
ENDBRANCH   2   9
BRANCH   2  19
ATOM     19  C   UNL     1       6.485   5.291  18.549  0.00  0.00    +0.000 C 
ATOM     20  N   UNL     1       6.855   5.368  19.640  0.00  0.00    +0.000 NA
ENDBRANCH   2  19
TORSDOF 5
ENDMDL
