MODEL 1
REMARK VINA RESULT:      -8.2      0.000      0.000
REMARK  Name = 
REMARK  17 active torsions:
REMARK  status: ('A' for Active; 'I' for Inactive)
REMARK    1  A    between atoms: C_1  and  O_2
REMARK    2  A    between atoms: O_2  and  C_3
REMARK    3  A    between atoms: C_5  and  C_6
REMARK    4  A    between atoms: C_6  and  C_7
REMARK    5  A    between atoms: C_7  and  N_8
REMARK    6  A    between atoms: N_8  and  C_9
REMARK    7  A    between atoms: C_9  and  C_10
REMARK    8  A    between atoms: C_10  and  C_11
REMARK    9  A    between atoms: C_11  and  O_12
REMARK   10  A    between atoms: O_12  and  C_13
REMARK   11  A    between atoms: C_16  and  O_17
REMARK   12  A    between atoms: C_18  and  O_19
REMARK   13  A    between atoms: C_23  and  O_24
REMARK   14  A    between atoms: O_24  and  C_25
REMARK   15  A    between atoms: C_25  and  C_26
REMARK   16  A    between atoms: C_26  and  C_27
REMARK   17  A    between atoms: C_27  and  C_28
REMARK                            x       y       z     vdW  Elec       q    Type
REMARK                         _______ _______ _______ _____ _____    ______ ____
ROOT
ATOM      1  C   UNL     1       6.684   5.186  15.906  0.00  0.00    +0.000 A 
ATOM      2  C   UNL     1       5.748   4.178  16.148  0.00  0.00    +0.000 A 
ATOM      3  C   UNL     1       5.128   4.050  17.399  0.00  0.00    +0.000 A 
ATOM      4  C   UNL     1       5.461   4.943  18.422  0.00  0.00    +0.000 A 
ATOM      5  C   UNL     1       6.346   5.991  18.174  0.00  0.00    +0.000 A 
ATOM      6  C   UNL     1       6.932   6.142  16.914  0.00  0.00    +0.000 A 
ENDROOT
BRANCH   1   8
ATOM      7  C   UNL     1       6.964   4.527  13.607  0.00  0.00    +0.000 C 
ATOM      8  O   UNL     1       7.371   5.292  14.732  0.00  0.00    +0.000 OA
ENDBRANCH   1   8
BRANCH   3   9
ATOM      9  C   UNL     1       4.083   2.983  17.600  0.00  0.00    +0.000 C 
BRANCH   9  10
ATOM     10  C   UNL     1       2.737   3.450  17.038  0.00  0.00    +0.000 C 
BRANCH  10  11
ATOM     11  N   UNL     1       1.960   4.139  18.068  0.00  0.00    +0.000 NA
ATOM     12  H   UNL     1       1.098   4.480  17.646  0.00  0.00    +0.000 HD
BRANCH  11  13
ATOM     13  C   UNL     1       1.673   3.227  19.176  0.00  0.00    +0.000 C 
BRANCH  13  14
ATOM     14  C   UNL     1       2.140   3.794  20.515  0.00  0.00    +0.000 C 
BRANCH  14  15
ATOM     15  C   UNL     1       1.710   5.242  20.706  0.00  0.00    +0.000 C 
BRANCH  15  16
ATOM     16  O   UNL     1       2.689   6.101  20.123  0.00  0.00    +0.000 OA
BRANCH  16  17
ATOM     17  C   UNL     1       2.219   7.305  19.662  0.00  0.00    +0.000 A 
ATOM     18  C   UNL     1       2.569   7.602  18.339  0.00  0.00    +0.000 A 
ATOM     19  C   UNL     1       2.171   8.801  17.742  0.00  0.00    +0.000 A 
ATOM     20  C   UNL     1       1.423   9.693  18.486  0.00  0.00    +0.000 A 
ATOM     21  C   UNL     1       1.073   9.404  19.799  0.00  0.00    +0.000 A 
ATOM     22  C   UNL     1       1.459   8.215  20.398  0.00  0.00    +0.000 A 
BRANCH  20  23
ATOM     23  O   UNL     1       0.986  10.902  18.014  0.00  0.00    +0.000 OA
ATOM     24  H   UNL     1       0.992  11.526  18.750  0.00  0.00    +0.000 HD
ENDBRANCH  20  23
BRANCH  21  25
ATOM     25  O   UNL     1       0.339  10.325  20.484  0.00  0.00    +0.000 OA
ATOM     26  H   UNL     1       0.668  11.172  20.107  0.00  0.00    +0.000 HD
ENDBRANCH  21  25
ENDBRANCH  16  17
ENDBRANCH  15  16
ENDBRANCH  14  15
ENDBRANCH  13  14
ENDBRANCH  11  13
ENDBRANCH  10  11
ENDBRANCH   9  10
ENDBRANCH   3   9
BRANCH   6  27
ATOM     27  O   UNL     1       7.745   7.251  16.806  0.00  0.00    +0.000 OA
BRANCH  27  28
ATOM     28  C   UNL     1       8.015   7.881  18.056  0.00  0.00    +0.000 C 
BRANCH  28  29
ATOM     29  C   UNL     1       8.357   9.356  17.874  0.00  0.00    +0.000 C 
BRANCH  29  30
ATOM     30  C   UNL     1       8.944   9.861  19.194  0.00  0.00    +0.000 C 
BRANCH  30  31
ATOM     31  C   UNL     1       9.999  10.916  19.039  0.00  0.00    +0.000 A 
ATOM     32  C   UNL     1      10.354  11.390  17.768  0.00  0.00    +0.000 A 
ATOM     33  C   UNL     1      11.282  12.423  17.636  0.00  0.00    +0.000 A 
ATOM     34  C   UNL     1      11.867  12.985  18.771  0.00  0.00    +0.000 A 
ATOM     35  C   UNL     1      11.533  12.506  20.037  0.00  0.00    +0.000 A 
ATOM     36  C   UNL     1      10.608  11.472  20.172  0.00  0.00    +0.000 A 
ENDBRANCH  30  31
ENDBRANCH  29  30
ENDBRANCH  28  29
ENDBRANCH  27  28
ENDBRANCH   6  27
TORSDOF 16
ENDMDL
MODEL 2
REMARK VINA RESULT:      -7.3      1.133      1.842
REMARK  Name = 
REMARK  17 active torsions:
REMARK  status: ('A' for Active; 'I' for Inactive)
REMARK    1  A    between atoms: C_1  and  O_2
REMARK    2  A    between atoms: O_2  and  C_3
REMARK    3  A    between atoms: C_5  and  C_6
REMARK    4  A    between atoms: C_6  and  C_7
REMARK    5  A    between atoms: C_7  and  N_8
REMARK    6  A    between atoms: N_8  and  C_9
REMARK    7  A    between atoms: C_9  and  C_10
REMARK    8  A    between atoms: C_10  and  C_11
REMARK    9  A    between atoms: C_11  and  O_12
REMARK   10  A    between atoms: O_12  and  C_13
REMARK   11  A    between atoms: C_16  and  O_17
REMARK   12  A    between atoms: C_18  and  O_19
REMARK   13  A    between atoms: C_23  and  O_24
REMARK   14  A    between atoms: O_24  and  C_25
REMARK   15  A    between atoms: C_25  and  C_26
REMARK   16  A    between atoms: C_26  and  C_27
REMARK   17  A    between atoms: C_27  and  C_28
REMARK                            x       y       z     vdW  Elec       q    Type
REMARK                         _______ _______ _______ _____ _____    ______ ____
ROOT
ATOM      1  C   UNL     1       6.619   5.736  18.472  0.00  0.00    +0.000 A 
ATOM      2  C   UNL     1       5.752   4.652  18.626  0.00  0.00    +0.000 A 
ATOM      3  C   UNL     1       4.830   4.314  17.626  0.00  0.00    +0.000 A 
ATOM      4  C   UNL     1       4.773   5.083  16.460  0.00  0.00    +0.000 A 
ATOM      5  C   UNL     1       5.675   6.129  16.268  0.00  0.00    +0.000 A 
ATOM      6  C   UNL     1       6.622   6.439  17.248  0.00  0.00    +0.000 A 
ENDROOT
BRANCH   1   8
ATOM      7  C   UNL     1       8.320   5.205  20.093  0.00  0.00    +0.000 C 
ATOM      8  O   UNL     1       7.471   6.148  19.456  0.00  0.00    +0.000 OA
ENDBRANCH   1   8
BRANCH   3   9
ATOM      9  C   UNL     1       3.953   3.103  17.809  0.00  0.00    +0.000 C 
BRANCH   9  10
ATOM     10  C   UNL     1       4.222   2.455  19.170  0.00  0.00    +0.000 C 
BRANCH  10  11
ATOM     11  N   UNL     1       3.453   3.123  20.220  0.00  0.00    +0.000 NA
ATOM     12  H   UNL     1       3.545   4.130  20.095  0.00  0.00    +0.000 HD
BRANCH  11  13
ATOM     13  C   UNL     1       2.049   2.715  20.151  0.00  0.00    +0.000 C 
BRANCH  13  14
ATOM     14  C   UNL     1       1.106   3.915  20.200  0.00  0.00    +0.000 C 
BRANCH  14  15
ATOM     15  C   UNL     1       1.744   5.119  20.881  0.00  0.00    +0.000 C 
BRANCH  15  16
ATOM     16  O   UNL     1       2.647   5.746  19.972  0.00  0.00    +0.000 OA
BRANCH  16  17
ATOM     17  C   UNL     1       2.276   6.992  19.536  0.00  0.00    +0.000 A 
ATOM     18  C   UNL     1       2.668   7.294  18.225  0.00  0.00    +0.000 A 
ATOM     19  C   UNL     1       2.369   8.534  17.653  0.00  0.00    +0.000 A 
ATOM     20  C   UNL     1       1.677   9.461  18.409  0.00  0.00    +0.000 A 
ATOM     21  C   UNL     1       1.286   9.167  19.709  0.00  0.00    +0.000 A 
ATOM     22  C   UNL     1       1.574   7.938  20.283  0.00  0.00    +0.000 A 
BRANCH  20  23
ATOM     23  O   UNL     1       1.339  10.710  17.961  0.00  0.00    +0.000 OA
ATOM     24  H   UNL     1       1.075  11.237  18.726  0.00  0.00    +0.000 HD
ENDBRANCH  20  23
BRANCH  21  25
ATOM     25  O   UNL     1       0.611  10.124  20.406  0.00  0.00    +0.000 OA
ATOM     26  H   UNL     1       0.088   9.585  21.041  0.00  0.00    +0.000 HD
ENDBRANCH  21  25
ENDBRANCH  16  17
ENDBRANCH  15  16
ENDBRANCH  14  15
ENDBRANCH  13  14
ENDBRANCH  11  13
ENDBRANCH  10  11
ENDBRANCH   9  10
ENDBRANCH   3   9
BRANCH   6  27
ATOM     27  O   UNL     1       7.476   7.462  16.895  0.00  0.00    +0.000 OA
BRANCH  27  28
ATOM     28  C   UNL     1       7.239   8.671  17.613  0.00  0.00    +0.000 C 
BRANCH  28  29
ATOM     29  C   UNL     1       8.440   9.609  17.534  0.00  0.00    +0.000 C 
BRANCH  29  30
ATOM     30  C   UNL     1       8.945   9.833  18.961  0.00  0.00    +0.000 C 
BRANCH  30  31
ATOM     31  C   UNL     1      10.011  10.882  19.084  0.00  0.00    +0.000 A 
ATOM     32  C   UNL     1      10.699  11.336  17.950  0.00  0.00    +0.000 A 
ATOM     33  C   UNL     1      11.636  12.364  18.059  0.00  0.00    +0.000 A 
ATOM     34  C   UNL     1      11.897  12.940  19.302  0.00  0.00    +0.000 A 
ATOM     35  C   UNL     1      11.230  12.480  20.437  0.00  0.00    +0.000 A 
ATOM     36  C   UNL     1      10.295  11.452  20.331  0.00  0.00    +0.000 A 
ENDBRANCH  30  31
ENDBRANCH  29  30
ENDBRANCH  28  29
ENDBRANCH  27  28
ENDBRANCH   6  27
TORSDOF 16
ENDMDL
MODEL 3
REMARK VINA RESULT:      -7.0      1.094      1.525
REMARK  Name = 
REMARK  17 active torsions:
REMARK  status: ('A' for Active; 'I' for Inactive)
REMARK    1  A    between atoms: C_1  and  O_2
REMARK    2  A    between atoms: O_2  and  C_3
REMARK    3  A    between atoms: C_5  and  C_6
REMARK    4  A    between atoms: C_6  and  C_7
REMARK    5  A    between atoms: C_7  and  N_8
REMARK    6  A    between atoms: N_8  and  C_9
REMARK    7  A    between atoms: C_9  and  C_10
REMARK    8  A    between atoms: C_10  and  C_11
REMARK    9  A    between atoms: C_11  and  O_12
REMARK   10  A    between atoms: O_12  and  C_13
REMARK   11  A    between atoms: C_16  and  O_17
REMARK   12  A    between atoms: C_18  and  O_19
REMARK   13  A    between atoms: C_23  and  O_24
REMARK   14  A    between atoms: O_24  and  C_25
REMARK   15  A    between atoms: C_25  and  C_26
REMARK   16  A    between atoms: C_26  and  C_27
REMARK   17  A    between atoms: C_27  and  C_28
REMARK                            x       y       z     vdW  Elec       q    Type
REMARK                         _______ _______ _______ _____ _____    ______ ____
ROOT
ATOM      1  C   UNL     1       6.129   5.321  15.966  0.00  0.00    +0.000 A 
ATOM      2  C   UNL     1       5.149   4.371  16.267  0.00  0.00    +0.000 A 
ATOM      3  C   UNL     1       4.900   3.982  17.590  0.00  0.00    +0.000 A 
ATOM      4  C   UNL     1       5.652   4.549  18.623  0.00  0.00    +0.000 A 
ATOM      5  C   UNL     1       6.588   5.543  18.342  0.00  0.00    +0.000 A 
ATOM      6  C   UNL     1       6.807   5.960  17.026  0.00  0.00    +0.000 A 
ENDROOT
BRANCH   1   8
ATOM      7  C   UNL     1       7.197   4.755  13.883  0.00  0.00    +0.000 C 
ATOM      8  O   UNL     1       6.459   5.664  14.687  0.00  0.00    +0.000 OA
ENDBRANCH   1   8
BRANCH   3   9
ATOM      9  C   UNL     1       3.797   2.996  17.875  0.00  0.00    +0.000 C 
BRANCH   9  10
ATOM     10  C   UNL     1       2.492   3.459  17.221  0.00  0.00    +0.000 C 
BRANCH  10  11
ATOM     11  N   UNL     1       1.736   4.319  18.131  0.00  0.00    +0.000 NA
ATOM     12  H   UNL     1       0.754   4.291  17.858  0.00  0.00    +0.000 HD
BRANCH  11  13
ATOM     13  C   UNL     1       1.906   3.863  19.511  0.00  0.00    +0.000 C 
BRANCH  13  14
ATOM     14  C   UNL     1       2.406   4.982  20.422  0.00  0.00    +0.000 C 
BRANCH  14  15
ATOM     15  C   UNL     1       1.997   6.359  19.916  0.00  0.00    +0.000 C 
BRANCH  15  16
ATOM     16  O   UNL     1       1.668   7.187  21.031  0.00  0.00    +0.000 OA
BRANCH  16  17
ATOM     17  C   UNL     1       1.332   8.481  20.727  0.00  0.00    +0.000 A 
ATOM     18  C   UNL     1       1.511   8.832  19.383  0.00  0.00    +0.000 A 
ATOM     19  C   UNL     1       1.221  10.123  18.931  0.00  0.00    +0.000 A 
ATOM     20  C   UNL     1       0.755  11.052  19.843  0.00  0.00    +0.000 A 
ATOM     21  C   UNL     1       0.576  10.710  21.176  0.00  0.00    +0.000 A 
ATOM     22  C   UNL     1       0.856   9.430  21.632  0.00  0.00    +0.000 A 
BRANCH  20  23
ATOM     23  O   UNL     1       0.449  12.347  19.521  0.00  0.00    +0.000 OA
ATOM     24  H   UNL     1       0.781  12.517  18.631  0.00  0.00    +0.000 HD
ENDBRANCH  20  23
BRANCH  21  25
ATOM     25  O   UNL     1       0.118  11.670  22.028  0.00  0.00    +0.000 OA
ATOM     26  H   UNL     1      -0.450  12.214  21.439  0.00  0.00    +0.000 HD
ENDBRANCH  21  25
ENDBRANCH  16  17
ENDBRANCH  15  16
ENDBRANCH  14  15
ENDBRANCH  13  14
ENDBRANCH  11  13
ENDBRANCH  10  11
ENDBRANCH   9  10
ENDBRANCH   3   9
BRANCH   6  27
ATOM     27  O   UNL     1       7.723   6.984  16.910  0.00  0.00    +0.000 OA
BRANCH  27  28
ATOM     28  C   UNL     1       7.312   8.189  17.550  0.00  0.00    +0.000 C 
BRANCH  28  29
ATOM     29  C   UNL     1       8.453   8.813  18.348  0.00  0.00    +0.000 C 
BRANCH  29  30
ATOM     30  C   UNL     1       8.743  10.187  17.743  0.00  0.00    +0.000 C 
BRANCH  30  31
ATOM     31  C   UNL     1       9.347  11.172  18.700  0.00  0.00    +0.000 A 
ATOM     32  C   UNL     1       9.585  10.815  20.035  0.00  0.00    +0.000 A 
ATOM     33  C   UNL     1      10.214  11.709  20.902  0.00  0.00    +0.000 A 
ATOM     34  C   UNL     1      10.603  12.968  20.444  0.00  0.00    +0.000 A 
ATOM     35  C   UNL     1      10.352  13.336  19.123  0.00  0.00    +0.000 A 
ATOM     36  C   UNL     1       9.721  12.446  18.255  0.00  0.00    +0.000 A 
ENDBRANCH  30  31
ENDBRANCH  29  30
ENDBRANCH  28  29
ENDBRANCH  27  28
ENDBRANCH   6  27
TORSDOF 16
ENDMDL
MODEL 4
REMARK VINA RESULT:      -6.8      1.155      1.816
REMARK  Name = 
REMARK  17 active torsions:
REMARK  status: ('A' for Active; 'I' for Inactive)
REMARK    1  A    between atoms: C_1  and  O_2
REMARK    2  A    between atoms: O_2  and  C_3
REMARK    3  A    between atoms: C_5  and  C_6
REMARK    4  A    between atoms: C_6  and  C_7
REMARK    5  A    between atoms: C_7  and  N_8
REMARK    6  A    between atoms: N_8  and  C_9
REMARK    7  A    between atoms: C_9  and  C_10
REMARK    8  A    between atoms: C_10  and  C_11
REMARK    9  A    between atoms: C_11  and  O_12
REMARK   10  A    between atoms: O_12  and  C_13
REMARK   11  A    between atoms: C_16  and  O_17
REMARK   12  A    between atoms: C_18  and  O_19
REMARK   13  A    between atoms: C_23  and  O_24
REMARK   14  A    between atoms: O_24  and  C_25
REMARK   15  A    between atoms: C_25  and  C_26
REMARK   16  A    between atoms: C_26  and  C_27
REMARK   17  A    between atoms: C_27  and  C_28
REMARK                            x       y       z     vdW  Elec       q    Type
REMARK                         _______ _______ _______ _____ _____    ______ ____
ROOT
ATOM      1  C   UNL     1       6.215   4.629  16.750  0.00  0.00    +0.000 A 
ATOM      2  C   UNL     1       5.465   3.591  17.308  0.00  0.00    +0.000 A 
ATOM      3  C   UNL     1       5.122   3.595  18.667  0.00  0.00    +0.000 A 
ATOM      4  C   UNL     1       5.547   4.653  19.477  0.00  0.00    +0.000 A 
ATOM      5  C   UNL     1       6.242   5.725  18.918  0.00  0.00    +0.000 A 
ATOM      6  C   UNL     1       6.547   5.740  17.554  0.00  0.00    +0.000 A 
ENDROOT
BRANCH   1   8
ATOM      7  C   UNL     1       5.692   4.712  14.400  0.00  0.00    +0.000 C 
ATOM      8  O   UNL     1       6.640   4.620  15.453  0.00  0.00    +0.000 OA
ENDBRANCH   1   8
BRANCH   3   9
ATOM      9  C   UNL     1       4.265   2.484  19.217  0.00  0.00    +0.000 C 
BRANCH   9  10
ATOM     10  C   UNL     1       3.733   1.613  18.075  0.00  0.00    +0.000 C 
BRANCH  10  11
ATOM     11  N   UNL     1       2.340   1.945  17.779  0.00  0.00    +0.000 NA
ATOM     12  H   UNL     1       1.834   1.079  17.600  0.00  0.00    +0.000 HD
BRANCH  11  13
ATOM     13  C   UNL     1       1.747   2.673  18.902  0.00  0.00    +0.000 C 
BRANCH  13  14
ATOM     14  C   UNL     1       0.966   3.900  18.436  0.00  0.00    +0.000 C 
BRANCH  14  15
ATOM     15  C   UNL     1       1.872   4.953  17.812  0.00  0.00    +0.000 C 
BRANCH  15  16
ATOM     16  O   UNL     1       2.550   5.660  18.850  0.00  0.00    +0.000 OA
BRANCH  16  17
ATOM     17  C   UNL     1       2.190   6.974  19.002  0.00  0.00    +0.000 A 
ATOM     18  C   UNL     1       1.738   7.313  20.284  0.00  0.00    +0.000 A 
ATOM     19  C   UNL     1       1.326   8.615  20.581  0.00  0.00    +0.000 A 
ATOM     20  C   UNL     1       1.371   9.566  19.579  0.00  0.00    +0.000 A 
ATOM     21  C   UNL     1       1.818   9.237  18.306  0.00  0.00    +0.000 A 
ATOM     22  C   UNL     1       2.234   7.949  18.004  0.00  0.00    +0.000 A 
BRANCH  20  23
ATOM     23  O   UNL     1       0.983  10.869  19.747  0.00  0.00    +0.000 OA
ATOM     24  H   UNL     1       1.714  11.344  20.160  0.00  0.00    +0.000 HD
ENDBRANCH  20  23
BRANCH  21  25
ATOM     25  O   UNL     1       1.835  10.217  17.360  0.00  0.00    +0.000 OA
ATOM     26  H   UNL     1       1.770  11.031  17.906  0.00  0.00    +0.000 HD
ENDBRANCH  21  25
ENDBRANCH  16  17
ENDBRANCH  15  16
ENDBRANCH  14  15
ENDBRANCH  13  14
ENDBRANCH  11  13
ENDBRANCH  10  11
ENDBRANCH   9  10
ENDBRANCH   3   9
BRANCH   6  27
ATOM     27  O   UNL     1       7.191   6.886  17.139  0.00  0.00    +0.000 OA
BRANCH  27  28
ATOM     28  C   UNL     1       7.624   7.715  18.215  0.00  0.00    +0.000 C 
BRANCH  28  29
ATOM     29  C   UNL     1       8.357   8.952  17.704  0.00  0.00    +0.000 C 
BRANCH  29  30
ATOM     30  C   UNL     1       9.016   9.628  18.908  0.00  0.00    +0.000 C 
BRANCH  30  31
ATOM     31  C   UNL     1       9.510  11.020  18.643  0.00  0.00    +0.000 A 
ATOM     32  C   UNL     1      10.764  11.433  19.114  0.00  0.00    +0.000 A 
ATOM     33  C   UNL     1      11.250  12.703  18.801  0.00  0.00    +0.000 A 
ATOM     34  C   UNL     1      10.483  13.571  18.023  0.00  0.00    +0.000 A 
ATOM     35  C   UNL     1       9.227  13.174  17.569  0.00  0.00    +0.000 A 
ATOM     36  C   UNL     1       8.738  11.906  17.881  0.00  0.00    +0.000 A 
ENDBRANCH  30  31
ENDBRANCH  29  30
ENDBRANCH  28  29
ENDBRANCH  27  28
ENDBRANCH   6  27
TORSDOF 16
ENDMDL
MODEL 5
REMARK VINA RESULT:      -6.7      3.004      8.502
REMARK  Name = 
REMARK  17 active torsions:
REMARK  status: ('A' for Active; 'I' for Inactive)
REMARK    1  A    between atoms: C_1  and  O_2
REMARK    2  A    between atoms: O_2  and  C_3
REMARK    3  A    between atoms: C_5  and  C_6
REMARK    4  A    between atoms: C_6  and  C_7
REMARK    5  A    between atoms: C_7  and  N_8
REMARK    6  A    between atoms: N_8  and  C_9
REMARK    7  A    between atoms: C_9  and  C_10
REMARK    8  A    between atoms: C_10  and  C_11
REMARK    9  A    between atoms: C_11  and  O_12
REMARK   10  A    between atoms: O_12  and  C_13
REMARK   11  A    between atoms: C_16  and  O_17
REMARK   12  A    between atoms: C_18  and  O_19
REMARK   13  A    between atoms: C_23  and  O_24
REMARK   14  A    between atoms: O_24  and  C_25
REMARK   15  A    between atoms: C_25  and  C_26
REMARK   16  A    between atoms: C_26  and  C_27
REMARK   17  A    between atoms: C_27  and  C_28
REMARK                            x       y       z     vdW  Elec       q    Type
REMARK                         _______ _______ _______ _____ _____    ______ ____
ROOT
ATOM      1  C   UNL     1       2.856   4.753  20.090  0.00  0.00    +0.000 A 
ATOM      2  C   UNL     1       3.791   4.332  19.142  0.00  0.00    +0.000 A 
ATOM      3  C   UNL     1       4.070   5.103  18.006  0.00  0.00    +0.000 A 
ATOM      4  C   UNL     1       3.390   6.311  17.816  0.00  0.00    +0.000 A 
ATOM      5  C   UNL     1       2.501   6.772  18.785  0.00  0.00    +0.000 A 
ATOM      6  C   UNL     1       2.256   6.022  19.938  0.00  0.00    +0.000 A 
ENDROOT
BRANCH   1   8
ATOM      7  C   UNL     1       1.462   3.028  21.029  0.00  0.00    +0.000 C 
ATOM      8  O   UNL     1       2.495   3.993  21.164  0.00  0.00    +0.000 OA
ENDBRANCH   1   8
BRANCH   3   9
ATOM      9  C   UNL     1       5.126   4.638  17.038  0.00  0.00    +0.000 C 
BRANCH   9  10
ATOM     10  C   UNL     1       5.248   5.627  15.875  0.00  0.00    +0.000 C 
BRANCH  10  11
ATOM     11  N   UNL     1       6.007   6.810  16.281  0.00  0.00    +0.000 NA
ATOM     12  H   UNL     1       5.474   7.305  16.994  0.00  0.00    +0.000 HD
BRANCH  11  13
ATOM     13  C   UNL     1       7.320   6.413  16.794  0.00  0.00    +0.000 C 
BRANCH  13  14
ATOM     14  C   UNL     1       7.656   7.122  18.104  0.00  0.00    +0.000 C 
BRANCH  14  15
ATOM     15  C   UNL     1       8.033   8.582  17.886  0.00  0.00    +0.000 C 
BRANCH  15  16
ATOM     16  O   UNL     1       8.969   8.976  18.887  0.00  0.00    +0.000 OA
BRANCH  16  17
ATOM     17  C   UNL     1       9.168  10.328  19.010  0.00  0.00    +0.000 A 
ATOM     18  C   UNL     1       9.421  10.766  20.316  0.00  0.00    +0.000 A 
ATOM     19  C   UNL     1       9.631  12.120  20.592  0.00  0.00    +0.000 A 
ATOM     20  C   UNL     1       9.582  13.023  19.547  0.00  0.00    +0.000 A 
ATOM     21  C   UNL     1       9.331  12.594  18.250  0.00  0.00    +0.000 A 
ATOM     22  C   UNL     1       9.127  11.252  17.966  0.00  0.00    +0.000 A 
BRANCH  20  23
ATOM     23  O   UNL     1       9.759  14.372  19.696  0.00  0.00    +0.000 OA
ATOM     24  H   UNL     1       9.777  14.767  18.816  0.00  0.00    +0.000 HD
ENDBRANCH  20  23
BRANCH  21  25
ATOM     25  O   UNL     1       9.289  13.532  17.262  0.00  0.00    +0.000 OA
ATOM     26  H   UNL     1       9.981  13.210  16.643  0.00  0.00    +0.000 HD
ENDBRANCH  21  25
ENDBRANCH  16  17
ENDBRANCH  15  16
ENDBRANCH  14  15
ENDBRANCH  13  14
ENDBRANCH  11  13
ENDBRANCH  10  11
ENDBRANCH   9  10
ENDBRANCH   3   9
BRANCH   6  27
ATOM     27  O   UNL     1       1.394   6.629  20.827  0.00  0.00    +0.000 OA
BRANCH  27  28
ATOM     28  C   UNL     1       1.566   8.042  20.909  0.00  0.00    +0.000 C 
BRANCH  28  29
ATOM     29  C   UNL     1       0.282   8.735  21.354  0.00  0.00    +0.000 C 
BRANCH  29  30
ATOM     30  C   UNL     1       0.059   9.933  20.429  0.00  0.00    +0.000 C 
BRANCH  30  31
ATOM     31  C   UNL     1      -0.775  11.029  21.025  0.00  0.00    +0.000 A 
ATOM     32  C   UNL     1      -1.537  11.872  20.204  0.00  0.00    +0.000 A 
ATOM     33  C   UNL     1      -2.368  12.840  20.767  0.00  0.00    +0.000 A 
ATOM     34  C   UNL     1      -2.438  12.979  22.153  0.00  0.00    +0.000 A 
ATOM     35  C   UNL     1      -1.668  12.157  22.975  0.00  0.00    +0.000 A 
ATOM     36  C   UNL     1      -0.835  11.190  22.415  0.00  0.00    +0.000 A 
ENDBRANCH  30  31
ENDBRANCH  29  30
ENDBRANCH  28  29
ENDBRANCH  27  28
ENDBRANCH   6  27
TORSDOF 16
ENDMDL
MODEL 6
REMARK VINA RESULT:      -6.7      3.415      6.534
REMARK  Name = 
REMARK  17 active torsions:
REMARK  status: ('A' for Active; 'I' for Inactive)
REMARK    1  A    between atoms: C_1  and  O_2
REMARK    2  A    between atoms: O_2  and  C_3
REMARK    3  A    between atoms: C_5  and  C_6
REMARK    4  A    between atoms: C_6  and  C_7
REMARK    5  A    between atoms: C_7  and  N_8
REMARK    6  A    between atoms: N_8  and  C_9
REMARK    7  A    between atoms: C_9  and  C_10
REMARK    8  A    between atoms: C_10  and  C_11
REMARK    9  A    between atoms: C_11  and  O_12
REMARK   10  A    between atoms: O_12  and  C_13
REMARK   11  A    between atoms: C_16  and  O_17
REMARK   12  A    between atoms: C_18  and  O_19
REMARK   13  A    between atoms: C_23  and  O_24
REMARK   14  A    between atoms: O_24  and  C_25
REMARK   15  A    between atoms: C_25  and  C_26
REMARK   16  A    between atoms: C_26  and  C_27
REMARK   17  A    between atoms: C_27  and  C_28
REMARK                            x       y       z     vdW  Elec       q    Type
REMARK                         _______ _______ _______ _____ _____    ______ ____
ROOT
ATOM      1  C   UNL     1       2.189   5.239  19.978  0.00  0.00    +0.000 A 
ATOM      2  C   UNL     1       1.815   6.415  20.633  0.00  0.00    +0.000 A 
ATOM      3  C   UNL     1       1.863   7.655  19.981  0.00  0.00    +0.000 A 
ATOM      4  C   UNL     1       2.302   7.713  18.654  0.00  0.00    +0.000 A 
ATOM      5  C   UNL     1       2.618   6.540  17.970  0.00  0.00    +0.000 A 
ATOM      6  C   UNL     1       2.530   5.300  18.609  0.00  0.00    +0.000 A 
ENDROOT
BRANCH   1   8
ATOM      7  C   UNL     1       1.063   3.233  20.692  0.00  0.00    +0.000 C 
ATOM      8  O   UNL     1       2.237   4.027  20.603  0.00  0.00    +0.000 OA
ENDBRANCH   1   8
BRANCH   3   9
ATOM      9  C   UNL     1       1.397   8.890  20.706  0.00  0.00    +0.000 C 
BRANCH   9  10
ATOM     10  C   UNL     1       1.250   8.600  22.203  0.00  0.00    +0.000 C 
BRANCH  10  11
ATOM     11  N   UNL     1       0.751   9.779  22.910  0.00  0.00    +0.000 NA
ATOM     12  H   UNL     1       1.480  10.490  22.905  0.00  0.00    +0.000 HD
BRANCH  11  13
ATOM     13  C   UNL     1      -0.465  10.276  22.262  0.00  0.00    +0.000 C 
BRANCH  13  14
ATOM     14  C   UNL     1      -0.722  11.746  22.587  0.00  0.00    +0.000 C 
BRANCH  14  15
ATOM     15  C   UNL     1      -0.110  12.678  21.550  0.00  0.00    +0.000 C 
BRANCH  15  16
ATOM     16  O   UNL     1       1.149  12.151  21.133  0.00  0.00    +0.000 OA
BRANCH  16  17
ATOM     17  C   UNL     1       1.849  12.927  20.245  0.00  0.00    +0.000 A 
ATOM     18  C   UNL     1       1.881  12.434  18.935  0.00  0.00    +0.000 A 
ATOM     19  C   UNL     1       2.569  13.114  17.926  0.00  0.00    +0.000 A 
ATOM     20  C   UNL     1       3.223  14.288  18.250  0.00  0.00    +0.000 A 
ATOM     21  C   UNL     1       3.195  14.782  19.547  0.00  0.00    +0.000 A 
ATOM     22  C   UNL     1       2.510  14.117  20.553  0.00  0.00    +0.000 A 
BRANCH  20  23
ATOM     23  O   UNL     1       3.938  15.034  17.351  0.00  0.00    +0.000 OA
ATOM     24  H   UNL     1       3.442  15.844  17.178  0.00  0.00    +0.000 HD
ENDBRANCH  20  23
BRANCH  21  25
ATOM     25  O   UNL     1       3.863  15.942  19.805  0.00  0.00    +0.000 OA
ATOM     26  H   UNL     1       4.649  15.860  19.221  0.00  0.00    +0.000 HD
ENDBRANCH  21  25
ENDBRANCH  16  17
ENDBRANCH  15  16
ENDBRANCH  14  15
ENDBRANCH  13  14
ENDBRANCH  11  13
ENDBRANCH  10  11
ENDBRANCH   9  10
ENDBRANCH   3   9
BRANCH   6  27
ATOM     27  O   UNL     1       2.824   4.229  17.793  0.00  0.00    +0.000 OA
BRANCH  27  28
ATOM     28  C   UNL     1       4.220   3.962  17.689  0.00  0.00    +0.000 C 
BRANCH  28  29
ATOM     29  C   UNL     1       4.712   4.117  16.253  0.00  0.00    +0.000 C 
BRANCH  29  30
ATOM     30  C   UNL     1       6.241   4.121  16.285  0.00  0.00    +0.000 C 
BRANCH  30  31
ATOM     31  C   UNL     1       6.840   5.207  17.130  0.00  0.00    +0.000 A 
ATOM     32  C   UNL     1       7.487   4.898  18.335  0.00  0.00    +0.000 A 
ATOM     33  C   UNL     1       8.107   5.902  19.079  0.00  0.00    +0.000 A 
ATOM     34  C   UNL     1       8.079   7.222  18.629  0.00  0.00    +0.000 A 
ATOM     35  C   UNL     1       7.420   7.539  17.442  0.00  0.00    +0.000 A 
ATOM     36  C   UNL     1       6.798   6.538  16.697  0.00  0.00    +0.000 A 
ENDBRANCH  30  31
ENDBRANCH  29  30
ENDBRANCH  28  29
ENDBRANCH  27  28
ENDBRANCH   6  27
TORSDOF 16
ENDMDL
MODEL 7
REMARK VINA RESULT:      -6.7      3.916     10.027
REMARK  Name = 
REMARK  17 active torsions:
REMARK  status: ('A' for Active; 'I' for Inactive)
REMARK    1  A    between atoms: C_1  and  O_2
REMARK    2  A    between atoms: O_2  and  C_3
REMARK    3  A    between atoms: C_5  and  C_6
REMARK    4  A    between atoms: C_6  and  C_7
REMARK    5  A    between atoms: C_7  and  N_8
REMARK    6  A    between atoms: N_8  and  C_9
REMARK    7  A    between atoms: C_9  and  C_10
REMARK    8  A    between atoms: C_10  and  C_11
REMARK    9  A    between atoms: C_11  and  O_12
REMARK   10  A    between atoms: O_12  and  C_13
REMARK   11  A    between atoms: C_16  and  O_17
REMARK   12  A    between atoms: C_18  and  O_19
REMARK   13  A    between atoms: C_23  and  O_24
REMARK   14  A    between atoms: O_24  and  C_25
REMARK   15  A    between atoms: C_25  and  C_26
REMARK   16  A    between atoms: C_26  and  C_27
REMARK   17  A    between atoms: C_27  and  C_28
REMARK                            x       y       z     vdW  Elec       q    Type
REMARK                         _______ _______ _______ _____ _____    ______ ____
ROOT
ATOM      1  C   UNL     1       0.672   9.783  20.631  0.00  0.00    +0.000 A 
ATOM      2  C   UNL     1       1.521   8.743  20.243  0.00  0.00    +0.000 A 
ATOM      3  C   UNL     1       1.699   8.420  18.891  0.00  0.00    +0.000 A 
ATOM      4  C   UNL     1       1.006   9.147  17.917  0.00  0.00    +0.000 A 
ATOM      5  C   UNL     1       0.206  10.226  18.288  0.00  0.00    +0.000 A 
ATOM      6  C   UNL     1       0.062  10.574  19.634  0.00  0.00    +0.000 A 
ENDROOT
BRANCH   1   8
ATOM      7  C   UNL     1      -0.441   9.218  22.691  0.00  0.00    +0.000 C 
ATOM      8  O   UNL     1       0.407  10.073  21.938  0.00  0.00    +0.000 OA
ENDBRANCH   1   8
BRANCH   3   9
ATOM      9  C   UNL     1       2.666   7.329  18.513  0.00  0.00    +0.000 C 
BRANCH   9  10
ATOM     10  C   UNL     1       2.780   6.307  19.648  0.00  0.00    +0.000 C 
BRANCH  10  11
ATOM     11  N   UNL     1       2.043   5.087  19.320  0.00  0.00    +0.000 NA
ATOM     12  H   UNL     1       2.402   4.722  18.439  0.00  0.00    +0.000 HD
BRANCH  11  13
ATOM     13  C   UNL     1       2.197   4.103  20.393  0.00  0.00    +0.000 C 
BRANCH  13  14
ATOM     14  C   UNL     1       2.686   2.757  19.864  0.00  0.00    +0.000 C 
BRANCH  14  15
ATOM     15  C   UNL     1       4.163   2.789  19.492  0.00  0.00    +0.000 C 
BRANCH  15  16
ATOM     16  O   UNL     1       4.286   3.011  18.088  0.00  0.00    +0.000 OA
BRANCH  16  17
ATOM     17  C   UNL     1       4.954   4.152  17.727  0.00  0.00    +0.000 A 
ATOM     18  C   UNL     1       5.954   4.553  18.622  0.00  0.00    +0.000 A 
ATOM     19  C   UNL     1       6.709   5.706  18.388  0.00  0.00    +0.000 A 
ATOM     20  C   UNL     1       6.446   6.448  17.252  0.00  0.00    +0.000 A 
ATOM     21  C   UNL     1       5.456   6.056  16.361  0.00  0.00    +0.000 A 
ATOM     22  C   UNL     1       4.706   4.911  16.582  0.00  0.00    +0.000 A 
BRANCH  20  23
ATOM     23  O   UNL     1       7.110   7.600  16.924  0.00  0.00    +0.000 OA
ATOM     24  H   UNL     1       8.016   7.363  16.689  0.00  0.00    +0.000 HD
ENDBRANCH  20  23
BRANCH  21  25
ATOM     25  O   UNL     1       5.240   6.832  15.261  0.00  0.00    +0.000 OA
ATOM     26  H   UNL     1       6.125   6.835  14.834  0.00  0.00    +0.000 HD
ENDBRANCH  21  25
ENDBRANCH  16  17
ENDBRANCH  15  16
ENDBRANCH  14  15
ENDBRANCH  13  14
ENDBRANCH  11  13
ENDBRANCH  10  11
ENDBRANCH   9  10
ENDBRANCH   3   9
BRANCH   6  27
ATOM     27  O   UNL     1      -0.718  11.691  19.842  0.00  0.00    +0.000 OA
BRANCH  27  28
ATOM     28  C   UNL     1      -1.390  12.140  18.667  0.00  0.00    +0.000 C 
BRANCH  28  29
ATOM     29  C   UNL     1      -2.863  11.743  18.683  0.00  0.00    +0.000 C 
BRANCH  29  30
ATOM     30  C   UNL     1      -3.552  12.566  19.773  0.00  0.00    +0.000 C 
BRANCH  30  31
ATOM     31  C   UNL     1      -4.993  12.214  19.997  0.00  0.00    +0.000 A 
ATOM     32  C   UNL     1      -5.709  11.489  19.034  0.00  0.00    +0.000 A 
ATOM     33  C   UNL     1      -7.026  11.101  19.280  0.00  0.00    +0.000 A 
ATOM     34  C   UNL     1      -7.640  11.441  20.486  0.00  0.00    +0.000 A 
ATOM     35  C   UNL     1      -6.941  12.179  21.440  0.00  0.00    +0.000 A 
ATOM     36  C   UNL     1      -5.625  12.570  21.195  0.00  0.00    +0.000 A 
ENDBRANCH  30  31
ENDBRANCH  29  30
ENDBRANCH  28  29
ENDBRANCH  27  28
ENDBRANCH   6  27
TORSDOF 16
ENDMDL
MODEL 8
REMARK VINA RESULT:      -6.7      3.308      6.209
REMARK  Name = 
REMARK  17 active torsions:
REMARK  status: ('A' for Active; 'I' for Inactive)
REMARK    1  A    between atoms: C_1  and  O_2
REMARK    2  A    between atoms: O_2  and  C_3
REMARK    3  A    between atoms: C_5  and  C_6
REMARK    4  A    between atoms: C_6  and  C_7
REMARK    5  A    between atoms: C_7  and  N_8
REMARK    6  A    between atoms: N_8  and  C_9
REMARK    7  A    between atoms: C_9  and  C_10
REMARK    8  A    between atoms: C_10  and  C_11
REMARK    9  A    between atoms: C_11  and  O_12
REMARK   10  A    between atoms: O_12  and  C_13
REMARK   11  A    between atoms: C_16  and  O_17
REMARK   12  A    between atoms: C_18  and  O_19
REMARK   13  A    between atoms: C_23  and  O_24
REMARK   14  A    between atoms: O_24  and  C_25
REMARK   15  A    between atoms: C_25  and  C_26
REMARK   16  A    between atoms: C_26  and  C_27
REMARK   17  A    between atoms: C_27  and  C_28
REMARK                            x       y       z     vdW  Elec       q    Type
REMARK                         _______ _______ _______ _____ _____    ______ ____
ROOT
ATOM      1  C   UNL     1       2.564   4.972  18.883  0.00  0.00    +0.000 A 
ATOM      2  C   UNL     1       1.935   6.124  19.361  0.00  0.00    +0.000 A 
ATOM      3  C   UNL     1       2.322   7.397  18.921  0.00  0.00    +0.000 A 
ATOM      4  C   UNL     1       3.363   7.513  17.994  0.00  0.00    +0.000 A 
ATOM      5  C   UNL     1       3.956   6.369  17.462  0.00  0.00    +0.000 A 
ATOM      6  C   UNL     1       3.540   5.098  17.872  0.00  0.00    +0.000 A 
ENDROOT
BRANCH   1   8
ATOM      7  C   UNL     1       1.317   2.923  18.672  0.00  0.00    +0.000 C 
ATOM      8  O   UNL     1       2.275   3.723  19.350  0.00  0.00    +0.000 OA
ENDBRANCH   1   8
BRANCH   3   9
ATOM      9  C   UNL     1       1.580   8.609  19.419  0.00  0.00    +0.000 C 
BRANCH   9  10
ATOM     10  C   UNL     1       1.108   8.385  20.859  0.00  0.00    +0.000 C 
BRANCH  10  11
ATOM     11  N   UNL     1       1.109   9.644  21.604  0.00  0.00    +0.000 NA
ATOM     12  H   UNL     1       0.781  10.384  20.985  0.00  0.00    +0.000 HD
BRANCH  11  13
ATOM     13  C   UNL     1       0.248   9.531  22.782  0.00  0.00    +0.000 C 
BRANCH  13  14
ATOM     14  C   UNL     1      -0.827  10.615  22.807  0.00  0.00    +0.000 C 
BRANCH  14  15
ATOM     15  C   UNL     1      -0.460  11.807  21.932  0.00  0.00    +0.000 C 
BRANCH  15  16
ATOM     16  O   UNL     1      -1.655  12.463  21.512  0.00  0.00    +0.000 OA
BRANCH  16  17
ATOM     17  C   UNL     1      -2.123  12.103  20.274  0.00  0.00    +0.000 A 
ATOM     18  C   UNL     1      -3.471  12.409  20.046  0.00  0.00    +0.000 A 
ATOM     19  C   UNL     1      -4.086  12.089  18.833  0.00  0.00    +0.000 A 
ATOM     20  C   UNL     1      -3.336  11.458  17.859  0.00  0.00    +0.000 A 
ATOM     21  C   UNL     1      -2.000  11.152  18.079  0.00  0.00    +0.000 A 
ATOM     22  C   UNL     1      -1.380  11.471  19.277  0.00  0.00    +0.000 A 
BRANCH  20  23
ATOM     23  O   UNL     1      -3.831  11.085  16.638  0.00  0.00    +0.000 OA
ATOM     24  H   UNL     1      -4.018  11.889  16.136  0.00  0.00    +0.000 HD
ENDBRANCH  20  23
BRANCH  21  25
ATOM     25  O   UNL     1      -1.313  10.525  17.082  0.00  0.00    +0.000 OA
ATOM     26  H   UNL     1      -1.807  10.811  16.281  0.00  0.00    +0.000 HD
ENDBRANCH  21  25
ENDBRANCH  16  17
ENDBRANCH  15  16
ENDBRANCH  14  15
ENDBRANCH  13  14
ENDBRANCH  11  13
ENDBRANCH  10  11
ENDBRANCH   9  10
ENDBRANCH   3   9
BRANCH   6  27
ATOM     27  O   UNL     1       4.182   4.065  17.223  0.00  0.00    +0.000 OA
BRANCH  27  28
ATOM     28  C   UNL     1       4.516   4.365  15.870  0.00  0.00    +0.000 C 
BRANCH  28  29
ATOM     29  C   UNL     1       5.802   3.662  15.445  0.00  0.00    +0.000 C 
BRANCH  29  30
ATOM     30  C   UNL     1       6.888   4.730  15.305  0.00  0.00    +0.000 C 
BRANCH  30  31
ATOM     31  C   UNL     1       7.241   5.427  16.586  0.00  0.00    +0.000 A 
ATOM     32  C   UNL     1       7.551   4.690  17.737  0.00  0.00    +0.000 A 
ATOM     33  C   UNL     1       7.950   5.342  18.904  0.00  0.00    +0.000 A 
ATOM     34  C   UNL     1       8.035   6.734  18.932  0.00  0.00    +0.000 A 
ATOM     35  C   UNL     1       7.709   7.474  17.796  0.00  0.00    +0.000 A 
ATOM     36  C   UNL     1       7.308   6.825  16.629  0.00  0.00    +0.000 A 
ENDBRANCH  30  31
ENDBRANCH  29  30
ENDBRANCH  28  29
ENDBRANCH  27  28
ENDBRANCH   6  27
TORSDOF 16
ENDMDL
MODEL 9
REMARK VINA RESULT:      -6.5      3.646      7.957
REMARK  Name = 
REMARK  17 active torsions:
REMARK  status: ('A' for Active; 'I' for Inactive)
REMARK    1  A    between atoms: C_1  and  O_2
REMARK    2  A    between atoms: O_2  and  C_3
REMARK    3  A    between atoms: C_5  and  C_6
REMARK    4  A    between atoms: C_6  and  C_7
REMARK    5  A    between atoms: C_7  and  N_8
REMARK    6  A    between atoms: N_8  and  C_9
REMARK    7  A    between atoms: C_9  and  C_10
REMARK    8  A    between atoms: C_10  and  C_11
REMARK    9  A    between atoms: C_11  and  O_12
REMARK   10  A    between atoms: O_12  and  C_13
REMARK   11  A    between atoms: C_16  and  O_17
REMARK   12  A    between atoms: C_18  and  O_19
REMARK   13  A    between atoms: C_23  and  O_24
REMARK   14  A    between atoms: O_24  and  C_25
REMARK   15  A    between atoms: C_25  and  C_26
REMARK   16  A    between atoms: C_26  and  C_27
REMARK   17  A    between atoms: C_27  and  C_28
REMARK                            x       y       z     vdW  Elec       q    Type
REMARK                         _______ _______ _______ _____ _____    ______ ____
ROOT
ATOM      1  C   UNL     1       0.639   9.830  19.931  0.00  0.00    +0.000 A 
ATOM      2  C   UNL     1       1.118   8.545  20.199  0.00  0.00    +0.000 A 
ATOM      3  C   UNL     1       2.006   7.906  19.323  0.00  0.00    +0.000 A 
ATOM      4  C   UNL     1       2.410   8.564  18.158  0.00  0.00    +0.000 A 
ATOM      5  C   UNL     1       1.988   9.870  17.911  0.00  0.00    +0.000 A 
ATOM      6  C   UNL     1       1.135  10.522  18.806  0.00  0.00    +0.000 A 
ENDROOT
BRANCH   1   8
ATOM      7  C   UNL     1       0.118  11.112  21.903  0.00  0.00    +0.000 C 
ATOM      8  O   UNL     1      -0.291  10.451  20.714  0.00  0.00    +0.000 OA
ENDBRANCH   1   8
BRANCH   3   9
ATOM      9  C   UNL     1       2.542   6.543  19.678  0.00  0.00    +0.000 C 
BRANCH   9  10
ATOM     10  C   UNL     1       1.951   5.483  18.745  0.00  0.00    +0.000 C 
BRANCH  10  11
ATOM     11  N   UNL     1       1.492   4.323  19.507  0.00  0.00    +0.000 NA
ATOM     12  H   UNL     1       1.364   3.544  18.863  0.00  0.00    +0.000 HD
BRANCH  11  13
ATOM     13  C   UNL     1       2.469   3.985  20.544  0.00  0.00    +0.000 C 
BRANCH  13  14
ATOM     14  C   UNL     1       3.133   2.635  20.281  0.00  0.00    +0.000 C 
BRANCH  14  15
ATOM     15  C   UNL     1       4.473   2.783  19.573  0.00  0.00    +0.000 C 
BRANCH  15  16
ATOM     16  O   UNL     1       4.245   3.183  18.222  0.00  0.00    +0.000 OA
BRANCH  16  17
ATOM     17  C   UNL     1       5.139   4.092  17.717  0.00  0.00    +0.000 A 
ATOM     18  C   UNL     1       5.779   4.882  18.680  0.00  0.00    +0.000 A 
ATOM     19  C   UNL     1       6.706   5.860  18.308  0.00  0.00    +0.000 A 
ATOM     20  C   UNL     1       6.979   6.034  16.965  0.00  0.00    +0.000 A 
ATOM     21  C   UNL     1       6.348   5.253  16.005  0.00  0.00    +0.000 A 
ATOM     22  C   UNL     1       5.431   4.277  16.365  0.00  0.00    +0.000 A 
BRANCH  20  23
ATOM     23  O   UNL     1       7.858   6.966  16.480  0.00  0.00    +0.000 OA
ATOM     24  H   UNL     1       7.361   7.579  15.925  0.00  0.00    +0.000 HD
ENDBRANCH  20  23
BRANCH  21  25
ATOM     25  O   UNL     1       6.655   5.475  14.696  0.00  0.00    +0.000 OA
ATOM     26  H   UNL     1       6.931   4.581  14.395  0.00  0.00    +0.000 HD
ENDBRANCH  21  25
ENDBRANCH  16  17
ENDBRANCH  15  16
ENDBRANCH  14  15
ENDBRANCH  13  14
ENDBRANCH  11  13
ENDBRANCH  10  11
ENDBRANCH   9  10
ENDBRANCH   3   9
BRANCH   6  27
ATOM     27  O   UNL     1       0.846  11.823  18.455  0.00  0.00    +0.000 OA
BRANCH  27  28
ATOM     28  C   UNL     1       1.945  12.715  18.627  0.00  0.00    +0.000 C 
BRANCH  28  29
ATOM     29  C   UNL     1       1.658  13.748  19.712  0.00  0.00    +0.000 C 
BRANCH  29  30
ATOM     30  C   UNL     1       2.363  15.046  19.314  0.00  0.00    +0.000 C 
BRANCH  30  31
ATOM     31  C   UNL     1       1.480  16.046  18.629  0.00  0.00    +0.000 A 
ATOM     32  C   UNL     1       0.085  15.967  18.749  0.00  0.00    +0.000 A 
ATOM     33  C   UNL     1      -0.728  16.943  18.172  0.00  0.00    +0.000 A 
ATOM     34  C   UNL     1      -0.155  18.000  17.466  0.00  0.00    +0.000 A 
ATOM     35  C   UNL     1       1.230  18.075  17.327  0.00  0.00    +0.000 A 
ATOM     36  C   UNL     1       2.045  17.100  17.900  0.00  0.00    +0.000 A 
ENDBRANCH  30  31
ENDBRANCH  29  30
ENDBRANCH  28  29
ENDBRANCH  27  28
ENDBRANCH   6  27
TORSDOF 16
ENDMDL
