MODEL 1
REMARK VINA RESULT:      -7.5      0.000      0.000
REMARK  Name = 
REMARK  11 active torsions:
REMARK  status: ('A' for Active; 'I' for Inactive)
REMARK    1  A    between atoms: C_1  and  C_2
REMARK    2  A    between atoms: C_2  and  C_3
REMARK    3  A    between atoms: C_3  and  C_4
REMARK    4  A    between atoms: C_3  and  N_6
REMARK    5  A    between atoms: C_4  and  C_5
REMARK    6  A    between atoms: N_6  and  C_7
REMARK    7  A    between atoms: C_7  and  C_8
REMARK    8  A    between atoms: C_9  and  C_10
REMARK    9  A    between atoms: C_19  and  C_20
REMARK   10  A    between atoms: C_21  and  C_22
REMARK   11  A    between atoms: N_24  and  O_25
REMARK                            x       y       z     vdW  Elec       q    Type
REMARK                         _______ _______ _______ _____ _____    ______ ____
ROOT
ATOM      1  C   UNL     1       3.629   6.052  19.085  0.00  0.00    +0.000 A 
ATOM      2  C   UNL     1       4.090   6.305  17.798  0.00  0.00    +0.000 A 
ATOM      3  N   UNL     1       3.510   7.448  17.284  0.00  0.00    +0.000 NA
ATOM      4  C   UNL     1       2.660   7.862  18.200  0.00  0.00    +0.000 A 
ATOM      5  C   UNL     1       1.742   8.957  18.206  0.00  0.00    +0.000 A 
ATOM      6  C   UNL     1       0.935   9.200  19.271  0.00  0.00    +0.000 A 
ATOM      7  C   UNL     1       0.990   8.274  20.413  0.00  0.00    +0.000 A 
ATOM      8  C   UNL     1       1.857   7.254  20.422  0.00  0.00    +0.000 A 
ATOM      9  N   UNL     1       2.691   7.045  19.324  0.00  0.00    +0.000 N 
ENDROOT
BRANCH   2  10
ATOM     10  C   UNL     1       5.061   5.516  17.043  0.00  0.00    +0.000 A 
ATOM     11  C   UNL     1       6.392   5.383  17.468  0.00  0.00    +0.000 A 
ATOM     12  C   UNL     1       7.326   4.665  16.721  0.00  0.00    +0.000 A 
ATOM     13  C   UNL     1       6.931   4.022  15.553  0.00  0.00    +0.000 A 
ATOM     14  C   UNL     1       5.605   4.108  15.134  0.00  0.00    +0.000 A 
ATOM     15  C   UNL     1       4.675   4.854  15.872  0.00  0.00    +0.000 A 
ENDBRANCH   2  10
BRANCH   6  16
ATOM     16  C   UNL     1      -0.006  10.319  19.209  0.00  0.00    +0.000 C 
ATOM     17  C   UNL     1      -0.964  10.438  18.275  0.00  0.00    +0.000 C 
BRANCH  17  18
ATOM     18  C   UNL     1      -1.882  11.601  18.264  0.00  0.00    +0.000 C 
ATOM     19  O   UNL     1      -1.577  12.713  18.679  0.00  0.00    +0.000 OA
ATOM     20  N   UNL     1      -3.116  11.307  17.747  0.00  0.00    +0.000 N 
ATOM     21  H   UNL     1      -3.430  10.396  17.438  0.00  0.00    +0.000 HD
BRANCH  20  22
ATOM     22  O   UNL     1      -4.069  12.349  17.736  0.00  0.00    +0.000 OA
ATOM     23  H   UNL     1      -4.676  12.071  17.014  0.00  0.00    +0.000 HD
ENDBRANCH  20  22
ENDBRANCH  17  18
ENDBRANCH   6  16
BRANCH   1  24
ATOM     24  C   UNL     1       3.943   4.987  20.078  0.00  0.00    +0.000 C 
BRANCH  24  25
ATOM     25  N   UNL     1       3.376   3.711  19.660  0.00  0.00    +0.000 NA
ATOM     26  H   UNL     1       3.902   3.358  18.860  0.00  0.00    +0.000 HD
BRANCH  25  27
ATOM     27  C   UNL     1       1.950   3.785  19.298  0.00  0.00    +0.000 C 
BRANCH  27  29
ATOM     28  C   UNL     1       2.983   2.092  17.645  0.00  0.00    +0.000 C 
ATOM     29  C   UNL     1       1.716   2.758  18.166  0.00  0.00    +0.000 C 
ENDBRANCH  27  29
BRANCH  27  30
ATOM     30  C   UNL     1       1.013   3.588  20.510  0.00  0.00    +0.000 C 
ATOM     31  C   UNL     1       1.592   2.724  21.624  0.00  0.00    +0.000 C 
ENDBRANCH  27  30
ENDBRANCH  25  27
ENDBRANCH  24  25
ENDBRANCH   1  24
TORSDOF 9
ENDMDL
MODEL 2
REMARK VINA RESULT:      -7.5      4.133      8.986
REMARK  Name = 
REMARK  11 active torsions:
REMARK  status: ('A' for Active; 'I' for Inactive)
REMARK    1  A    between atoms: C_1  and  C_2
REMARK    2  A    between atoms: C_2  and  C_3
REMARK    3  A    between atoms: C_3  and  C_4
REMARK    4  A    between atoms: C_3  and  N_6
REMARK    5  A    between atoms: C_4  and  C_5
REMARK    6  A    between atoms: N_6  and  C_7
REMARK    7  A    between atoms: C_7  and  C_8
REMARK    8  A    between atoms: C_9  and  C_10
REMARK    9  A    between atoms: C_19  and  C_20
REMARK   10  A    between atoms: C_21  and  C_22
REMARK   11  A    between atoms: N_24  and  O_25
REMARK                            x       y       z     vdW  Elec       q    Type
REMARK                         _______ _______ _______ _____ _____    ______ ____
ROOT
ATOM      1  C   UNL     1       0.936   9.939  19.400  0.00  0.00    +0.000 A 
ATOM      2  C   UNL     1       0.699   9.947  20.770  0.00  0.00    +0.000 A 
ATOM      3  N   UNL     1       1.250   8.832  21.370  0.00  0.00    +0.000 NA
ATOM      4  C   UNL     1       1.760   8.113  20.392  0.00  0.00    +0.000 A 
ATOM      5  C   UNL     1       2.408   6.840  20.400  0.00  0.00    +0.000 A 
ATOM      6  C   UNL     1       2.856   6.266  19.253  0.00  0.00    +0.000 A 
ATOM      7  C   UNL     1       2.616   6.967  17.983  0.00  0.00    +0.000 A 
ATOM      8  C   UNL     1       2.023   8.168  17.968  0.00  0.00    +0.000 A 
ATOM      9  N   UNL     1       1.597   8.744  19.164  0.00  0.00    +0.000 N 
ENDROOT
BRANCH   2  10
ATOM     10  C   UNL     1      -0.017  10.969  21.531  0.00  0.00    +0.000 A 
ATOM     11  C   UNL     1       0.251  12.337  21.361  0.00  0.00    +0.000 A 
ATOM     12  C   UNL     1      -0.404  13.306  22.120  0.00  0.00    +0.000 A 
ATOM     13  C   UNL     1      -1.380  12.926  23.035  0.00  0.00    +0.000 A 
ATOM     14  C   UNL     1      -1.690  11.576  23.191  0.00  0.00    +0.000 A 
ATOM     15  C   UNL     1      -1.009  10.602  22.446  0.00  0.00    +0.000 A 
ENDBRANCH   2  10
BRANCH   6  16
ATOM     16  C   UNL     1       3.484   4.946  19.318  0.00  0.00    +0.000 C 
ATOM     17  C   UNL     1       2.851   3.801  19.014  0.00  0.00    +0.000 C 
BRANCH  17  18
ATOM     18  C   UNL     1       3.544   2.495  19.106  0.00  0.00    +0.000 C 
ATOM     19  O   UNL     1       3.166   1.481  18.531  0.00  0.00    +0.000 OA
ATOM     20  N   UNL     1       4.655   2.530  19.908  0.00  0.00    +0.000 N 
ATOM     21  H   UNL     1       4.978   3.328  20.441  0.00  0.00    +0.000 HD
BRANCH  20  22
ATOM     22  O   UNL     1       5.353   1.317  20.086  0.00  0.00    +0.000 OA
ATOM     23  H   UNL     1       6.040   1.365  19.383  0.00  0.00    +0.000 HD
ENDBRANCH  20  22
ENDBRANCH  17  18
ENDBRANCH   6  16
BRANCH   1  24
ATOM     24  C   UNL     1       0.590  10.894  18.310  0.00  0.00    +0.000 C 
BRANCH  24  25
ATOM     25  N   UNL     1      -0.508  10.376  17.502  0.00  0.00    +0.000 NA
ATOM     26  H   UNL     1      -0.547  10.891  16.623  0.00  0.00    +0.000 HD
BRANCH  25  27
ATOM     27  C   UNL     1      -1.822  10.460  18.163  0.00  0.00    +0.000 C 
BRANCH  27  29
ATOM     28  C   UNL     1      -2.993  12.215  19.651  0.00  0.00    +0.000 C 
ATOM     29  C   UNL     1      -2.088  11.955  18.453  0.00  0.00    +0.000 C 
ENDBRANCH  27  29
BRANCH  27  30
ATOM     30  C   UNL     1      -2.946   9.781  17.350  0.00  0.00    +0.000 C 
ATOM     31  C   UNL     1      -2.845   9.980  15.842  0.00  0.00    +0.000 C 
ENDBRANCH  27  30
ENDBRANCH  25  27
ENDBRANCH  24  25
ENDBRANCH   1  24
TORSDOF 9
ENDMDL
MODEL 3
REMARK VINA RESULT:      -7.5      1.147      1.470
REMARK  Name = 
REMARK  11 active torsions:
REMARK  status: ('A' for Active; 'I' for Inactive)
REMARK    1  A    between atoms: C_1  and  C_2
REMARK    2  A    between atoms: C_2  and  C_3
REMARK    3  A    between atoms: C_3  and  C_4
REMARK    4  A    between atoms: C_3  and  N_6
REMARK    5  A    between atoms: C_4  and  C_5
REMARK    6  A    between atoms: N_6  and  C_7
REMARK    7  A    between atoms: C_7  and  C_8
REMARK    8  A    between atoms: C_9  and  C_10
REMARK    9  A    between atoms: C_19  and  C_20
REMARK   10  A    between atoms: C_21  and  C_22
REMARK   11  A    between atoms: N_24  and  O_25
REMARK                            x       y       z     vdW  Elec       q    Type
REMARK                         _______ _______ _______ _____ _____    ______ ____
ROOT
ATOM      1  C   UNL     1       3.493   6.454  18.860  0.00  0.00    +0.000 A 
ATOM      2  C   UNL     1       3.971   6.692  17.576  0.00  0.00    +0.000 A 
ATOM      3  N   UNL     1       3.438   7.857  17.062  0.00  0.00    +0.000 NA
ATOM      4  C   UNL     1       2.598   8.301  17.974  0.00  0.00    +0.000 A 
ATOM      5  C   UNL     1       1.723   9.431  17.977  0.00  0.00    +0.000 A 
ATOM      6  C   UNL     1       0.920   9.702  19.038  0.00  0.00    +0.000 A 
ATOM      7  C   UNL     1       0.933   8.773  20.177  0.00  0.00    +0.000 A 
ATOM      8  C   UNL     1       1.760   7.720  20.189  0.00  0.00    +0.000 A 
ATOM      9  N   UNL     1       2.593   7.481  19.096  0.00  0.00    +0.000 N 
ENDROOT
BRANCH   2  10
ATOM     10  C   UNL     1       4.915   5.868  16.825  0.00  0.00    +0.000 A 
ATOM     11  C   UNL     1       4.508   4.700  16.160  0.00  0.00    +0.000 A 
ATOM     12  C   UNL     1       5.421   3.894  15.480  0.00  0.00    +0.000 A 
ATOM     13  C   UNL     1       6.758   4.268  15.412  0.00  0.00    +0.000 A 
ATOM     14  C   UNL     1       7.177   5.445  16.031  0.00  0.00    +0.000 A 
ATOM     15  C   UNL     1       6.262   6.238  16.738  0.00  0.00    +0.000 A 
ENDBRANCH   2  10
BRANCH   6  16
ATOM     16  C   UNL     1       0.022  10.856  18.972  0.00  0.00    +0.000 C 
ATOM     17  C   UNL     1       0.392  12.109  19.285  0.00  0.00    +0.000 C 
BRANCH  17  18
ATOM     18  C   UNL     1      -0.568  13.234  19.204  0.00  0.00    +0.000 C 
ATOM     19  O   UNL     1      -0.383  14.240  18.529  0.00  0.00    +0.000 OA
ATOM     20  N   UNL     1      -1.690  13.040  19.966  0.00  0.00    +0.000 N 
ATOM     21  H   UNL     1      -1.866  12.251  20.576  0.00  0.00    +0.000 HD
BRANCH  20  22
ATOM     22  O   UNL     1      -2.641  14.082  19.980  0.00  0.00    +0.000 OA
ATOM     23  H   UNL     1      -3.028  14.003  20.880  0.00  0.00    +0.000 HD
ENDBRANCH  20  22
ENDBRANCH  17  18
ENDBRANCH   6  16
BRANCH   1  24
ATOM     24  C   UNL     1       3.761   5.376  19.853  0.00  0.00    +0.000 C 
BRANCH  24  25
ATOM     25  N   UNL     1       3.257   4.096  19.370  0.00  0.00    +0.000 NA
ATOM     26  H   UNL     1       3.688   3.887  18.469  0.00  0.00    +0.000 HD
BRANCH  25  27
ATOM     27  C   UNL     1       1.793   4.053  19.219  0.00  0.00    +0.000 C 
BRANCH  27  29
ATOM     28  C   UNL     1       2.672   2.036  17.869  0.00  0.00    +0.000 C 
ATOM     29  C   UNL     1       1.471   2.893  18.247  0.00  0.00    +0.000 C 
ENDBRANCH  27  29
BRANCH  27  30
ATOM     30  C   UNL     1       1.054   3.945  20.571  0.00  0.00    +0.000 C 
ATOM     31  C   UNL     1       1.520   2.796  21.457  0.00  0.00    +0.000 C 
ENDBRANCH  27  30
ENDBRANCH  25  27
ENDBRANCH  24  25
ENDBRANCH   1  24
TORSDOF 9
ENDMDL
MODEL 4
REMARK VINA RESULT:      -7.4      0.859      1.303
REMARK  Name = 
REMARK  11 active torsions:
REMARK  status: ('A' for Active; 'I' for Inactive)
REMARK    1  A    between atoms: C_1  and  C_2
REMARK    2  A    between atoms: C_2  and  C_3
REMARK    3  A    between atoms: C_3  and  C_4
REMARK    4  A    between atoms: C_3  and  N_6
REMARK    5  A    between atoms: C_4  and  C_5
REMARK    6  A    between atoms: N_6  and  C_7
REMARK    7  A    between atoms: C_7  and  C_8
REMARK    8  A    between atoms: C_9  and  C_10
REMARK    9  A    between atoms: C_19  and  C_20
REMARK   10  A    between atoms: C_21  and  C_22
REMARK   11  A    between atoms: N_24  and  O_25
REMARK                            x       y       z     vdW  Elec       q    Type
REMARK                         _______ _______ _______ _____ _____    ______ ____
ROOT
ATOM      1  C   UNL     1       3.435   6.357  19.158  0.00  0.00    +0.000 A 
ATOM      2  C   UNL     1       3.850   6.690  17.874  0.00  0.00    +0.000 A 
ATOM      3  N   UNL     1       3.220   7.838  17.435  0.00  0.00    +0.000 NA
ATOM      4  C   UNL     1       2.383   8.176  18.394  0.00  0.00    +0.000 A 
ATOM      5  C   UNL     1       1.432   9.238  18.482  0.00  0.00    +0.000 A 
ATOM      6  C   UNL     1       0.648   9.400  19.579  0.00  0.00    +0.000 A 
ATOM      7  C   UNL     1       0.766   8.420  20.670  0.00  0.00    +0.000 A 
ATOM      8  C   UNL     1       1.665   7.430  20.602  0.00  0.00    +0.000 A 
ATOM      9  N   UNL     1       2.474   7.304  19.474  0.00  0.00    +0.000 N 
ENDROOT
BRANCH   2  10
ATOM     10  C   UNL     1       4.824   5.973  17.052  0.00  0.00    +0.000 A 
ATOM     11  C   UNL     1       4.452   4.875  16.260  0.00  0.00    +0.000 A 
ATOM     12  C   UNL     1       5.393   4.167  15.511  0.00  0.00    +0.000 A 
ATOM     13  C   UNL     1       6.722   4.576  15.504  0.00  0.00    +0.000 A 
ATOM     14  C   UNL     1       7.104   5.688  16.253  0.00  0.00    +0.000 A 
ATOM     15  C   UNL     1       6.162   6.380  17.027  0.00  0.00    +0.000 A 
ENDBRANCH   2  10
BRANCH   6  16
ATOM     16  C   UNL     1      -0.330  10.488  19.601  0.00  0.00    +0.000 C 
ATOM     17  C   UNL     1      -1.405  10.542  18.797  0.00  0.00    +0.000 C 
BRANCH  17  18
ATOM     18  C   UNL     1      -2.355  11.677  18.865  0.00  0.00    +0.000 C 
ATOM     19  O   UNL     1      -3.310  11.811  18.110  0.00  0.00    +0.000 OA
ATOM     20  N   UNL     1      -2.054  12.571  19.859  0.00  0.00    +0.000 N 
ATOM     21  H   UNL     1      -1.252  12.530  20.474  0.00  0.00    +0.000 HD
BRANCH  20  22
ATOM     22  O   UNL     1      -2.886  13.707  19.968  0.00  0.00    +0.000 OA
ATOM     23  H   UNL     1      -2.243  14.417  20.191  0.00  0.00    +0.000 HD
ENDBRANCH  20  22
ENDBRANCH  17  18
ENDBRANCH   6  16
BRANCH   1  24
ATOM     24  C   UNL     1       3.812   5.255  20.086  0.00  0.00    +0.000 C 
BRANCH  24  25
ATOM     25  N   UNL     1       3.284   3.981  19.612  0.00  0.00    +0.000 NA
ATOM     26  H   UNL     1       3.727   3.746  18.723  0.00  0.00    +0.000 HD
BRANCH  25  27
ATOM     27  C   UNL     1       1.822   3.974  19.434  0.00  0.00    +0.000 C 
BRANCH  27  29
ATOM     28  C   UNL     1       2.350   2.221  17.614  0.00  0.00    +0.000 C 
ATOM     29  C   UNL     1       1.543   3.451  18.005  0.00  0.00    +0.000 C 
ENDBRANCH  27  29
BRANCH  27  30
ATOM     30  C   UNL     1       1.088   3.177  20.534  0.00  0.00    +0.000 C 
ATOM     31  C   UNL     1       1.969   2.750  21.701  0.00  0.00    +0.000 C 
ENDBRANCH  27  30
ENDBRANCH  25  27
ENDBRANCH  24  25
ENDBRANCH   1  24
TORSDOF 9
ENDMDL
MODEL 5
REMARK VINA RESULT:      -7.4      1.013      1.073
REMARK  Name = 
REMARK  11 active torsions:
REMARK  status: ('A' for Active; 'I' for Inactive)
REMARK    1  A    between atoms: C_1  and  C_2
REMARK    2  A    between atoms: C_2  and  C_3
REMARK    3  A    between atoms: C_3  and  C_4
REMARK    4  A    between atoms: C_3  and  N_6
REMARK    5  A    between atoms: C_4  and  C_5
REMARK    6  A    between atoms: N_6  and  C_7
REMARK    7  A    between atoms: C_7  and  C_8
REMARK    8  A    between atoms: C_9  and  C_10
REMARK    9  A    between atoms: C_19  and  C_20
REMARK   10  A    between atoms: C_21  and  C_22
REMARK   11  A    between atoms: N_24  and  O_25
REMARK                            x       y       z     vdW  Elec       q    Type
REMARK                         _______ _______ _______ _____ _____    ______ ____
ROOT
ATOM      1  C   UNL     1       3.444   6.414  19.034  0.00  0.00    +0.000 A 
ATOM      2  C   UNL     1       3.905   6.688  17.752  0.00  0.00    +0.000 A 
ATOM      3  N   UNL     1       3.329   7.842  17.258  0.00  0.00    +0.000 NA
ATOM      4  C   UNL     1       2.480   8.242  18.182  0.00  0.00    +0.000 A 
ATOM      5  C   UNL     1       1.566   9.340  18.207  0.00  0.00    +0.000 A 
ATOM      6  C   UNL     1       0.760   9.566  19.277  0.00  0.00    +0.000 A 
ATOM      7  C   UNL     1       0.812   8.621  20.402  0.00  0.00    +0.000 A 
ATOM      8  C   UNL     1       1.676   7.597  20.392  0.00  0.00    +0.000 A 
ATOM      9  N   UNL     1       2.509   7.405  19.291  0.00  0.00    +0.000 N 
ENDROOT
BRANCH   2  10
ATOM     10  C   UNL     1       4.873   5.909  16.982  0.00  0.00    +0.000 A 
ATOM     11  C   UNL     1       6.223   6.287  16.899  0.00  0.00    +0.000 A 
ATOM     12  C   UNL     1       7.135   5.565  16.129  0.00  0.00    +0.000 A 
ATOM     13  C   UNL     1       6.720   4.418  15.461  0.00  0.00    +0.000 A 
ATOM     14  C   UNL     1       5.394   4.002  15.562  0.00  0.00    +0.000 A 
ATOM     15  C   UNL     1       4.474   4.747  16.314  0.00  0.00    +0.000 A 
ENDBRANCH   2  10
BRANCH   6  16
ATOM     16  C   UNL     1      -0.178  10.689  19.234  0.00  0.00    +0.000 C 
ATOM     17  C   UNL     1      -0.135  11.730  20.082  0.00  0.00    +0.000 C 
BRANCH  17  18
ATOM     18  C   UNL     1      -1.120  12.834  19.989  0.00  0.00    +0.000 C 
ATOM     19  O   UNL     1      -0.819  14.021  20.043  0.00  0.00    +0.000 OA
ATOM     20  N   UNL     1      -2.409  12.394  19.842  0.00  0.00    +0.000 N 
ATOM     21  H   UNL     1      -2.712  11.428  19.842  0.00  0.00    +0.000 HD
BRANCH  20  22
ATOM     22  O   UNL     1      -3.417  13.380  19.787  0.00  0.00    +0.000 OA
ATOM     23  H   UNL     1      -4.109  13.005  20.377  0.00  0.00    +0.000 HD
ENDBRANCH  20  22
ENDBRANCH  17  18
ENDBRANCH   6  16
BRANCH   1  24
ATOM     24  C   UNL     1       3.755   5.331  20.008  0.00  0.00    +0.000 C 
BRANCH  24  25
ATOM     25  N   UNL     1       3.263   4.047  19.524  0.00  0.00    +0.000 NA
ATOM     26  H   UNL     1       3.768   3.795  18.674  0.00  0.00    +0.000 HD
BRANCH  25  27
ATOM     27  C   UNL     1       1.817   4.033  19.241  0.00  0.00    +0.000 C 
BRANCH  27  29
ATOM     28  C   UNL     1       2.751   2.021  17.921  0.00  0.00    +0.000 C 
ATOM     29  C   UNL     1       1.580   2.969  18.144  0.00  0.00    +0.000 C 
ENDBRANCH  27  29
BRANCH  27  30
ATOM     30  C   UNL     1       0.961   3.813  20.507  0.00  0.00    +0.000 C 
ATOM     31  C   UNL     1       1.493   2.745  21.454  0.00  0.00    +0.000 C 
ENDBRANCH  27  30
ENDBRANCH  25  27
ENDBRANCH  24  25
ENDBRANCH   1  24
TORSDOF 9
ENDMDL
MODEL 6
REMARK VINA RESULT:      -7.3      0.741      1.760
REMARK  Name = 
REMARK  11 active torsions:
REMARK  status: ('A' for Active; 'I' for Inactive)
REMARK    1  A    between atoms: C_1  and  C_2
REMARK    2  A    between atoms: C_2  and  C_3
REMARK    3  A    between atoms: C_3  and  C_4
REMARK    4  A    between atoms: C_3  and  N_6
REMARK    5  A    between atoms: C_4  and  C_5
REMARK    6  A    between atoms: N_6  and  C_7
REMARK    7  A    between atoms: C_7  and  C_8
REMARK    8  A    between atoms: C_9  and  C_10
REMARK    9  A    between atoms: C_19  and  C_20
REMARK   10  A    between atoms: C_21  and  C_22
REMARK   11  A    between atoms: N_24  and  O_25
REMARK                            x       y       z     vdW  Elec       q    Type
REMARK                         _______ _______ _______ _____ _____    ______ ____
ROOT
ATOM      1  C   UNL     1       3.507   6.334  18.983  0.00  0.00    +0.000 A 
ATOM      2  C   UNL     1       3.946   6.654  17.704  0.00  0.00    +0.000 A 
ATOM      3  N   UNL     1       3.359   7.823  17.260  0.00  0.00    +0.000 NA
ATOM      4  C   UNL     1       2.524   8.188  18.211  0.00  0.00    +0.000 A 
ATOM      5  C   UNL     1       1.608   9.282  18.290  0.00  0.00    +0.000 A 
ATOM      6  C   UNL     1       0.819   9.469  19.380  0.00  0.00    +0.000 A 
ATOM      7  C   UNL     1       0.893   8.484  20.470  0.00  0.00    +0.000 A 
ATOM      8  C   UNL     1       1.758   7.464  20.411  0.00  0.00    +0.000 A 
ATOM      9  N   UNL     1       2.574   7.313  19.290  0.00  0.00    +0.000 N 
ENDROOT
BRANCH   2  10
ATOM     10  C   UNL     1       4.903   5.906  16.892  0.00  0.00    +0.000 A 
ATOM     11  C   UNL     1       4.537   4.730  16.218  0.00  0.00    +0.000 A 
ATOM     12  C   UNL     1       5.465   3.995  15.479  0.00  0.00    +0.000 A 
ATOM     13  C   UNL     1       6.773   4.453  15.361  0.00  0.00    +0.000 A 
ATOM     14  C   UNL     1       7.147   5.639  15.989  0.00  0.00    +0.000 A 
ATOM     15  C   UNL     1       6.219   6.360  16.754  0.00  0.00    +0.000 A 
ENDBRANCH   2  10
BRANCH   6  16
ATOM     16  C   UNL     1      -0.122  10.590  19.392  0.00  0.00    +0.000 C 
ATOM     17  C   UNL     1      -1.281  10.599  18.714  0.00  0.00    +0.000 C 
BRANCH  17  18
ATOM     18  C   UNL     1      -2.188  11.770  18.764  0.00  0.00    +0.000 C 
ATOM     19  O   UNL     1      -1.844  12.881  19.149  0.00  0.00    +0.000 OA
ATOM     20  N   UNL     1      -3.459  11.485  18.340  0.00  0.00    +0.000 N 
ATOM     21  H   UNL     1      -3.802  10.575  18.060  0.00  0.00    +0.000 HD
BRANCH  20  22
ATOM     22  O   UNL     1      -4.400  12.535  18.394  0.00  0.00    +0.000 OA
ATOM     23  H   UNL     1      -4.503  12.675  19.362  0.00  0.00    +0.000 HD
ENDBRANCH  20  22
ENDBRANCH  17  18
ENDBRANCH   6  16
BRANCH   1  24
ATOM     24  C   UNL     1       3.836   5.219  19.914  0.00  0.00    +0.000 C 
BRANCH  24  25
ATOM     25  N   UNL     1       2.908   4.109  19.733  0.00  0.00    +0.000 NA
ATOM     26  H   UNL     1       2.088   4.260  20.321  0.00  0.00    +0.000 HD
BRANCH  25  27
ATOM     27  C   UNL     1       3.488   2.793  20.054  0.00  0.00    +0.000 C 
BRANCH  27  29
ATOM     28  C   UNL     1       1.381   2.702  21.543  0.00  0.00    +0.000 C 
ATOM     29  C   UNL     1       2.849   2.328  21.384  0.00  0.00    +0.000 C 
ENDBRANCH  27  29
BRANCH  27  30
ATOM     30  C   UNL     1       3.330   1.772  18.906  0.00  0.00    +0.000 C 
ATOM     31  C   UNL     1       2.420   2.230  17.773  0.00  0.00    +0.000 C 
ENDBRANCH  27  30
ENDBRANCH  25  27
ENDBRANCH  24  25
ENDBRANCH   1  24
TORSDOF 9
ENDMDL
MODEL 7
REMARK VINA RESULT:      -7.2      4.151      9.053
REMARK  Name = 
REMARK  11 active torsions:
REMARK  status: ('A' for Active; 'I' for Inactive)
REMARK    1  A    between atoms: C_1  and  C_2
REMARK    2  A    between atoms: C_2  and  C_3
REMARK    3  A    between atoms: C_3  and  C_4
REMARK    4  A    between atoms: C_3  and  N_6
REMARK    5  A    between atoms: C_4  and  C_5
REMARK    6  A    between atoms: N_6  and  C_7
REMARK    7  A    between atoms: C_7  and  C_8
REMARK    8  A    between atoms: C_9  and  C_10
REMARK    9  A    between atoms: C_19  and  C_20
REMARK   10  A    between atoms: C_21  and  C_22
REMARK   11  A    between atoms: N_24  and  O_25
REMARK                            x       y       z     vdW  Elec       q    Type
REMARK                         _______ _______ _______ _____ _____    ______ ____
ROOT
ATOM      1  C   UNL     1       0.911   9.922  19.598  0.00  0.00    +0.000 A 
ATOM      2  C   UNL     1       0.614   9.966  20.955  0.00  0.00    +0.000 A 
ATOM      3  N   UNL     1       1.045   8.819  21.591  0.00  0.00    +0.000 NA
ATOM      4  C   UNL     1       1.538   8.048  20.644  0.00  0.00    +0.000 A 
ATOM      5  C   UNL     1       2.078   6.726  20.692  0.00  0.00    +0.000 A 
ATOM      6  C   UNL     1       2.528   6.103  19.572  0.00  0.00    +0.000 A 
ATOM      7  C   UNL     1       2.404   6.805  18.286  0.00  0.00    +0.000 A 
ATOM      8  C   UNL     1       1.913   8.050  18.234  0.00  0.00    +0.000 A 
ATOM      9  N   UNL     1       1.482   8.674  19.404  0.00  0.00    +0.000 N 
ENDROOT
BRANCH   2  10
ATOM     10  C   UNL     1      -0.049  11.053  21.674  0.00  0.00    +0.000 A 
ATOM     11  C   UNL     1       0.306  12.396  21.469  0.00  0.00    +0.000 A 
ATOM     12  C   UNL     1      -0.300  13.426  22.188  0.00  0.00    +0.000 A 
ATOM     13  C   UNL     1      -1.312  13.134  23.096  0.00  0.00    +0.000 A 
ATOM     14  C   UNL     1      -1.708  11.811  23.285  0.00  0.00    +0.000 A 
ATOM     15  C   UNL     1      -1.077  10.775  22.582  0.00  0.00    +0.000 A 
ENDBRANCH   2  10
BRANCH   6  16
ATOM     16  C   UNL     1       3.043   4.737  19.678  0.00  0.00    +0.000 C 
ATOM     17  C   UNL     1       3.357   3.973  18.619  0.00  0.00    +0.000 C 
BRANCH  17  18
ATOM     18  C   UNL     1       3.869   2.594  18.794  0.00  0.00    +0.000 C 
ATOM     19  O   UNL     1       3.485   1.636  18.133  0.00  0.00    +0.000 OA
ATOM     20  N   UNL     1       4.816   2.493  19.779  0.00  0.00    +0.000 N 
ATOM     21  H   UNL     1       5.129   3.243  20.382  0.00  0.00    +0.000 HD
BRANCH  20  22
ATOM     22  O   UNL     1       5.329   1.204  20.041  0.00  0.00    +0.000 OA
ATOM     23  H   UNL     1       4.815   0.643  19.419  0.00  0.00    +0.000 HD
ENDBRANCH  20  22
ENDBRANCH  17  18
ENDBRANCH   6  16
BRANCH   1  24
ATOM     24  C   UNL     1       0.693  10.888  18.485  0.00  0.00    +0.000 C 
BRANCH  24  25
ATOM     25  N   UNL     1      -0.457  10.493  17.680  0.00  0.00    +0.000 NA
ATOM     26  H   UNL     1      -0.171  10.421  16.703  0.00  0.00    +0.000 HD
BRANCH  25  27
ATOM     27  C   UNL     1      -1.595  11.423  17.777  0.00  0.00    +0.000 C 
BRANCH  27  29
ATOM     28  C   UNL     1      -3.756  10.612  16.621  0.00  0.00    +0.000 C 
ATOM     29  C   UNL     1      -2.402  11.290  16.464  0.00  0.00    +0.000 C 
ENDBRANCH  27  29
BRANCH  27  30
ATOM     30  C   UNL     1      -2.446  11.198  19.046  0.00  0.00    +0.000 C 
ATOM     31  C   UNL     1      -2.937  12.477  19.714  0.00  0.00    +0.000 C 
ENDBRANCH  27  30
ENDBRANCH  25  27
ENDBRANCH  24  25
ENDBRANCH   1  24
TORSDOF 9
ENDMDL
MODEL 8
REMARK VINA RESULT:      -7.2      0.718      1.438
REMARK  Name = 
REMARK  11 active torsions:
REMARK  status: ('A' for Active; 'I' for Inactive)
REMARK    1  A    between atoms: C_1  and  C_2
REMARK    2  A    between atoms: C_2  and  C_3
REMARK    3  A    between atoms: C_3  and  C_4
REMARK    4  A    between atoms: C_3  and  N_6
REMARK    5  A    between atoms: C_4  and  C_5
REMARK    6  A    between atoms: N_6  and  C_7
REMARK    7  A    between atoms: C_7  and  C_8
REMARK    8  A    between atoms: C_9  and  C_10
REMARK    9  A    between atoms: C_19  and  C_20
REMARK   10  A    between atoms: C_21  and  C_22
REMARK   11  A    between atoms: N_24  and  O_25
REMARK                            x       y       z     vdW  Elec       q    Type
REMARK                         _______ _______ _______ _____ _____    ______ ____
ROOT
ATOM      1  C   UNL     1       3.815   6.101  18.860  0.00  0.00    +0.000 A 
ATOM      2  C   UNL     1       4.166   6.456  17.563  0.00  0.00    +0.000 A 
ATOM      3  N   UNL     1       3.507   7.605  17.172  0.00  0.00    +0.000 NA
ATOM      4  C   UNL     1       2.714   7.922  18.175  0.00  0.00    +0.000 A 
ATOM      5  C   UNL     1       1.759   8.975  18.323  0.00  0.00    +0.000 A 
ATOM      6  C   UNL     1       1.027   9.113  19.459  0.00  0.00    +0.000 A 
ATOM      7  C   UNL     1       1.204   8.119  20.528  0.00  0.00    +0.000 A 
ATOM      8  C   UNL     1       2.106   7.137  20.403  0.00  0.00    +0.000 A 
ATOM      9  N   UNL     1       2.862   7.035  19.235  0.00  0.00    +0.000 N 
ENDROOT
BRANCH   2  10
ATOM     10  C   UNL     1       5.105   5.760  16.686  0.00  0.00    +0.000 A 
ATOM     11  C   UNL     1       6.487   6.002  16.746  0.00  0.00    +0.000 A 
ATOM     12  C   UNL     1       7.375   5.367  15.878  0.00  0.00    +0.000 A 
ATOM     13  C   UNL     1       6.900   4.437  14.960  0.00  0.00    +0.000 A 
ATOM     14  C   UNL     1       5.536   4.152  14.911  0.00  0.00    +0.000 A 
ATOM     15  C   UNL     1       4.643   4.813  15.766  0.00  0.00    +0.000 A 
ENDBRANCH   2  10
BRANCH   6  16
ATOM     16  C   UNL     1       0.043  10.193  19.543  0.00  0.00    +0.000 C 
ATOM     17  C   UNL     1      -0.418  10.868  18.477  0.00  0.00    +0.000 C 
BRANCH  17  18
ATOM     18  C   UNL     1      -1.411  11.956  18.631  0.00  0.00    +0.000 C 
ATOM     19  O   UNL     1      -1.112  13.137  18.767  0.00  0.00    +0.000 OA
ATOM     20  N   UNL     1      -2.706  11.509  18.611  0.00  0.00    +0.000 N 
ATOM     21  H   UNL     1      -3.002  10.543  18.549  0.00  0.00    +0.000 HD
BRANCH  20  22
ATOM     22  O   UNL     1      -3.718  12.477  18.793  0.00  0.00    +0.000 OA
ATOM     23  H   UNL     1      -3.829  12.838  17.885  0.00  0.00    +0.000 HD
ENDBRANCH  20  22
ENDBRANCH  17  18
ENDBRANCH   6  16
BRANCH   1  24
ATOM     24  C   UNL     1       4.243   4.988  19.753  0.00  0.00    +0.000 C 
BRANCH  24  25
ATOM     25  N   UNL     1       4.166   3.710  19.055  0.00  0.00    +0.000 NA
ATOM     26  H   UNL     1       4.077   3.882  18.053  0.00  0.00    +0.000 HD
BRANCH  25  27
ATOM     27  C   UNL     1       3.047   2.860  19.495  0.00  0.00    +0.000 C 
BRANCH  27  29
ATOM     28  C   UNL     1       1.531   2.617  21.570  0.00  0.00    +0.000 C 
ATOM     29  C   UNL     1       2.440   3.525  20.752  0.00  0.00    +0.000 C 
ENDBRANCH  27  29
BRANCH  27  30
ATOM     30  C   UNL     1       2.014   2.602  18.376  0.00  0.00    +0.000 C 
ATOM     31  C   UNL     1       1.290   3.849  17.883  0.00  0.00    +0.000 C 
ENDBRANCH  27  30
ENDBRANCH  25  27
ENDBRANCH  24  25
ENDBRANCH   1  24
TORSDOF 9
ENDMDL
MODEL 9
REMARK VINA RESULT:      -7.2      1.270      1.906
REMARK  Name = 
REMARK  11 active torsions:
REMARK  status: ('A' for Active; 'I' for Inactive)
REMARK    1  A    between atoms: C_1  and  C_2
REMARK    2  A    between atoms: C_2  and  C_3
REMARK    3  A    between atoms: C_3  and  C_4
REMARK    4  A    between atoms: C_3  and  N_6
REMARK    5  A    between atoms: C_4  and  C_5
REMARK    6  A    between atoms: N_6  and  C_7
REMARK    7  A    between atoms: C_7  and  C_8
REMARK    8  A    between atoms: C_9  and  C_10
REMARK    9  A    between atoms: C_19  and  C_20
REMARK   10  A    between atoms: C_21  and  C_22
REMARK   11  A    between atoms: N_24  and  O_25
REMARK                            x       y       z     vdW  Elec       q    Type
REMARK                         _______ _______ _______ _____ _____    ______ ____
ROOT
ATOM      1  C   UNL     1       3.444   6.484  18.890  0.00  0.00    +0.000 A 
ATOM      2  C   UNL     1       3.893   6.733  17.599  0.00  0.00    +0.000 A 
ATOM      3  N   UNL     1       3.354   7.907  17.109  0.00  0.00    +0.000 NA
ATOM      4  C   UNL     1       2.538   8.345  18.045  0.00  0.00    +0.000 A 
ATOM      5  C   UNL     1       1.668   9.478  18.080  0.00  0.00    +0.000 A 
ATOM      6  C   UNL     1       0.891   9.741  19.162  0.00  0.00    +0.000 A 
ATOM      7  C   UNL     1       0.925   8.800  20.291  0.00  0.00    +0.000 A 
ATOM      8  C   UNL     1       1.748   7.743  20.272  0.00  0.00    +0.000 A 
ATOM      9  N   UNL     1       2.554   7.513  19.158  0.00  0.00    +0.000 N 
ENDROOT
BRANCH   2  10
ATOM     10  C   UNL     1       4.816   5.914  16.817  0.00  0.00    +0.000 A 
ATOM     11  C   UNL     1       6.132   6.329  16.558  0.00  0.00    +0.000 A 
ATOM     12  C   UNL     1       6.996   5.564  15.775  0.00  0.00    +0.000 A 
ATOM     13  C   UNL     1       6.573   4.338  15.274  0.00  0.00    +0.000 A 
ATOM     14  C   UNL     1       5.283   3.887  15.553  0.00  0.00    +0.000 A 
ATOM     15  C   UNL     1       4.408   4.673  16.316  0.00  0.00    +0.000 A 
ENDBRANCH   2  10
BRANCH   6  16
ATOM     16  C   UNL     1      -0.003  10.900  19.129  0.00  0.00    +0.000 C 
ATOM     17  C   UNL     1       0.425  12.173  19.104  0.00  0.00    +0.000 C 
BRANCH  17  18
ATOM     18  C   UNL     1      -0.533  13.303  19.078  0.00  0.00    +0.000 C 
ATOM     19  O   UNL     1      -0.345  14.340  18.454  0.00  0.00    +0.000 OA
ATOM     20  N   UNL     1      -1.655  13.073  19.830  0.00  0.00    +0.000 N 
ATOM     21  H   UNL     1      -1.833  12.256  20.400  0.00  0.00    +0.000 HD
BRANCH  20  22
ATOM     22  O   UNL     1      -2.604  14.116  19.895  0.00  0.00    +0.000 OA
ATOM     23  H   UNL     1      -3.407  13.694  19.515  0.00  0.00    +0.000 HD
ENDBRANCH  20  22
ENDBRANCH  17  18
ENDBRANCH   6  16
BRANCH   1  24
ATOM     24  C   UNL     1       3.729   5.395  19.866  0.00  0.00    +0.000 C 
BRANCH  24  25
ATOM     25  N   UNL     1       2.873   4.242  19.612  0.00  0.00    +0.000 NA
ATOM     26  H   UNL     1       2.002   4.351  20.133  0.00  0.00    +0.000 HD
BRANCH  25  27
ATOM     27  C   UNL     1       3.488   2.954  19.978  0.00  0.00    +0.000 C 
BRANCH  27  29
ATOM     28  C   UNL     1       1.316   2.924  21.372  0.00  0.00    +0.000 C 
ATOM     29  C   UNL     1       2.756   2.445  21.242  0.00  0.00    +0.000 C 
ENDBRANCH  27  29
BRANCH  27  30
ATOM     30  C   UNL     1       3.487   1.937  18.816  0.00  0.00    +0.000 C 
ATOM     31  C   UNL     1       2.338   2.104  17.829  0.00  0.00    +0.000 C 
ENDBRANCH  27  30
ENDBRANCH  25  27
ENDBRANCH  24  25
ENDBRANCH   1  24
TORSDOF 9
ENDMDL
