MODEL 1
REMARK VINA RESULT:      -8.0      0.000      0.000
REMARK  Name = 
REMARK  8 active torsions:
REMARK  status: ('A' for Active; 'I' for Inactive)
REMARK    1  A    between atoms: C_1  and  C_2
REMARK    2  A    between atoms: C_2  and  C_3
REMARK    3  A    between atoms: C_5  and  C_6
REMARK    4  A    between atoms: N_8  and  N_9
REMARK    5  A    between atoms: C_10  and  C_12
REMARK    6  A    between atoms: C_12  and  N_13
REMARK    7  A    between atoms: C_14  and  C_16
REMARK    8  A    between atoms: C_24  and  C_25
REMARK                            x       y       z     vdW  Elec       q    Type
REMARK                         _______ _______ _______ _____ _____    ______ ____
ROOT
ATOM      1  N   UNL     1       2.771   5.509  20.670  0.00  0.00    +0.000 N 
ATOM      2  C   UNL     1       2.181   4.311  20.326  0.00  0.00    +0.000 C 
ATOM      3  O   UNL     1       0.973   4.099  20.439  0.00  0.00    +0.000 OA
ATOM      4  H   UNL     1       3.777   5.669  20.586  0.00  0.00    +0.000 HD
ENDROOT
BRANCH   1   7
ATOM      5  C   UNL     1       1.884   7.661  20.095  0.00  0.00    +0.000 C 
ATOM      6  O   UNL     1       2.505   7.614  19.029  0.00  0.00    +0.000 OA
ATOM      7  N   UNL     1       1.973   6.615  20.998  0.00  0.00    +0.000 N 
ATOM      8  H   UNL     1       1.405   6.560  21.841  0.00  0.00    +0.000 HD
BRANCH   5  11
ATOM      9  C   UNL     1      -0.368  10.835  20.541  0.00  0.00    +0.000 A 
ATOM     10  S   UNL     1       0.568  10.012  19.356  0.00  0.00    +0.000 S 
ATOM     11  C   UNL     1       1.051   8.800  20.459  0.00  0.00    +0.000 A 
ATOM     12  C   UNL     1       0.526   9.044  21.714  0.00  0.00    +0.000 A 
ATOM     13  C   UNL     1      -0.295  10.216  21.778  0.00  0.00    +0.000 A 
ATOM     14  C   UNL     1      -0.981  10.680  23.022  0.00  0.00    +0.000 C 
BRANCH   9  16
ATOM     15  C   UNL     1      -0.391  12.917  19.143  0.00  0.00    +0.000 C 
ATOM     16  C   UNL     1      -1.134  12.076  20.171  0.00  0.00    +0.000 C 
ENDBRANCH   9  16
ENDBRANCH   5  11
ENDBRANCH   1   7
BRANCH   2  17
ATOM     17  C   UNL     1       3.174   3.230  19.896  0.00  0.00    +0.000 C 
BRANCH  17  18
ATOM     18  N   UNL     1       3.782   3.569  18.625  0.00  0.00    +0.000 N 
ATOM     19  C   UNL     1       5.052   4.096  18.547  0.00  0.00    +0.000 C 
ATOM     20  O   UNL     1       5.708   4.359  19.551  0.00  0.00    +0.000 OA
ATOM     21  H   UNL     1       3.320   3.248  17.780  0.00  0.00    +0.000 HD
BRANCH  19  22
ATOM     22  C   UNL     1       5.626   4.320  17.188  0.00  0.00    +0.000 A 
ATOM     23  C   UNL     1       4.771   4.267  16.078  0.00  0.00    +0.000 A 
ATOM     24  C   UNL     1       5.261   4.505  14.789  0.00  0.00    +0.000 A 
ATOM     25  C   UNL     1       6.612   4.794  14.596  0.00  0.00    +0.000 A 
ATOM     26  C   UNL     1       7.473   4.835  15.690  0.00  0.00    +0.000 A 
ATOM     27  C   UNL     1       6.980   4.597  16.973  0.00  0.00    +0.000 A 
ATOM     28  F   UNL     1       7.847   4.651  17.996  0.00  0.00    +0.000 F 
ENDBRANCH  19  22
ENDBRANCH  17  18
ENDBRANCH   2  17
TORSDOF 6
ENDMDL
MODEL 2
REMARK VINA RESULT:      -7.8      5.434      7.420
REMARK  Name = 
REMARK  8 active torsions:
REMARK  status: ('A' for Active; 'I' for Inactive)
REMARK    1  A    between atoms: C_1  and  C_2
REMARK    2  A    between atoms: C_2  and  C_3
REMARK    3  A    between atoms: C_5  and  C_6
REMARK    4  A    between atoms: N_8  and  N_9
REMARK    5  A    between atoms: C_10  and  C_12
REMARK    6  A    between atoms: C_12  and  N_13
REMARK    7  A    between atoms: C_14  and  C_16
REMARK    8  A    between atoms: C_24  and  C_25
REMARK                            x       y       z     vdW  Elec       q    Type
REMARK                         _______ _______ _______ _____ _____    ______ ____
ROOT
ATOM      1  N   UNL     1       7.222   6.949  16.852  0.00  0.00    +0.000 N 
ATOM      2  C   UNL     1       5.890   6.592  16.862  0.00  0.00    +0.000 C 
ATOM      3  O   UNL     1       4.995   7.340  17.257  0.00  0.00    +0.000 OA
ATOM      4  H   UNL     1       7.958   6.314  16.536  0.00  0.00    +0.000 HD
ENDROOT
BRANCH   1   7
ATOM      5  C   UNL     1       8.344   8.529  18.264  0.00  0.00    +0.000 C 
ATOM      6  O   UNL     1       8.665   7.603  19.016  0.00  0.00    +0.000 OA
ATOM      7  N   UNL     1       7.595   8.273  17.128  0.00  0.00    +0.000 N 
ATOM      8  H   UNL     1       7.391   8.982  16.426  0.00  0.00    +0.000 HD
BRANCH   5  11
ATOM      9  C   UNL     1       9.630  12.049  19.403  0.00  0.00    +0.000 A 
ATOM     10  S   UNL     1       9.571  10.412  19.924  0.00  0.00    +0.000 S 
ATOM     11  C   UNL     1       8.718   9.912  18.530  0.00  0.00    +0.000 A 
ATOM     12  C   UNL     1       8.462  10.988  17.701  0.00  0.00    +0.000 A 
ATOM     13  C   UNL     1       8.982  12.230  18.192  0.00  0.00    +0.000 A 
ATOM     14  C   UNL     1       8.842  13.529  17.468  0.00  0.00    +0.000 C 
BRANCH   9  16
ATOM     15  C   UNL     1      11.777  13.276  19.823  0.00  0.00    +0.000 C 
ATOM     16  C   UNL     1      10.326  13.085  20.243  0.00  0.00    +0.000 C 
ENDBRANCH   9  16
ENDBRANCH   5  11
ENDBRANCH   1   7
BRANCH   2  17
ATOM     17  C   UNL     1       5.632   5.143  16.445  0.00  0.00    +0.000 C 
BRANCH  17  18
ATOM     18  N   UNL     1       4.484   4.605  17.149  0.00  0.00    +0.000 N 
ATOM     19  C   UNL     1       4.590   4.091  18.422  0.00  0.00    +0.000 C 
ATOM     20  O   UNL     1       5.670   4.008  19.000  0.00  0.00    +0.000 OA
ATOM     21  H   UNL     1       3.565   4.774  16.751  0.00  0.00    +0.000 HD
BRANCH  19  22
ATOM     22  C   UNL     1       3.335   3.652  19.098  0.00  0.00    +0.000 A 
ATOM     23  C   UNL     1       2.807   4.450  20.124  0.00  0.00    +0.000 A 
ATOM     24  C   UNL     1       1.614   4.093  20.762  0.00  0.00    +0.000 A 
ATOM     25  C   UNL     1       0.937   2.934  20.383  0.00  0.00    +0.000 A 
ATOM     26  C   UNL     1       1.459   2.127  19.374  0.00  0.00    +0.000 A 
ATOM     27  C   UNL     1       2.649   2.486  18.742  0.00  0.00    +0.000 A 
ATOM     28  F   UNL     1       3.111   1.679  17.773  0.00  0.00    +0.000 F 
ENDBRANCH  19  22
ENDBRANCH  17  18
ENDBRANCH   2  17
TORSDOF 6
ENDMDL
MODEL 3
REMARK VINA RESULT:      -7.8      0.818      1.634
REMARK  Name = 
REMARK  8 active torsions:
REMARK  status: ('A' for Active; 'I' for Inactive)
REMARK    1  A    between atoms: C_1  and  C_2
REMARK    2  A    between atoms: C_2  and  C_3
REMARK    3  A    between atoms: C_5  and  C_6
REMARK    4  A    between atoms: N_8  and  N_9
REMARK    5  A    between atoms: C_10  and  C_12
REMARK    6  A    between atoms: C_12  and  N_13
REMARK    7  A    between atoms: C_14  and  C_16
REMARK    8  A    between atoms: C_24  and  C_25
REMARK                            x       y       z     vdW  Elec       q    Type
REMARK                         _______ _______ _______ _____ _____    ______ ____
ROOT
ATOM      1  N   UNL     1       2.848   5.968  20.326  0.00  0.00    +0.000 N 
ATOM      2  C   UNL     1       2.285   4.711  20.275  0.00  0.00    +0.000 C 
ATOM      3  O   UNL     1       1.118   4.483  20.595  0.00  0.00    +0.000 OA
ATOM      4  H   UNL     1       3.823   6.144  20.073  0.00  0.00    +0.000 HD
ENDROOT
BRANCH   1   7
ATOM      5  C   UNL     1       1.875   8.025  19.571  0.00  0.00    +0.000 C 
ATOM      6  O   UNL     1       2.436   7.871  18.482  0.00  0.00    +0.000 OA
ATOM      7  N   UNL     1       2.042   7.088  20.577  0.00  0.00    +0.000 N 
ATOM      8  H   UNL     1       1.523   7.117  21.453  0.00  0.00    +0.000 HD
BRANCH   5  11
ATOM      9  C   UNL     1      -0.322  11.000  20.861  0.00  0.00    +0.000 A 
ATOM     10  S   UNL     1       0.447   9.566  21.414  0.00  0.00    +0.000 S 
ATOM     11  C   UNL     1       1.035   9.181  19.855  0.00  0.00    +0.000 A 
ATOM     12  C   UNL     1       0.621  10.122  18.931  0.00  0.00    +0.000 A 
ATOM     13  C   UNL     1      -0.164  11.179  19.497  0.00  0.00    +0.000 A 
ATOM     14  C   UNL     1      -0.715  12.318  18.701  0.00  0.00    +0.000 C 
BRANCH   9  16
ATOM     15  C   UNL     1      -1.379  11.161  23.130  0.00  0.00    +0.000 C 
ATOM     16  C   UNL     1      -1.057  11.885  21.831  0.00  0.00    +0.000 C 
ENDBRANCH   9  16
ENDBRANCH   5  11
ENDBRANCH   1   7
BRANCH   2  17
ATOM     17  C   UNL     1       3.269   3.604  19.894  0.00  0.00    +0.000 C 
BRANCH  17  18
ATOM     18  N   UNL     1       3.866   3.873  18.600  0.00  0.00    +0.000 N 
ATOM     19  C   UNL     1       5.199   4.191  18.470  0.00  0.00    +0.000 C 
ATOM     20  O   UNL     1       5.934   4.322  19.445  0.00  0.00    +0.000 OA
ATOM     21  H   UNL     1       3.320   3.651  17.774  0.00  0.00    +0.000 HD
BRANCH  19  22
ATOM     22  C   UNL     1       5.740   4.354  17.089  0.00  0.00    +0.000 A 
ATOM     23  C   UNL     1       4.858   4.249  16.003  0.00  0.00    +0.000 A 
ATOM     24  C   UNL     1       5.317   4.427  14.693  0.00  0.00    +0.000 A 
ATOM     25  C   UNL     1       6.661   4.710  14.455  0.00  0.00    +0.000 A 
ATOM     26  C   UNL     1       7.548   4.803  15.525  0.00  0.00    +0.000 A 
ATOM     27  C   UNL     1       7.087   4.623  16.829  0.00  0.00    +0.000 A 
ATOM     28  F   UNL     1       7.978   4.726  17.827  0.00  0.00    +0.000 F 
ENDBRANCH  19  22
ENDBRANCH  17  18
ENDBRANCH   2  17
TORSDOF 6
ENDMDL
MODEL 4
REMARK VINA RESULT:      -7.8      1.197      1.286
REMARK  Name = 
REMARK  8 active torsions:
REMARK  status: ('A' for Active; 'I' for Inactive)
REMARK    1  A    between atoms: C_1  and  C_2
REMARK    2  A    between atoms: C_2  and  C_3
REMARK    3  A    between atoms: C_5  and  C_6
REMARK    4  A    between atoms: N_8  and  N_9
REMARK    5  A    between atoms: C_10  and  C_12
REMARK    6  A    between atoms: C_12  and  N_13
REMARK    7  A    between atoms: C_14  and  C_16
REMARK    8  A    between atoms: C_24  and  C_25
REMARK                            x       y       z     vdW  Elec       q    Type
REMARK                         _______ _______ _______ _____ _____    ______ ____
ROOT
ATOM      1  N   UNL     1       2.909   5.027  20.464  0.00  0.00    +0.000 N 
ATOM      2  C   UNL     1       2.304   3.789  20.510  0.00  0.00    +0.000 C 
ATOM      3  O   UNL     1       1.196   3.600  21.014  0.00  0.00    +0.000 OA
ATOM      4  H   UNL     1       3.835   5.170  20.057  0.00  0.00    +0.000 HD
ENDROOT
BRANCH   1   7
ATOM      5  C   UNL     1       2.110   7.226  19.939  0.00  0.00    +0.000 C 
ATOM      6  O   UNL     1       2.669   7.149  18.841  0.00  0.00    +0.000 OA
ATOM      7  N   UNL     1       2.190   6.173  20.835  0.00  0.00    +0.000 N 
ATOM      8  H   UNL     1       1.666   6.146  21.708  0.00  0.00    +0.000 HD
BRANCH   5  11
ATOM      9  C   UNL     1       0.115  10.548  20.513  0.00  0.00    +0.000 A 
ATOM     10  S   UNL     1       1.033   9.727  19.313  0.00  0.00    +0.000 S 
ATOM     11  C   UNL     1       1.360   8.406  20.348  0.00  0.00    +0.000 A 
ATOM     12  C   UNL     1       0.798   8.611  21.594  0.00  0.00    +0.000 A 
ATOM     13  C   UNL     1       0.077   9.844  21.706  0.00  0.00    +0.000 A 
ATOM     14  C   UNL     1      -0.625  10.282  22.950  0.00  0.00    +0.000 C 
BRANCH   9  16
ATOM     15  C   UNL     1      -1.893  11.705  19.554  0.00  0.00    +0.000 C 
ATOM     16  C   UNL     1      -0.525  11.873  20.201  0.00  0.00    +0.000 C 
ENDBRANCH   9  16
ENDBRANCH   5  11
ENDBRANCH   1   7
BRANCH   2  17
ATOM     17  C   UNL     1       3.177   2.650  19.982  0.00  0.00    +0.000 C 
BRANCH  17  18
ATOM     18  N   UNL     1       4.226   3.165  19.123  0.00  0.00    +0.000 N 
ATOM     19  C   UNL     1       3.959   3.645  17.861  0.00  0.00    +0.000 C 
ATOM     20  O   UNL     1       2.831   3.605  17.377  0.00  0.00    +0.000 OA
ATOM     21  H   UNL     1       5.138   3.327  19.539  0.00  0.00    +0.000 HD
BRANCH  19  22
ATOM     22  C   UNL     1       5.090   4.243  17.094  0.00  0.00    +0.000 A 
ATOM     23  C   UNL     1       5.438   3.681  15.856  0.00  0.00    +0.000 A 
ATOM     24  C   UNL     1       6.471   4.232  15.089  0.00  0.00    +0.000 A 
ATOM     25  C   UNL     1       7.168   5.348  15.552  0.00  0.00    +0.000 A 
ATOM     26  C   UNL     1       6.840   5.905  16.785  0.00  0.00    +0.000 A 
ATOM     27  C   UNL     1       5.811   5.353  17.547  0.00  0.00    +0.000 A 
ATOM     28  F   UNL     1       5.529   5.927  18.727  0.00  0.00    +0.000 F 
ENDBRANCH  19  22
ENDBRANCH  17  18
ENDBRANCH   2  17
TORSDOF 6
ENDMDL
MODEL 5
REMARK VINA RESULT:      -7.7      6.666      7.943
REMARK  Name = 
REMARK  8 active torsions:
REMARK  status: ('A' for Active; 'I' for Inactive)
REMARK    1  A    between atoms: C_1  and  C_2
REMARK    2  A    between atoms: C_2  and  C_3
REMARK    3  A    between atoms: C_5  and  C_6
REMARK    4  A    between atoms: N_8  and  N_9
REMARK    5  A    between atoms: C_10  and  C_12
REMARK    6  A    between atoms: C_12  and  N_13
REMARK    7  A    between atoms: C_14  and  C_16
REMARK    8  A    between atoms: C_24  and  C_25
REMARK                            x       y       z     vdW  Elec       q    Type
REMARK                         _______ _______ _______ _____ _____    ______ ____
ROOT
ATOM      1  N   UNL     1       8.527   8.386  18.786  0.00  0.00    +0.000 N 
ATOM      2  C   UNL     1       7.850   7.490  17.987  0.00  0.00    +0.000 C 
ATOM      3  O   UNL     1       7.349   7.798  16.904  0.00  0.00    +0.000 OA
ATOM      4  H   UNL     1       8.925   8.123  19.690  0.00  0.00    +0.000 HD
ENDROOT
BRANCH   1   7
ATOM      5  C   UNL     1       9.262  10.631  19.197  0.00  0.00    +0.000 C 
ATOM      6  O   UNL     1       9.361  10.361  20.398  0.00  0.00    +0.000 OA
ATOM      7  N   UNL     1       8.833   9.666  18.301  0.00  0.00    +0.000 N 
ATOM      8  H   UNL     1       8.831   9.807  17.292  0.00  0.00    +0.000 HD
BRANCH   5  11
ATOM      9  C   UNL     1      10.542  13.954  17.567  0.00  0.00    +0.000 A 
ATOM     10  S   UNL     1      11.043  12.342  17.891  0.00  0.00    +0.000 S 
ATOM     11  C   UNL     1       9.572  11.953  18.670  0.00  0.00    +0.000 A 
ATOM     12  C   UNL     1       8.731  13.050  18.702  0.00  0.00    +0.000 A 
ATOM     13  C   UNL     1       9.278  14.214  18.070  0.00  0.00    +0.000 A 
ATOM     14  C   UNL     1       8.554  15.517  17.969  0.00  0.00    +0.000 C 
BRANCH   9  16
ATOM     15  C   UNL     1      12.333  15.700  17.763  0.00  0.00    +0.000 C 
ATOM     16  C   UNL     1      11.451  14.893  16.821  0.00  0.00    +0.000 C 
ENDBRANCH   9  16
ENDBRANCH   5  11
ENDBRANCH   1   7
BRANCH   2  17
ATOM     17  C   UNL     1       7.677   6.105  18.613  0.00  0.00    +0.000 C 
BRANCH  17  18
ATOM     18  N   UNL     1       6.284   5.705  18.593  0.00  0.00    +0.000 N 
ATOM     19  C   UNL     1       5.777   4.893  17.602  0.00  0.00    +0.000 C 
ATOM     20  O   UNL     1       6.464   4.518  16.656  0.00  0.00    +0.000 OA
ATOM     21  H   UNL     1       5.727   5.892  19.421  0.00  0.00    +0.000 HD
BRANCH  19  22
ATOM     22  C   UNL     1       4.355   4.458  17.724  0.00  0.00    +0.000 A 
ATOM     23  C   UNL     1       4.082   3.096  17.925  0.00  0.00    +0.000 A 
ATOM     24  C   UNL     1       2.765   2.649  18.077  0.00  0.00    +0.000 A 
ATOM     25  C   UNL     1       1.707   3.558  18.029  0.00  0.00    +0.000 A 
ATOM     26  C   UNL     1       1.967   4.909  17.817  0.00  0.00    +0.000 A 
ATOM     27  C   UNL     1       3.281   5.351  17.664  0.00  0.00    +0.000 A 
ATOM     28  F   UNL     1       3.481   6.663  17.465  0.00  0.00    +0.000 F 
ENDBRANCH  19  22
ENDBRANCH  17  18
ENDBRANCH   2  17
TORSDOF 6
ENDMDL
MODEL 6
REMARK VINA RESULT:      -7.7      6.128      7.921
REMARK  Name = 
REMARK  8 active torsions:
REMARK  status: ('A' for Active; 'I' for Inactive)
REMARK    1  A    between atoms: C_1  and  C_2
REMARK    2  A    between atoms: C_2  and  C_3
REMARK    3  A    between atoms: C_5  and  C_6
REMARK    4  A    between atoms: N_8  and  N_9
REMARK    5  A    between atoms: C_10  and  C_12
REMARK    6  A    between atoms: C_12  and  N_13
REMARK    7  A    between atoms: C_14  and  C_16
REMARK    8  A    between atoms: C_24  and  C_25
REMARK                            x       y       z     vdW  Elec       q    Type
REMARK                         _______ _______ _______ _____ _____    ______ ____
ROOT
ATOM      1  N   UNL     1       8.498   8.151  18.758  0.00  0.00    +0.000 N 
ATOM      2  C   UNL     1       7.797   7.248  17.988  0.00  0.00    +0.000 C 
ATOM      3  O   UNL     1       7.264   7.545  16.918  0.00  0.00    +0.000 OA
ATOM      4  H   UNL     1       8.924   7.897  19.652  0.00  0.00    +0.000 HD
ENDROOT
BRANCH   1   7
ATOM      5  C   UNL     1       9.227  10.405  19.127  0.00  0.00    +0.000 C 
ATOM      6  O   UNL     1       9.344  10.153  20.330  0.00  0.00    +0.000 OA
ATOM      7  N   UNL     1       8.791   9.426  18.251  0.00  0.00    +0.000 N 
ATOM      8  H   UNL     1       8.775   9.553  17.240  0.00  0.00    +0.000 HD
BRANCH   5  11
ATOM      9  C   UNL     1       9.648  14.133  17.999  0.00  0.00    +0.000 A 
ATOM     10  S   UNL     1       8.638  13.132  18.964  0.00  0.00    +0.000 S 
ATOM     11  C   UNL     1       9.523  11.722  18.577  0.00  0.00    +0.000 A 
ATOM     12  C   UNL     1      10.552  12.016  17.702  0.00  0.00    +0.000 A 
ATOM     13  C   UNL     1      10.637  13.404  17.358  0.00  0.00    +0.000 A 
ATOM     14  C   UNL     1      11.672  13.966  16.439  0.00  0.00    +0.000 C 
BRANCH   9  16
ATOM     15  C   UNL     1       7.915  15.945  18.027  0.00  0.00    +0.000 C 
ATOM     16  C   UNL     1       9.397  15.614  17.925  0.00  0.00    +0.000 C 
ENDBRANCH   9  16
ENDBRANCH   5  11
ENDBRANCH   1   7
BRANCH   2  17
ATOM     17  C   UNL     1       7.642   5.870  18.633  0.00  0.00    +0.000 C 
BRANCH  17  18
ATOM     18  N   UNL     1       6.317   5.717  19.202  0.00  0.00    +0.000 N 
ATOM     19  C   UNL     1       5.384   4.868  18.650  0.00  0.00    +0.000 C 
ATOM     20  O   UNL     1       5.607   4.245  17.616  0.00  0.00    +0.000 OA
ATOM     21  H   UNL     1       6.149   6.119  20.120  0.00  0.00    +0.000 HD
BRANCH  19  22
ATOM     22  C   UNL     1       4.085   4.708  19.365  0.00  0.00    +0.000 A 
ATOM     23  C   UNL     1       3.271   5.836  19.546  0.00  0.00    +0.000 A 
ATOM     24  C   UNL     1       2.030   5.725  20.182  0.00  0.00    +0.000 A 
ATOM     25  C   UNL     1       1.590   4.485  20.645  0.00  0.00    +0.000 A 
ATOM     26  C   UNL     1       2.396   3.361  20.483  0.00  0.00    +0.000 A 
ATOM     27  C   UNL     1       3.633   3.477  19.850  0.00  0.00    +0.000 A 
ATOM     28  F   UNL     1       4.373   2.365  19.714  0.00  0.00    +0.000 F 
ENDBRANCH  19  22
ENDBRANCH  17  18
ENDBRANCH   2  17
TORSDOF 6
ENDMDL
MODEL 7
REMARK VINA RESULT:      -7.7      5.587      7.426
REMARK  Name = 
REMARK  8 active torsions:
REMARK  status: ('A' for Active; 'I' for Inactive)
REMARK    1  A    between atoms: C_1  and  C_2
REMARK    2  A    between atoms: C_2  and  C_3
REMARK    3  A    between atoms: C_5  and  C_6
REMARK    4  A    between atoms: N_8  and  N_9
REMARK    5  A    between atoms: C_10  and  C_12
REMARK    6  A    between atoms: C_12  and  N_13
REMARK    7  A    between atoms: C_14  and  C_16
REMARK    8  A    between atoms: C_24  and  C_25
REMARK                            x       y       z     vdW  Elec       q    Type
REMARK                         _______ _______ _______ _____ _____    ______ ____
ROOT
ATOM      1  N   UNL     1       7.926   6.608  18.166  0.00  0.00    +0.000 N 
ATOM      2  C   UNL     1       7.546   5.597  19.022  0.00  0.00    +0.000 C 
ATOM      3  O   UNL     1       7.801   5.603  20.227  0.00  0.00    +0.000 OA
ATOM      4  H   UNL     1       7.722   6.586  17.164  0.00  0.00    +0.000 HD
ENDROOT
BRANCH   1   7
ATOM      5  C   UNL     1       8.189   8.988  18.038  0.00  0.00    +0.000 C 
ATOM      6  O   UNL     1       7.475   8.996  17.030  0.00  0.00    +0.000 OA
ATOM      7  N   UNL     1       8.472   7.794  18.679  0.00  0.00    +0.000 N 
ATOM      8  H   UNL     1       8.969   7.745  19.567  0.00  0.00    +0.000 HD
BRANCH   5  11
ATOM      9  C   UNL     1       9.858  11.963  19.963  0.00  0.00    +0.000 A 
ATOM     10  S   UNL     1       9.312  10.351  20.203  0.00  0.00    +0.000 S 
ATOM     11  C   UNL     1       8.768  10.206  18.589  0.00  0.00    +0.000 A 
ATOM     12  C   UNL     1       8.979  11.382  17.895  0.00  0.00    +0.000 A 
ATOM     13  C   UNL     1       9.606  12.408  18.675  0.00  0.00    +0.000 A 
ATOM     14  C   UNL     1       9.946  13.762  18.142  0.00  0.00    +0.000 C 
BRANCH   9  16
ATOM     15  C   UNL     1       9.559  13.695  21.753  0.00  0.00    +0.000 C 
ATOM     16  C   UNL     1      10.515  12.715  21.088  0.00  0.00    +0.000 C 
ENDBRANCH   9  16
ENDBRANCH   5  11
ENDBRANCH   1   7
BRANCH   2  17
ATOM     17  C   UNL     1       6.876   4.411  18.325  0.00  0.00    +0.000 C 
BRANCH  17  18
ATOM     18  N   UNL     1       5.607   4.098  18.954  0.00  0.00    +0.000 N 
ATOM     19  C   UNL     1       4.414   4.559  18.446  0.00  0.00    +0.000 C 
ATOM     20  O   UNL     1       4.369   5.306  17.471  0.00  0.00    +0.000 OA
ATOM     21  H   UNL     1       5.602   3.387  19.678  0.00  0.00    +0.000 HD
BRANCH  19  22
ATOM     22  C   UNL     1       3.157   4.102  19.106  0.00  0.00    +0.000 A 
ATOM     23  C   UNL     1       2.742   2.774  18.921  0.00  0.00    +0.000 A 
ATOM     24  C   UNL     1       1.588   2.294  19.549  0.00  0.00    +0.000 A 
ATOM     25  C   UNL     1       0.835   3.136  20.368  0.00  0.00    +0.000 A 
ATOM     26  C   UNL     1       1.230   4.459  20.548  0.00  0.00    +0.000 A 
ATOM     27  C   UNL     1       2.381   4.934  19.919  0.00  0.00    +0.000 A 
ATOM     28  F   UNL     1       2.723   6.215  20.126  0.00  0.00    +0.000 F 
ENDBRANCH  19  22
ENDBRANCH  17  18
ENDBRANCH   2  17
TORSDOF 6
ENDMDL
MODEL 8
REMARK VINA RESULT:      -7.7      6.669      7.973
REMARK  Name = 
REMARK  8 active torsions:
REMARK  status: ('A' for Active; 'I' for Inactive)
REMARK    1  A    between atoms: C_1  and  C_2
REMARK    2  A    between atoms: C_2  and  C_3
REMARK    3  A    between atoms: C_5  and  C_6
REMARK    4  A    between atoms: N_8  and  N_9
REMARK    5  A    between atoms: C_10  and  C_12
REMARK    6  A    between atoms: C_12  and  N_13
REMARK    7  A    between atoms: C_14  and  C_16
REMARK    8  A    between atoms: C_24  and  C_25
REMARK                            x       y       z     vdW  Elec       q    Type
REMARK                         _______ _______ _______ _____ _____    ______ ____
ROOT
ATOM      1  N   UNL     1       8.600   8.465  18.795  0.00  0.00    +0.000 N 
ATOM      2  C   UNL     1       7.904   7.566  18.015  0.00  0.00    +0.000 C 
ATOM      3  O   UNL     1       7.374   7.871  16.946  0.00  0.00    +0.000 OA
ATOM      4  H   UNL     1       9.023   8.204  19.689  0.00  0.00    +0.000 HD
ENDROOT
BRANCH   1   7
ATOM      5  C   UNL     1       9.309  10.721  19.189  0.00  0.00    +0.000 C 
ATOM      6  O   UNL     1       9.413  10.461  20.392  0.00  0.00    +0.000 OA
ATOM      7  N   UNL     1       8.891   9.744  18.301  0.00  0.00    +0.000 N 
ATOM      8  H   UNL     1       8.887   9.878  17.291  0.00  0.00    +0.000 HD
BRANCH   5  11
ATOM      9  C   UNL     1      10.546  14.045  17.527  0.00  0.00    +0.000 A 
ATOM     10  S   UNL     1      11.062  12.438  17.852  0.00  0.00    +0.000 S 
ATOM     11  C   UNL     1       9.604  12.043  18.651  0.00  0.00    +0.000 A 
ATOM     12  C   UNL     1       8.756  13.134  18.690  0.00  0.00    +0.000 A 
ATOM     13  C   UNL     1       9.287  14.299  18.045  0.00  0.00    +0.000 A 
ATOM     14  C   UNL     1       8.553  15.597  17.947  0.00  0.00    +0.000 C 
BRANCH   9  16
ATOM     15  C   UNL     1      12.198  15.926  17.690  0.00  0.00    +0.000 C 
ATOM     16  C   UNL     1      11.438  14.986  16.764  0.00  0.00    +0.000 C 
ENDBRANCH   9  16
ENDBRANCH   5  11
ENDBRANCH   1   7
BRANCH   2  17
ATOM     17  C   UNL     1       7.750   6.182  18.648  0.00  0.00    +0.000 C 
BRANCH  17  18
ATOM     18  N   UNL     1       6.350   5.825  18.763  0.00  0.00    +0.000 N 
ATOM     19  C   UNL     1       5.795   4.813  18.012  0.00  0.00    +0.000 C 
ATOM     20  O   UNL     1       6.444   4.204  17.165  0.00  0.00    +0.000 OA
ATOM     21  H   UNL     1       5.824   6.220  19.537  0.00  0.00    +0.000 HD
BRANCH  19  22
ATOM     22  C   UNL     1       4.371   4.457  18.274  0.00  0.00    +0.000 A 
ATOM     23  C   UNL     1       3.362   5.198  17.638  0.00  0.00    +0.000 A 
ATOM     24  C   UNL     1       2.014   4.876  17.830  0.00  0.00    +0.000 A 
ATOM     25  C   UNL     1       1.659   3.813  18.661  0.00  0.00    +0.000 A 
ATOM     26  C   UNL     1       2.651   3.080  19.307  0.00  0.00    +0.000 A 
ATOM     27  C   UNL     1       3.994   3.405  19.114  0.00  0.00    +0.000 A 
ATOM     28  F   UNL     1       4.914   2.667  19.756  0.00  0.00    +0.000 F 
ENDBRANCH  19  22
ENDBRANCH  17  18
ENDBRANCH   2  17
TORSDOF 6
ENDMDL
MODEL 9
REMARK VINA RESULT:      -7.7      5.419      7.388
REMARK  Name = 
REMARK  8 active torsions:
REMARK  status: ('A' for Active; 'I' for Inactive)
REMARK    1  A    between atoms: C_1  and  C_2
REMARK    2  A    between atoms: C_2  and  C_3
REMARK    3  A    between atoms: C_5  and  C_6
REMARK    4  A    between atoms: N_8  and  N_9
REMARK    5  A    between atoms: C_10  and  C_12
REMARK    6  A    between atoms: C_12  and  N_13
REMARK    7  A    between atoms: C_14  and  C_16
REMARK    8  A    between atoms: C_24  and  C_25
REMARK                            x       y       z     vdW  Elec       q    Type
REMARK                         _______ _______ _______ _____ _____    ______ ____
ROOT
ATOM      1  N   UNL     1       7.394   6.814  16.815  0.00  0.00    +0.000 N 
ATOM      2  C   UNL     1       6.063   6.457  16.779  0.00  0.00    +0.000 C 
ATOM      3  O   UNL     1       5.154   7.213  17.124  0.00  0.00    +0.000 OA
ATOM      4  H   UNL     1       8.142   6.174  16.541  0.00  0.00    +0.000 HD
ENDROOT
BRANCH   1   7
ATOM      5  C   UNL     1       8.397   8.432  18.273  0.00  0.00    +0.000 C 
ATOM      6  O   UNL     1       8.632   7.531  19.083  0.00  0.00    +0.000 OA
ATOM      7  N   UNL     1       7.757   8.143  17.079  0.00  0.00    +0.000 N 
ATOM      8  H   UNL     1       7.631   8.829  16.337  0.00  0.00    +0.000 HD
BRANCH   5  11
ATOM      9  C   UNL     1       9.668  11.971  19.372  0.00  0.00    +0.000 A 
ATOM     10  S   UNL     1       9.635  10.336  19.901  0.00  0.00    +0.000 S 
ATOM     11  C   UNL     1       8.761   9.820  18.525  0.00  0.00    +0.000 A 
ATOM     12  C   UNL     1       8.480  10.890  17.697  0.00  0.00    +0.000 A 
ATOM     13  C   UNL     1       8.996  12.139  18.172  0.00  0.00    +0.000 A 
ATOM     14  C   UNL     1       8.830  13.434  17.445  0.00  0.00    +0.000 C 
BRANCH   9  16
ATOM     15  C   UNL     1      11.815  13.211  19.754  0.00  0.00    +0.000 C 
ATOM     16  C   UNL     1      10.370  13.017  20.194  0.00  0.00    +0.000 C 
ENDBRANCH   9  16
ENDBRANCH   5  11
ENDBRANCH   1   7
BRANCH   2  17
ATOM     17  C   UNL     1       5.821   5.001  16.380  0.00  0.00    +0.000 C 
BRANCH  17  18
ATOM     18  N   UNL     1       4.583   4.511  16.956  0.00  0.00    +0.000 N 
ATOM     19  C   UNL     1       4.530   4.003  18.234  0.00  0.00    +0.000 C 
ATOM     20  O   UNL     1       5.537   3.883  18.927  0.00  0.00    +0.000 OA
ATOM     21  H   UNL     1       3.720   4.713  16.460  0.00  0.00    +0.000 HD
BRANCH  19  22
ATOM     22  C   UNL     1       3.193   3.617  18.771  0.00  0.00    +0.000 A 
ATOM     23  C   UNL     1       2.522   2.529  18.191  0.00  0.00    +0.000 A 
ATOM     24  C   UNL     1       1.281   2.113  18.685  0.00  0.00    +0.000 A 
ATOM     25  C   UNL     1       0.697   2.779  19.762  0.00  0.00    +0.000 A 
ATOM     26  C   UNL     1       1.348   3.868  20.336  0.00  0.00    +0.000 A 
ATOM     27  C   UNL     1       2.584   4.281  19.840  0.00  0.00    +0.000 A 
ATOM     28  F   UNL     1       3.174   5.333  20.429  0.00  0.00    +0.000 F 
ENDBRANCH  19  22
ENDBRANCH  17  18
ENDBRANCH   2  17
TORSDOF 6
ENDMDL
