MODEL 1
REMARK VINA RESULT:      -6.6      0.000      0.000
REMARK  Name = 
REMARK  4 active torsions:
REMARK  status: ('A' for Active; 'I' for Inactive)
REMARK    1  A    between atoms: C_1  and  N_2
REMARK    2  A    between atoms: C_4  and  C_5
REMARK    3  A    between atoms: C_5  and  N_6
REMARK    4  A    between atoms: C_11  and  N_12
REMARK                            x       y       z     vdW  Elec       q    Type
REMARK                         _______ _______ _______ _____ _____    ______ ____
ROOT
ATOM      1  N   UNL     1       5.539   5.649  17.480  0.00  0.00    +0.000 N 
ATOM      2  C   UNL     1       6.201   5.383  18.774  0.00  0.00    +0.000 C 
ATOM      3  C   UNL     1       7.663   5.055  18.379  0.00  0.00    +0.000 C 
ATOM      4  N   UNL     1       7.581   4.933  16.938  0.00  0.00    +0.000 N 
ATOM      5  C   UNL     1       6.365   5.287  16.413  0.00  0.00    +0.000 C 
ATOM      6  C   UNL     1       5.991   5.280  15.127  0.00  0.00    +0.000 C 
ATOM      7  H   UNL     1       8.361   4.680  16.335  0.00  0.00    +0.000 HD
ENDROOT
BRANCH   6   8
ATOM      8  N   UNL     1       6.862   4.844  14.064  0.00  0.00    +0.000 N 
ATOM      9  O   UNL     1       6.527   3.902  13.331  0.00  0.00    +0.000 OA
ATOM     10  O   UNL     1       7.921   5.478  13.952  0.00  0.00    +0.000 OA
ENDBRANCH   6   8
BRANCH   1  11
ATOM     11  C   UNL     1       4.082   5.763  17.472  0.00  0.00    +0.000 C 
BRANCH  11  15
ATOM     12  C   UNL     1       0.647   2.376  18.871  0.00  0.00    +0.000 C 
ATOM     13  N   UNL     1       1.778   3.020  18.249  0.00  0.00    +0.000 N 
ATOM     14  C   UNL     1       1.993   4.360  18.135  0.00  0.00    +0.000 A 
ATOM     15  C   UNL     1       3.284   4.514  17.668  0.00  0.00    +0.000 A 
ATOM     16  C   UNL     1       3.716   3.186  17.440  0.00  0.00    +0.000 A 
ATOM     17  N   UNL     1       2.800   2.279  17.787  0.00  0.00    +0.000 NA
ENDBRANCH  11  15
ENDBRANCH   1  11
TORSDOF 3
ENDMDL
MODEL 2
REMARK VINA RESULT:      -6.5      2.518      3.274
REMARK  Name = 
REMARK  4 active torsions:
REMARK  status: ('A' for Active; 'I' for Inactive)
REMARK    1  A    between atoms: C_1  and  N_2
REMARK    2  A    between atoms: C_4  and  C_5
REMARK    3  A    between atoms: C_5  and  N_6
REMARK    4  A    between atoms: C_11  and  N_12
REMARK                            x       y       z     vdW  Elec       q    Type
REMARK                         _______ _______ _______ _____ _____    ______ ____
ROOT
ATOM      1  N   UNL     1       5.081   4.586  16.973  0.00  0.00    +0.000 N 
ATOM      2  C   UNL     1       5.328   4.304  15.544  0.00  0.00    +0.000 C 
ATOM      3  C   UNL     1       6.873   4.242  15.444  0.00  0.00    +0.000 C 
ATOM      4  N   UNL     1       7.294   4.733  16.739  0.00  0.00    +0.000 N 
ATOM      5  C   UNL     1       6.268   4.920  17.629  0.00  0.00    +0.000 C 
ATOM      6  C   UNL     1       6.345   5.359  18.892  0.00  0.00    +0.000 C 
ATOM      7  H   UNL     1       8.264   4.868  17.018  0.00  0.00    +0.000 HD
ENDROOT
BRANCH   6   8
ATOM      8  N   UNL     1       7.588   5.745  19.510  0.00  0.00    +0.000 N 
ATOM      9  O   UNL     1       7.962   5.194  20.556  0.00  0.00    +0.000 OA
ATOM     10  O   UNL     1       8.220   6.632  18.920  0.00  0.00    +0.000 OA
ENDBRANCH   6   8
BRANCH   1  11
ATOM     11  C   UNL     1       3.720   4.942  17.370  0.00  0.00    +0.000 C 
BRANCH  11  15
ATOM     12  C   UNL     1       1.718   2.604  21.339  0.00  0.00    +0.000 C 
ATOM     13  N   UNL     1       2.082   2.975  19.994  0.00  0.00    +0.000 N 
ATOM     14  C   UNL     1       2.598   4.168  19.587  0.00  0.00    +0.000 A 
ATOM     15  C   UNL     1       2.987   4.001  18.272  0.00  0.00    +0.000 A 
ATOM     16  C   UNL     1       2.561   2.687  17.962  0.00  0.00    +0.000 A 
ATOM     17  N   UNL     1       2.006   2.066  19.005  0.00  0.00    +0.000 NA
ENDBRANCH  11  15
ENDBRANCH   1  11
TORSDOF 3
ENDMDL
MODEL 3
REMARK VINA RESULT:      -6.4      1.175      1.177
REMARK  Name = 
REMARK  4 active torsions:
REMARK  status: ('A' for Active; 'I' for Inactive)
REMARK    1  A    between atoms: C_1  and  N_2
REMARK    2  A    between atoms: C_4  and  C_5
REMARK    3  A    between atoms: C_5  and  N_6
REMARK    4  A    between atoms: C_11  and  N_12
REMARK                            x       y       z     vdW  Elec       q    Type
REMARK                         _______ _______ _______ _____ _____    ______ ____
ROOT
ATOM      1  N   UNL     1       5.464   5.590  17.700  0.00  0.00    +0.000 N 
ATOM      2  C   UNL     1       6.206   5.438  18.969  0.00  0.00    +0.000 C 
ATOM      3  C   UNL     1       7.672   5.228  18.514  0.00  0.00    +0.000 C 
ATOM      4  N   UNL     1       7.537   5.041  17.084  0.00  0.00    +0.000 N 
ATOM      5  C   UNL     1       6.270   5.261  16.607  0.00  0.00    +0.000 C 
ATOM      6  C   UNL     1       5.840   5.168  15.342  0.00  0.00    +0.000 C 
ATOM      7  H   UNL     1       8.308   4.835  16.453  0.00  0.00    +0.000 HD
ENDROOT
BRANCH   6   8
ATOM      8  N   UNL     1       6.698   4.771  14.254  0.00  0.00    +0.000 N 
ATOM      9  O   UNL     1       6.373   3.829  13.516  0.00  0.00    +0.000 OA
ATOM     10  O   UNL     1       7.736   5.435  14.128  0.00  0.00    +0.000 OA
ENDBRANCH   6   8
BRANCH   1  11
ATOM     11  C   UNL     1       4.004   5.570  17.760  0.00  0.00    +0.000 C 
BRANCH  11  15
ATOM     12  C   UNL     1       1.969   2.968  21.543  0.00  0.00    +0.000 C 
ATOM     13  N   UNL     1       2.438   3.373  20.241  0.00  0.00    +0.000 N 
ATOM     14  C   UNL     1       2.757   4.636  19.845  0.00  0.00    +0.000 A 
ATOM     15  C   UNL     1       3.354   4.520  18.604  0.00  0.00    +0.000 A 
ATOM     16  C   UNL     1       3.246   3.141  18.310  0.00  0.00    +0.000 A 
ATOM     17  N   UNL     1       2.685   2.444  19.300  0.00  0.00    +0.000 NA
ENDBRANCH  11  15
ENDBRANCH   1  11
TORSDOF 3
ENDMDL
MODEL 4
REMARK VINA RESULT:      -6.3      0.813      1.238
REMARK  Name = 
REMARK  4 active torsions:
REMARK  status: ('A' for Active; 'I' for Inactive)
REMARK    1  A    between atoms: C_1  and  N_2
REMARK    2  A    between atoms: C_4  and  C_5
REMARK    3  A    between atoms: C_5  and  N_6
REMARK    4  A    between atoms: C_11  and  N_12
REMARK                            x       y       z     vdW  Elec       q    Type
REMARK                         _______ _______ _______ _____ _____    ______ ____
ROOT
ATOM      1  N   UNL     1       5.633   5.895  17.556  0.00  0.00    +0.000 N 
ATOM      2  C   UNL     1       6.257   5.564  18.854  0.00  0.00    +0.000 C 
ATOM      3  C   UNL     1       7.650   5.012  18.461  0.00  0.00    +0.000 C 
ATOM      4  N   UNL     1       7.541   4.869  17.024  0.00  0.00    +0.000 N 
ATOM      5  C   UNL     1       6.387   5.389  16.495  0.00  0.00    +0.000 C 
ATOM      6  C   UNL     1       6.007   5.408  15.211  0.00  0.00    +0.000 C 
ATOM      7  H   UNL     1       8.269   4.488  16.425  0.00  0.00    +0.000 HD
ENDROOT
BRANCH   6   8
ATOM      8  N   UNL     1       6.795   4.822  14.155  0.00  0.00    +0.000 N 
ATOM      9  O   UNL     1       6.395   3.805  13.570  0.00  0.00    +0.000 OA
ATOM     10  O   UNL     1       7.855   5.410  13.896  0.00  0.00    +0.000 OA
ENDBRANCH   6   8
BRANCH   1  11
ATOM     11  C   UNL     1       4.209   6.226  17.551  0.00  0.00    +0.000 C 
BRANCH  11  15
ATOM     12  C   UNL     1       1.147   2.418  18.713  0.00  0.00    +0.000 C 
ATOM     13  N   UNL     1       1.947   3.616  18.779  0.00  0.00    +0.000 N 
ATOM     14  C   UNL     1       2.935   3.986  17.918  0.00  0.00    +0.000 A 
ATOM     15  C   UNL     1       3.272   5.286  18.242  0.00  0.00    +0.000 A 
ATOM     16  C   UNL     1       2.485   5.560  19.385  0.00  0.00    +0.000 A 
ATOM     17  N   UNL     1       1.684   4.545  19.716  0.00  0.00    +0.000 NA
ENDBRANCH  11  15
ENDBRANCH   1  11
TORSDOF 3
ENDMDL
MODEL 5
REMARK VINA RESULT:      -6.3      1.192      1.536
REMARK  Name = 
REMARK  4 active torsions:
REMARK  status: ('A' for Active; 'I' for Inactive)
REMARK    1  A    between atoms: C_1  and  N_2
REMARK    2  A    between atoms: C_4  and  C_5
REMARK    3  A    between atoms: C_5  and  N_6
REMARK    4  A    between atoms: C_11  and  N_12
REMARK                            x       y       z     vdW  Elec       q    Type
REMARK                         _______ _______ _______ _____ _____    ______ ____
ROOT
ATOM      1  N   UNL     1       5.980   4.980  17.454  0.00  0.00    +0.000 N 
ATOM      2  C   UNL     1       6.554   5.872  18.482  0.00  0.00    +0.000 C 
ATOM      3  C   UNL     1       7.392   6.885  17.662  0.00  0.00    +0.000 C 
ATOM      4  N   UNL     1       7.389   6.301  16.337  0.00  0.00    +0.000 N 
ATOM      5  C   UNL     1       6.567   5.211  16.207  0.00  0.00    +0.000 C 
ATOM      6  C   UNL     1       6.354   4.467  15.114  0.00  0.00    +0.000 C 
ATOM      7  H   UNL     1       7.885   6.684  15.536  0.00  0.00    +0.000 HD
ENDROOT
BRANCH   6   8
ATOM      8  N   UNL     1       7.026   4.710  13.862  0.00  0.00    +0.000 N 
ATOM      9  O   UNL     1       7.935   5.552  13.795  0.00  0.00    +0.000 OA
ATOM     10  O   UNL     1       6.633   4.025  12.907  0.00  0.00    +0.000 OA
ENDBRANCH   6   8
BRANCH   1  11
ATOM     11  C   UNL     1       5.317   3.758  17.907  0.00  0.00    +0.000 C 
BRANCH  11  15
ATOM     12  C   UNL     1       0.815   3.827  20.132  0.00  0.00    +0.000 C 
ATOM     13  N   UNL     1       1.872   3.882  19.153  0.00  0.00    +0.000 N 
ATOM     14  C   UNL     1       3.202   4.048  19.395  0.00  0.00    +0.000 A 
ATOM     15  C   UNL     1       3.851   3.825  18.196  0.00  0.00    +0.000 A 
ATOM     16  C   UNL     1       2.795   3.632  17.276  0.00  0.00    +0.000 A 
ATOM     17  N   UNL     1       1.592   3.672  17.854  0.00  0.00    +0.000 NA
ENDBRANCH  11  15
ENDBRANCH   1  11
TORSDOF 3
ENDMDL
MODEL 6
REMARK VINA RESULT:      -6.3      1.467      1.917
REMARK  Name = 
REMARK  4 active torsions:
REMARK  status: ('A' for Active; 'I' for Inactive)
REMARK    1  A    between atoms: C_1  and  N_2
REMARK    2  A    between atoms: C_4  and  C_5
REMARK    3  A    between atoms: C_5  and  N_6
REMARK    4  A    between atoms: C_11  and  N_12
REMARK                            x       y       z     vdW  Elec       q    Type
REMARK                         _______ _______ _______ _____ _____    ______ ____
ROOT
ATOM      1  N   UNL     1       5.322   4.463  17.136  0.00  0.00    +0.000 N 
ATOM      2  C   UNL     1       6.118   4.489  18.381  0.00  0.00    +0.000 C 
ATOM      3  C   UNL     1       7.543   4.859  17.899  0.00  0.00    +0.000 C 
ATOM      4  N   UNL     1       7.428   4.750  16.459  0.00  0.00    +0.000 N 
ATOM      5  C   UNL     1       6.150   4.536  16.013  0.00  0.00    +0.000 C 
ATOM      6  C   UNL     1       5.733   4.395  14.747  0.00  0.00    +0.000 C 
ATOM      7  H   UNL     1       8.197   4.888  15.807  0.00  0.00    +0.000 HD
ENDROOT
BRANCH   6   8
ATOM      8  N   UNL     1       6.633   4.422  13.622  0.00  0.00    +0.000 N 
ATOM      9  O   UNL     1       7.525   5.281  13.557  0.00  0.00    +0.000 OA
ATOM     10  O   UNL     1       6.444   3.542  12.771  0.00  0.00    +0.000 OA
ENDBRANCH   6   8
BRANCH   1  11
ATOM     11  C   UNL     1       3.970   3.913  17.205  0.00  0.00    +0.000 C 
BRANCH  11  15
ATOM     12  C   UNL     1       1.632   2.831  21.516  0.00  0.00    +0.000 C 
ATOM     13  N   UNL     1       2.247   3.534  20.418  0.00  0.00    +0.000 N 
ATOM     14  C   UNL     1       3.084   3.011  19.480  0.00  0.00    +0.000 A 
ATOM     15  C   UNL     1       3.252   3.986  18.515  0.00  0.00    +0.000 A 
ATOM     16  C   UNL     1       2.545   5.095  19.036  0.00  0.00    +0.000 A 
ATOM     17  N   UNL     1       1.939   4.824  20.194  0.00  0.00    +0.000 NA
ENDBRANCH  11  15
ENDBRANCH   1  11
TORSDOF 3
ENDMDL
MODEL 7
REMARK VINA RESULT:      -6.3      1.674      2.230
REMARK  Name = 
REMARK  4 active torsions:
REMARK  status: ('A' for Active; 'I' for Inactive)
REMARK    1  A    between atoms: C_1  and  N_2
REMARK    2  A    between atoms: C_4  and  C_5
REMARK    3  A    between atoms: C_5  and  N_6
REMARK    4  A    between atoms: C_11  and  N_12
REMARK                            x       y       z     vdW  Elec       q    Type
REMARK                         _______ _______ _______ _____ _____    ______ ____
ROOT
ATOM      1  N   UNL     1       4.387   4.719  16.890  0.00  0.00    +0.000 N 
ATOM      2  C   UNL     1       4.126   5.885  17.759  0.00  0.00    +0.000 C 
ATOM      3  C   UNL     1       4.762   7.068  16.988  0.00  0.00    +0.000 C 
ATOM      4  N   UNL     1       5.501   6.400  15.937  0.00  0.00    +0.000 N 
ATOM      5  C   UNL     1       5.279   5.049  15.867  0.00  0.00    +0.000 C 
ATOM      6  C   UNL     1       5.812   4.172  15.007  0.00  0.00    +0.000 C 
ATOM      7  H   UNL     1       6.084   6.874  15.250  0.00  0.00    +0.000 HD
ENDROOT
BRANCH   6   8
ATOM      8  N   UNL     1       6.772   4.550  14.001  0.00  0.00    +0.000 N 
ATOM      9  O   UNL     1       7.623   5.418  14.246  0.00  0.00    +0.000 OA
ATOM     10  O   UNL     1       6.676   3.948  12.922  0.00  0.00    +0.000 OA
ENDBRANCH   6   8
BRANCH   1  11
ATOM     11  C   UNL     1       4.120   3.391  17.437  0.00  0.00    +0.000 C 
BRANCH  11  15
ATOM     12  C   UNL     1       1.499   2.602  21.648  0.00  0.00    +0.000 C 
ATOM     13  N   UNL     1       1.872   2.945  20.298  0.00  0.00    +0.000 N 
ATOM     14  C   UNL     1       3.130   3.186  19.835  0.00  0.00    +0.000 A 
ATOM     15  C   UNL     1       3.036   3.261  18.459  0.00  0.00    +0.000 A 
ATOM     16  C   UNL     1       1.647   3.149  18.214  0.00  0.00    +0.000 A 
ATOM     17  N   UNL     1       0.939   2.963  19.330  0.00  0.00    +0.000 NA
ENDBRANCH  11  15
ENDBRANCH   1  11
TORSDOF 3
ENDMDL
MODEL 8
REMARK VINA RESULT:      -6.3      3.464      4.597
REMARK  Name = 
REMARK  4 active torsions:
REMARK  status: ('A' for Active; 'I' for Inactive)
REMARK    1  A    between atoms: C_1  and  N_2
REMARK    2  A    between atoms: C_4  and  C_5
REMARK    3  A    between atoms: C_5  and  N_6
REMARK    4  A    between atoms: C_11  and  N_12
REMARK                            x       y       z     vdW  Elec       q    Type
REMARK                         _______ _______ _______ _____ _____    ______ ____
ROOT
ATOM      1  N   UNL     1       3.552   4.287  18.694  0.00  0.00    +0.000 N 
ATOM      2  C   UNL     1       2.894   2.968  18.792  0.00  0.00    +0.000 C 
ATOM      3  C   UNL     1       3.972   2.066  19.444  0.00  0.00    +0.000 C 
ATOM      4  N   UNL     1       5.153   2.903  19.400  0.00  0.00    +0.000 N 
ATOM      5  C   UNL     1       4.916   4.187  18.982  0.00  0.00    +0.000 C 
ATOM      6  C   UNL     1       5.801   5.183  18.842  0.00  0.00    +0.000 C 
ATOM      7  H   UNL     1       6.077   2.614  19.713  0.00  0.00    +0.000 HD
ENDROOT
BRANCH   6   8
ATOM      8  N   UNL     1       7.209   5.017  19.098  0.00  0.00    +0.000 N 
ATOM      9  O   UNL     1       7.941   4.496  18.244  0.00  0.00    +0.000 OA
ATOM     10  O   UNL     1       7.601   5.434  20.197  0.00  0.00    +0.000 OA
ENDBRANCH   6   8
BRANCH   1  11
ATOM     11  C   UNL     1       2.888   5.321  17.903  0.00  0.00    +0.000 C 
BRANCH  11  15
ATOM     12  C   UNL     1       1.191   8.686  21.223  0.00  0.00    +0.000 C 
ATOM     13  N   UNL     1       1.759   8.069  20.050  0.00  0.00    +0.000 N 
ATOM     14  C   UNL     1       2.230   6.796  19.944  0.00  0.00    +0.000 A 
ATOM     15  C   UNL     1       2.476   6.577  18.603  0.00  0.00    +0.000 A 
ATOM     16  C   UNL     1       2.209   7.832  18.006  0.00  0.00    +0.000 A 
ATOM     17  N   UNL     1       1.780   8.740  18.885  0.00  0.00    +0.000 NA
ENDBRANCH  11  15
ENDBRANCH   1  11
TORSDOF 3
ENDMDL
MODEL 9
REMARK VINA RESULT:      -6.2      1.320      1.604
REMARK  Name = 
REMARK  4 active torsions:
REMARK  status: ('A' for Active; 'I' for Inactive)
REMARK    1  A    between atoms: C_1  and  N_2
REMARK    2  A    between atoms: C_4  and  C_5
REMARK    3  A    between atoms: C_5  and  N_6
REMARK    4  A    between atoms: C_11  and  N_12
REMARK                            x       y       z     vdW  Elec       q    Type
REMARK                         _______ _______ _______ _____ _____    ______ ____
ROOT
ATOM      1  N   UNL     1       5.363   4.441  16.843  0.00  0.00    +0.000 N 
ATOM      2  C   UNL     1       6.018   4.365  18.165  0.00  0.00    +0.000 C 
ATOM      3  C   UNL     1       7.476   4.803  17.879  0.00  0.00    +0.000 C 
ATOM      4  N   UNL     1       7.522   4.826  16.432  0.00  0.00    +0.000 N 
ATOM      5  C   UNL     1       6.306   4.632  15.829  0.00  0.00    +0.000 C 
ATOM      6  C   UNL     1       6.033   4.603  14.518  0.00  0.00    +0.000 C 
ATOM      7  H   UNL     1       8.353   5.037  15.884  0.00  0.00    +0.000 HD
ENDROOT
BRANCH   6   8
ATOM      8  N   UNL     1       7.049   4.750  13.506  0.00  0.00    +0.000 N 
ATOM      9  O   UNL     1       7.995   5.533  13.681  0.00  0.00    +0.000 OA
ATOM     10  O   UNL     1       6.899   4.046  12.498  0.00  0.00    +0.000 OA
ENDBRANCH   6   8
BRANCH   1  11
ATOM     11  C   UNL     1       4.027   3.865  16.711  0.00  0.00    +0.000 C 
BRANCH  11  15
ATOM     12  C   UNL     1       1.881   3.788  21.252  0.00  0.00    +0.000 C 
ATOM     13  N   UNL     1       2.346   3.418  19.938  0.00  0.00    +0.000 N 
ATOM     14  C   UNL     1       2.763   4.259  18.952  0.00  0.00    +0.000 A 
ATOM     15  C   UNL     1       3.312   3.466  17.963  0.00  0.00    +0.000 A 
ATOM     16  C   UNL     1       3.078   2.149  18.424  0.00  0.00    +0.000 A 
ATOM     17  N   UNL     1       2.486   2.118  19.620  0.00  0.00    +0.000 NA
ENDBRANCH  11  15
ENDBRANCH   1  11
TORSDOF 3
ENDMDL
