MODEL 1
REMARK VINA RESULT:      -7.9      0.000      0.000
REMARK  Name = 
REMARK  6 active torsions:
REMARK  status: ('A' for Active; 'I' for Inactive)
REMARK    1  A    between atoms: C_2  and  C_3
REMARK    2  A    between atoms: C_3  and  N_4
REMARK    3  A    between atoms: C_8  and  N_9
REMARK    4  A    between atoms: C_10  and  C_12
REMARK    5  A    between atoms: N_20  and  C_21
REMARK    6  A    between atoms: C_21  and  C_22
REMARK                            x       y       z     vdW  Elec       q    Type
REMARK                         _______ _______ _______ _____ _____    ______ ____
ROOT
ATOM      1  N   UNL     1       4.889   4.366  17.613  0.00  0.00    +0.000 N 
ATOM      2  C   UNL     1       4.126   3.378  17.015  0.00  0.00    +0.000 A 
ATOM      3  C   UNL     1       2.808   3.288  17.234  0.00  0.00    +0.000 A 
ATOM      4  C   UNL     1       2.139   4.283  18.029  0.00  0.00    +0.000 A 
ATOM      5  C   UNL     1       2.819   5.259  18.651  0.00  0.00    +0.000 A 
ATOM      6  C   UNL     1       4.329   5.262  18.529  0.00  0.00    +0.000 A 
ATOM      7  O   UNL     1       4.990   6.051  19.207  0.00  0.00    +0.000 OA
ENDROOT
BRANCH   5   8
ATOM      8  N   UNL     1       2.254   6.283  19.393  0.00  0.00    +0.000 N 
ATOM      9  C   UNL     1       2.140   7.601  19.010  0.00  0.00    +0.000 C 
ATOM     10  O   UNL     1       2.454   8.052  17.910  0.00  0.00    +0.000 OA
ATOM     11  H   UNL     1       1.769   5.973  20.232  0.00  0.00    +0.000 HD
BRANCH   9  12
ATOM     12  C   UNL     1       1.501   8.522  19.987  0.00  0.00    +0.000 A 
ATOM     13  C   UNL     1       1.461   8.251  21.358  0.00  0.00    +0.000 A 
ATOM     14  C   UNL     1       0.844   9.161  22.222  0.00  0.00    +0.000 A 
ATOM     15  C   UNL     1       0.276  10.335  21.720  0.00  0.00    +0.000 A 
ATOM     16  C   UNL     1       0.340  10.617  20.357  0.00  0.00    +0.000 A 
ATOM     17  C   UNL     1       0.958   9.715  19.494  0.00  0.00    +0.000 A 
ENDBRANCH   9  12
ENDBRANCH   5   8
BRANCH   1  18
ATOM     18  C   UNL     1       6.346   4.347  17.435  0.00  0.00    +0.000 C 
BRANCH  18  20
ATOM     19  O   UNL     1       7.361   6.126  16.139  0.00  0.00    +0.000 OA
ATOM     20  C   UNL     1       6.848   5.010  16.140  0.00  0.00    +0.000 C 
ATOM     21  N   UNL     1       6.582   4.306  14.988  0.00  0.00    +0.000 N 
ATOM     22  H   UNL     1       6.194   3.367  15.083  0.00  0.00    +0.000 HD
BRANCH  21  23
ATOM     23  C   UNL     1       6.963   4.745  13.666  0.00  0.00    +0.000 C 
BRANCH  23  24
ATOM     24  C   UNL     1       6.533   3.730  12.636  0.00  0.00    +0.000 A 
ATOM     25  C   UNL     1       5.174   3.527  12.351  0.00  0.00    +0.000 A 
ATOM     26  C   UNL     1       4.779   2.522  11.467  0.00  0.00    +0.000 A 
ATOM     27  C   UNL     1       5.736   1.712  10.859  0.00  0.00    +0.000 A 
ATOM     28  C   UNL     1       7.090   1.918  11.120  0.00  0.00    +0.000 A 
ATOM     29  C   UNL     1       7.487   2.921  12.004  0.00  0.00    +0.000 A 
ENDBRANCH  23  24
ENDBRANCH  21  23
ENDBRANCH  18  20
ENDBRANCH   1  18
TORSDOF 6
ENDMDL
MODEL 2
REMARK VINA RESULT:      -7.8      4.733      7.595
REMARK  Name = 
REMARK  6 active torsions:
REMARK  status: ('A' for Active; 'I' for Inactive)
REMARK    1  A    between atoms: C_2  and  C_3
REMARK    2  A    between atoms: C_3  and  N_4
REMARK    3  A    between atoms: C_8  and  N_9
REMARK    4  A    between atoms: C_10  and  C_12
REMARK    5  A    between atoms: N_20  and  C_21
REMARK    6  A    between atoms: C_21  and  C_22
REMARK                            x       y       z     vdW  Elec       q    Type
REMARK                         _______ _______ _______ _____ _____    ______ ____
ROOT
ATOM      1  N   UNL     1       1.187  10.602  18.499  0.00  0.00    +0.000 N 
ATOM      2  C   UNL     1       2.130  11.599  18.318  0.00  0.00    +0.000 A 
ATOM      3  C   UNL     1       1.926  12.841  18.773  0.00  0.00    +0.000 A 
ATOM      4  C   UNL     1       0.751  13.142  19.547  0.00  0.00    +0.000 A 
ATOM      5  C   UNL     1      -0.212  12.228  19.747  0.00  0.00    +0.000 A 
ATOM      6  C   UNL     1      -0.049  10.870  19.095  0.00  0.00    +0.000 A 
ATOM      7  O   UNL     1      -0.980  10.064  19.135  0.00  0.00    +0.000 OA
ENDROOT
BRANCH   5   8
ATOM      8  N   UNL     1      -1.347  12.415  20.517  0.00  0.00    +0.000 N 
ATOM      9  C   UNL     1      -1.466  12.175  21.868  0.00  0.00    +0.000 C 
ATOM     10  O   UNL     1      -0.550  11.833  22.613  0.00  0.00    +0.000 OA
ATOM     11  H   UNL     1      -2.103  12.901  20.037  0.00  0.00    +0.000 HD
BRANCH   9  12
ATOM     12  C   UNL     1      -2.797  12.444  22.474  0.00  0.00    +0.000 A 
ATOM     13  C   UNL     1      -3.035  12.323  23.847  0.00  0.00    +0.000 A 
ATOM     14  C   UNL     1      -4.312  12.592  24.351  0.00  0.00    +0.000 A 
ATOM     15  C   UNL     1      -5.341  12.983  23.490  0.00  0.00    +0.000 A 
ATOM     16  C   UNL     1      -5.096  13.129  22.126  0.00  0.00    +0.000 A 
ATOM     17  C   UNL     1      -3.824  12.867  21.621  0.00  0.00    +0.000 A 
ENDBRANCH   9  12
ENDBRANCH   5   8
BRANCH   1  18
ATOM     18  C   UNL     1       1.408   9.291  17.877  0.00  0.00    +0.000 C 
BRANCH  18  20
ATOM     19  O   UNL     1       1.880   8.285  20.031  0.00  0.00    +0.000 OA
ATOM     20  C   UNL     1       2.009   8.225  18.810  0.00  0.00    +0.000 C 
ATOM     21  N   UNL     1       2.781   7.274  18.184  0.00  0.00    +0.000 N 
ATOM     22  H   UNL     1       2.798   7.271  17.163  0.00  0.00    +0.000 HD
BRANCH  21  23
ATOM     23  C   UNL     1       3.439   6.186  18.869  0.00  0.00    +0.000 C 
BRANCH  23  24
ATOM     24  C   UNL     1       2.462   5.065  19.123  0.00  0.00    +0.000 A 
ATOM     25  C   UNL     1       2.006   4.789  20.421  0.00  0.00    +0.000 A 
ATOM     26  C   UNL     1       1.177   3.693  20.662  0.00  0.00    +0.000 A 
ATOM     27  C   UNL     1       0.795   2.862  19.610  0.00  0.00    +0.000 A 
ATOM     28  C   UNL     1       1.227   3.139  18.313  0.00  0.00    +0.000 A 
ATOM     29  C   UNL     1       2.056   4.233  18.071  0.00  0.00    +0.000 A 
ENDBRANCH  23  24
ENDBRANCH  21  23
ENDBRANCH  18  20
ENDBRANCH   1  18
TORSDOF 6
ENDMDL
MODEL 3
REMARK VINA RESULT:      -7.7      3.792     10.535
REMARK  Name = 
REMARK  6 active torsions:
REMARK  status: ('A' for Active; 'I' for Inactive)
REMARK    1  A    between atoms: C_2  and  C_3
REMARK    2  A    between atoms: C_3  and  N_4
REMARK    3  A    between atoms: C_8  and  N_9
REMARK    4  A    between atoms: C_10  and  C_12
REMARK    5  A    between atoms: N_20  and  C_21
REMARK    6  A    between atoms: C_21  and  C_22
REMARK                            x       y       z     vdW  Elec       q    Type
REMARK                         _______ _______ _______ _____ _____    ______ ____
ROOT
ATOM      1  N   UNL     1       0.667   9.814  19.319  0.00  0.00    +0.000 N 
ATOM      2  C   UNL     1       0.245   9.381  20.565  0.00  0.00    +0.000 A 
ATOM      3  C   UNL     1       0.719   8.253  21.107  0.00  0.00    +0.000 A 
ATOM      4  C   UNL     1       1.755   7.511  20.438  0.00  0.00    +0.000 A 
ATOM      5  C   UNL     1       2.199   7.865  19.222  0.00  0.00    +0.000 A 
ATOM      6  C   UNL     1       1.546   9.052  18.544  0.00  0.00    +0.000 A 
ATOM      7  O   UNL     1       1.825   9.308  17.372  0.00  0.00    +0.000 OA
ENDROOT
BRANCH   5   8
ATOM      8  N   UNL     1       3.223   7.241  18.530  0.00  0.00    +0.000 N 
ATOM      9  C   UNL     1       3.189   5.975  17.986  0.00  0.00    +0.000 C 
ATOM     10  O   UNL     1       2.206   5.236  17.965  0.00  0.00    +0.000 OA
ATOM     11  H   UNL     1       4.007   7.850  18.304  0.00  0.00    +0.000 HD
BRANCH   9  12
ATOM     12  C   UNL     1       4.422   5.518  17.294  0.00  0.00    +0.000 A 
ATOM     13  C   UNL     1       4.499   4.291  16.627  0.00  0.00    +0.000 A 
ATOM     14  C   UNL     1       5.691   3.923  15.996  0.00  0.00    +0.000 A 
ATOM     15  C   UNL     1       6.797   4.777  16.026  0.00  0.00    +0.000 A 
ATOM     16  C   UNL     1       6.711   6.012  16.667  0.00  0.00    +0.000 A 
ATOM     17  C   UNL     1       5.524   6.384  17.294  0.00  0.00    +0.000 A 
ENDBRANCH   9  12
ENDBRANCH   5   8
BRANCH   1  18
ATOM     18  C   UNL     1       0.027  10.992  18.720  0.00  0.00    +0.000 C 
BRANCH  18  20
ATOM     19  O   UNL     1      -1.444   9.831  17.182  0.00  0.00    +0.000 OA
ATOM     20  C   UNL     1      -1.320  10.714  18.028  0.00  0.00    +0.000 C 
ATOM     21  N   UNL     1      -2.329  11.592  18.350  0.00  0.00    +0.000 N 
ATOM     22  H   UNL     1      -2.153  12.267  19.095  0.00  0.00    +0.000 HD
BRANCH  21  23
ATOM     23  C   UNL     1      -3.668  11.515  17.815  0.00  0.00    +0.000 C 
BRANCH  23  24
ATOM     24  C   UNL     1      -4.680  11.732  18.913  0.00  0.00    +0.000 A 
ATOM     25  C   UNL     1      -5.985  11.231  18.796  0.00  0.00    +0.000 A 
ATOM     26  C   UNL     1      -6.943  11.515  19.771  0.00  0.00    +0.000 A 
ATOM     27  C   UNL     1      -6.605  12.301  20.872  0.00  0.00    +0.000 A 
ATOM     28  C   UNL     1      -5.306  12.787  21.008  0.00  0.00    +0.000 A 
ATOM     29  C   UNL     1      -4.348  12.505  20.034  0.00  0.00    +0.000 A 
ENDBRANCH  23  24
ENDBRANCH  21  23
ENDBRANCH  18  20
ENDBRANCH   1  18
TORSDOF 6
ENDMDL
MODEL 4
REMARK VINA RESULT:      -7.7      0.967      1.664
REMARK  Name = 
REMARK  6 active torsions:
REMARK  status: ('A' for Active; 'I' for Inactive)
REMARK    1  A    between atoms: C_2  and  C_3
REMARK    2  A    between atoms: C_3  and  N_4
REMARK    3  A    between atoms: C_8  and  N_9
REMARK    4  A    between atoms: C_10  and  C_12
REMARK    5  A    between atoms: N_20  and  C_21
REMARK    6  A    between atoms: C_21  and  C_22
REMARK                            x       y       z     vdW  Elec       q    Type
REMARK                         _______ _______ _______ _____ _____    ______ ____
ROOT
ATOM      1  N   UNL     1       4.878   4.515  17.521  0.00  0.00    +0.000 N 
ATOM      2  C   UNL     1       4.062   3.405  17.381  0.00  0.00    +0.000 A 
ATOM      3  C   UNL     1       2.749   3.470  17.632  0.00  0.00    +0.000 A 
ATOM      4  C   UNL     1       2.140   4.730  17.966  0.00  0.00    +0.000 A 
ATOM      5  C   UNL     1       2.873   5.842  18.135  0.00  0.00    +0.000 A 
ATOM      6  C   UNL     1       4.378   5.727  18.005  0.00  0.00    +0.000 A 
ATOM      7  O   UNL     1       5.086   6.692  18.300  0.00  0.00    +0.000 OA
ENDROOT
BRANCH   5   8
ATOM      8  N   UNL     1       2.368   7.102  18.408  0.00  0.00    +0.000 N 
ATOM      9  C   UNL     1       1.862   7.536  19.613  0.00  0.00    +0.000 C 
ATOM     10  O   UNL     1       1.859   6.888  20.658  0.00  0.00    +0.000 OA
ATOM     11  H   UNL     1       2.523   7.784  17.668  0.00  0.00    +0.000 HD
BRANCH   9  12
ATOM     12  C   UNL     1       1.366   8.936  19.658  0.00  0.00    +0.000 A 
ATOM     13  C   UNL     1       1.411   9.785  18.548  0.00  0.00    +0.000 A 
ATOM     14  C   UNL     1       0.926  11.092  18.659  0.00  0.00    +0.000 A 
ATOM     15  C   UNL     1       0.395  11.546  19.869  0.00  0.00    +0.000 A 
ATOM     16  C   UNL     1       0.326  10.691  20.968  0.00  0.00    +0.000 A 
ATOM     17  C   UNL     1       0.803   9.387  20.859  0.00  0.00    +0.000 A 
ENDBRANCH   9  12
ENDBRANCH   5   8
BRANCH   1  18
ATOM     18  C   UNL     1       6.328   4.359  17.349  0.00  0.00    +0.000 C 
BRANCH  18  20
ATOM     19  O   UNL     1       7.525   5.887  15.897  0.00  0.00    +0.000 OA
ATOM     20  C   UNL     1       6.874   4.849  15.996  0.00  0.00    +0.000 C 
ATOM     21  N   UNL     1       6.490   4.098  14.910  0.00  0.00    +0.000 N 
ATOM     22  H   UNL     1       5.988   3.227  15.087  0.00  0.00    +0.000 HD
BRANCH  21  23
ATOM     23  C   UNL     1       6.888   4.380  13.550  0.00  0.00    +0.000 C 
BRANCH  23  24
ATOM     24  C   UNL     1       6.127   3.498  12.592  0.00  0.00    +0.000 A 
ATOM     25  C   UNL     1       6.736   2.375  12.012  0.00  0.00    +0.000 A 
ATOM     26  C   UNL     1       6.058   1.617  11.055  0.00  0.00    +0.000 A 
ATOM     27  C   UNL     1       4.768   1.974  10.669  0.00  0.00    +0.000 A 
ATOM     28  C   UNL     1       4.146   3.077  11.254  0.00  0.00    +0.000 A 
ATOM     29  C   UNL     1       4.822   3.835  12.209  0.00  0.00    +0.000 A 
ENDBRANCH  23  24
ENDBRANCH  21  23
ENDBRANCH  18  20
ENDBRANCH   1  18
TORSDOF 6
ENDMDL
MODEL 5
REMARK VINA RESULT:      -7.7      0.582      1.094
REMARK  Name = 
REMARK  6 active torsions:
REMARK  status: ('A' for Active; 'I' for Inactive)
REMARK    1  A    between atoms: C_2  and  C_3
REMARK    2  A    between atoms: C_3  and  N_4
REMARK    3  A    between atoms: C_8  and  N_9
REMARK    4  A    between atoms: C_10  and  C_12
REMARK    5  A    between atoms: N_20  and  C_21
REMARK    6  A    between atoms: C_21  and  C_22
REMARK                            x       y       z     vdW  Elec       q    Type
REMARK                         _______ _______ _______ _____ _____    ______ ____
ROOT
ATOM      1  N   UNL     1       4.586   4.649  17.376  0.00  0.00    +0.000 N 
ATOM      2  C   UNL     1       3.816   3.553  17.028  0.00  0.00    +0.000 A 
ATOM      3  C   UNL     1       2.578   3.390  17.509  0.00  0.00    +0.000 A 
ATOM      4  C   UNL     1       1.985   4.411  18.332  0.00  0.00    +0.000 A 
ATOM      5  C   UNL     1       2.679   5.491  18.722  0.00  0.00    +0.000 A 
ATOM      6  C   UNL     1       4.132   5.591  18.304  0.00  0.00    +0.000 A 
ATOM      7  O   UNL     1       4.834   6.490  18.768  0.00  0.00    +0.000 OA
ENDROOT
BRANCH   5   8
ATOM      8  N   UNL     1       2.174   6.542  19.470  0.00  0.00    +0.000 N 
ATOM      9  C   UNL     1       1.847   7.795  19.000  0.00  0.00    +0.000 C 
ATOM     10  O   UNL     1       1.878   8.143  17.821  0.00  0.00    +0.000 OA
ATOM     11  H   UNL     1       1.908   6.289  20.419  0.00  0.00    +0.000 HD
BRANCH   9  12
ATOM     12  C   UNL     1       1.329   8.763  20.002  0.00  0.00    +0.000 A 
ATOM     13  C   UNL     1       0.917  10.054  19.656  0.00  0.00    +0.000 A 
ATOM     14  C   UNL     1       0.440  10.914  20.649  0.00  0.00    +0.000 A 
ATOM     15  C   UNL     1       0.370  10.487  21.978  0.00  0.00    +0.000 A 
ATOM     16  C   UNL     1       0.756   9.191  22.318  0.00  0.00    +0.000 A 
ATOM     17  C   UNL     1       1.227   8.329  21.330  0.00  0.00    +0.000 A 
ENDBRANCH   9  12
ENDBRANCH   5   8
BRANCH   1  18
ATOM     18  C   UNL     1       5.979   4.717  16.916  0.00  0.00    +0.000 C 
BRANCH  18  20
ATOM     19  O   UNL     1       5.566   6.230  15.068  0.00  0.00    +0.000 OA
ATOM     20  C   UNL     1       6.160   5.236  15.478  0.00  0.00    +0.000 C 
ATOM     21  N   UNL     1       6.945   4.446  14.671  0.00  0.00    +0.000 N 
ATOM     22  H   UNL     1       7.437   3.663  15.105  0.00  0.00    +0.000 HD
BRANCH  21  23
ATOM     23  C   UNL     1       7.244   4.745  13.290  0.00  0.00    +0.000 C 
BRANCH  23  24
ATOM     24  C   UNL     1       6.703   3.659  12.393  0.00  0.00    +0.000 A 
ATOM     25  C   UNL     1       5.321   3.496  12.217  0.00  0.00    +0.000 A 
ATOM     26  C   UNL     1       4.825   2.432  11.461  0.00  0.00    +0.000 A 
ATOM     27  C   UNL     1       5.704   1.523  10.875  0.00  0.00    +0.000 A 
ATOM     28  C   UNL     1       7.080   1.688  11.028  0.00  0.00    +0.000 A 
ATOM     29  C   UNL     1       7.577   2.750  11.783  0.00  0.00    +0.000 A 
ENDBRANCH  23  24
ENDBRANCH  21  23
ENDBRANCH  18  20
ENDBRANCH   1  18
TORSDOF 6
ENDMDL
MODEL 6
REMARK VINA RESULT:      -7.6      1.299      9.672
REMARK  Name = 
REMARK  6 active torsions:
REMARK  status: ('A' for Active; 'I' for Inactive)
REMARK    1  A    between atoms: C_2  and  C_3
REMARK    2  A    between atoms: C_3  and  N_4
REMARK    3  A    between atoms: C_8  and  N_9
REMARK    4  A    between atoms: C_10  and  C_12
REMARK    5  A    between atoms: N_20  and  C_21
REMARK    6  A    between atoms: C_21  and  C_22
REMARK                            x       y       z     vdW  Elec       q    Type
REMARK                         _______ _______ _______ _____ _____    ______ ____
ROOT
ATOM      1  N   UNL     1       4.883   5.471  18.566  0.00  0.00    +0.000 N 
ATOM      2  C   UNL     1       6.109   5.700  19.167  0.00  0.00    +0.000 A 
ATOM      3  C   UNL     1       7.248   5.267  18.613  0.00  0.00    +0.000 A 
ATOM      4  C   UNL     1       7.225   4.631  17.322  0.00  0.00    +0.000 A 
ATOM      5  C   UNL     1       6.071   4.363  16.691  0.00  0.00    +0.000 A 
ATOM      6  C   UNL     1       4.777   4.713  17.397  0.00  0.00    +0.000 A 
ATOM      7  O   UNL     1       3.705   4.346  16.912  0.00  0.00    +0.000 OA
ENDROOT
BRANCH   5   8
ATOM      8  N   UNL     1       5.959   3.802  15.430  0.00  0.00    +0.000 N 
ATOM      9  C   UNL     1       6.363   4.372  14.243  0.00  0.00    +0.000 C 
ATOM     10  O   UNL     1       6.964   5.440  14.135  0.00  0.00    +0.000 OA
ATOM     11  H   UNL     1       5.671   2.825  15.431  0.00  0.00    +0.000 HD
BRANCH   9  12
ATOM     12  C   UNL     1       6.127   3.575  13.011  0.00  0.00    +0.000 A 
ATOM     13  C   UNL     1       4.852   3.395  12.466  0.00  0.00    +0.000 A 
ATOM     14  C   UNL     1       4.700   2.633  11.303  0.00  0.00    +0.000 A 
ATOM     15  C   UNL     1       5.816   2.060  10.686  0.00  0.00    +0.000 A 
ATOM     16  C   UNL     1       7.089   2.263  11.214  0.00  0.00    +0.000 A 
ATOM     17  C   UNL     1       7.245   3.025  12.370  0.00  0.00    +0.000 A 
ENDBRANCH   9  12
ENDBRANCH   5   8
BRANCH   1  18
ATOM     18  C   UNL     1       3.658   5.861  19.275  0.00  0.00    +0.000 C 
BRANCH  18  20
ATOM     19  O   UNL     1       3.305   7.647  17.675  0.00  0.00    +0.000 OA
ATOM     20  C   UNL     1       2.986   7.143  18.749  0.00  0.00    +0.000 C 
ATOM     21  N   UNL     1       2.091   7.726  19.616  0.00  0.00    +0.000 N 
ATOM     22  H   UNL     1       1.851   7.216  20.467  0.00  0.00    +0.000 HD
BRANCH  21  23
ATOM     23  C   UNL     1       1.351   8.931  19.324  0.00  0.00    +0.000 C 
BRANCH  23  24
ATOM     24  C   UNL     1       0.733   9.481  20.585  0.00  0.00    +0.000 A 
ATOM     25  C   UNL     1       0.452   8.640  21.673  0.00  0.00    +0.000 A 
ATOM     26  C   UNL     1      -0.206   9.136  22.800  0.00  0.00    +0.000 A 
ATOM     27  C   UNL     1      -0.587  10.476  22.851  0.00  0.00    +0.000 A 
ATOM     28  C   UNL     1      -0.295  11.325  21.784  0.00  0.00    +0.000 A 
ATOM     29  C   UNL     1       0.361  10.830  20.657  0.00  0.00    +0.000 A 
ENDBRANCH  23  24
ENDBRANCH  21  23
ENDBRANCH  18  20
ENDBRANCH   1  18
TORSDOF 6
ENDMDL
MODEL 7
REMARK VINA RESULT:      -7.5      3.883     10.542
REMARK  Name = 
REMARK  6 active torsions:
REMARK  status: ('A' for Active; 'I' for Inactive)
REMARK    1  A    between atoms: C_2  and  C_3
REMARK    2  A    between atoms: C_3  and  N_4
REMARK    3  A    between atoms: C_8  and  N_9
REMARK    4  A    between atoms: C_10  and  C_12
REMARK    5  A    between atoms: N_20  and  C_21
REMARK    6  A    between atoms: C_21  and  C_22
REMARK                            x       y       z     vdW  Elec       q    Type
REMARK                         _______ _______ _______ _____ _____    ______ ____
ROOT
ATOM      1  N   UNL     1       0.393   9.917  19.413  0.00  0.00    +0.000 N 
ATOM      2  C   UNL     1      -0.135   9.586  20.649  0.00  0.00    +0.000 A 
ATOM      3  C   UNL     1       0.291   8.511  21.323  0.00  0.00    +0.000 A 
ATOM      4  C   UNL     1       1.382   7.725  20.811  0.00  0.00    +0.000 A 
ATOM      5  C   UNL     1       1.929   7.979  19.613  0.00  0.00    +0.000 A 
ATOM      6  C   UNL     1       1.337   9.100  18.784  0.00  0.00    +0.000 A 
ATOM      7  O   UNL     1       1.717   9.261  17.623  0.00  0.00    +0.000 OA
ENDROOT
BRANCH   5   8
ATOM      8  N   UNL     1       3.010   7.308  19.066  0.00  0.00    +0.000 N 
ATOM      9  C   UNL     1       3.030   5.996  18.647  0.00  0.00    +0.000 C 
ATOM     10  O   UNL     1       2.059   5.243  18.622  0.00  0.00    +0.000 OA
ATOM     11  H   UNL     1       3.805   7.905  18.844  0.00  0.00    +0.000 HD
BRANCH   9  12
ATOM     12  C   UNL     1       4.318   5.494  18.101  0.00  0.00    +0.000 A 
ATOM     13  C   UNL     1       4.451   5.042  16.785  0.00  0.00    +0.000 A 
ATOM     14  C   UNL     1       5.694   4.584  16.335  0.00  0.00    +0.000 A 
ATOM     15  C   UNL     1       6.796   4.582  17.194  0.00  0.00    +0.000 A 
ATOM     16  C   UNL     1       6.670   5.057  18.498  0.00  0.00    +0.000 A 
ATOM     17  C   UNL     1       5.435   5.519  18.948  0.00  0.00    +0.000 A 
ENDBRANCH   9  12
ENDBRANCH   5   8
BRANCH   1  18
ATOM     18  C   UNL     1      -0.193  11.036  18.665  0.00  0.00    +0.000 C 
BRANCH  18  20
ATOM     19  O   UNL     1      -1.593   9.805  17.115  0.00  0.00    +0.000 OA
ATOM     20  C   UNL     1      -1.513  10.710  17.943  0.00  0.00    +0.000 C 
ATOM     21  N   UNL     1      -2.552  11.569  18.217  0.00  0.00    +0.000 N 
ATOM     22  H   UNL     1      -2.412  12.266  18.950  0.00  0.00    +0.000 HD
BRANCH  21  23
ATOM     23  C   UNL     1      -3.873  11.448  17.648  0.00  0.00    +0.000 C 
BRANCH  23  24
ATOM     24  C   UNL     1      -4.920  11.660  18.714  0.00  0.00    +0.000 A 
ATOM     25  C   UNL     1      -4.638  12.425  19.855  0.00  0.00    +0.000 A 
ATOM     26  C   UNL     1      -5.578  12.540  20.881  0.00  0.00    +0.000 A 
ATOM     27  C   UNL     1      -6.808  11.893  20.775  0.00  0.00    +0.000 A 
ATOM     28  C   UNL     1      -7.106  11.146  19.636  0.00  0.00    +0.000 A 
ATOM     29  C   UNL     1      -6.167  11.030  18.611  0.00  0.00    +0.000 A 
ENDBRANCH  23  24
ENDBRANCH  21  23
ENDBRANCH  18  20
ENDBRANCH   1  18
TORSDOF 6
ENDMDL
MODEL 8
REMARK VINA RESULT:      -7.5      4.720      7.731
REMARK  Name = 
REMARK  6 active torsions:
REMARK  status: ('A' for Active; 'I' for Inactive)
REMARK    1  A    between atoms: C_2  and  C_3
REMARK    2  A    between atoms: C_3  and  N_4
REMARK    3  A    between atoms: C_8  and  N_9
REMARK    4  A    between atoms: C_10  and  C_12
REMARK    5  A    between atoms: N_20  and  C_21
REMARK    6  A    between atoms: C_21  and  C_22
REMARK                            x       y       z     vdW  Elec       q    Type
REMARK                         _______ _______ _______ _____ _____    ______ ____
ROOT
ATOM      1  N   UNL     1       1.136  10.622  18.705  0.00  0.00    +0.000 N 
ATOM      2  C   UNL     1       2.012  11.660  18.439  0.00  0.00    +0.000 A 
ATOM      3  C   UNL     1       1.813  12.885  18.941  0.00  0.00    +0.000 A 
ATOM      4  C   UNL     1       0.723  13.124  19.849  0.00  0.00    +0.000 A 
ATOM      5  C   UNL     1      -0.174  12.168  20.137  0.00  0.00    +0.000 A 
ATOM      6  C   UNL     1      -0.034  10.829  19.443  0.00  0.00    +0.000 A 
ATOM      7  O   UNL     1      -0.922   9.985  19.571  0.00  0.00    +0.000 OA
ENDROOT
BRANCH   5   8
ATOM      8  N   UNL     1      -1.220  12.295  21.035  0.00  0.00    +0.000 N 
ATOM      9  C   UNL     1      -2.534  12.570  20.725  0.00  0.00    +0.000 C 
ATOM     10  O   UNL     1      -2.991  12.665  19.587  0.00  0.00    +0.000 OA
ATOM     11  H   UNL     1      -0.989  12.021  21.988  0.00  0.00    +0.000 HD
BRANCH   9  12
ATOM     12  C   UNL     1      -3.478  12.669  21.868  0.00  0.00    +0.000 A 
ATOM     13  C   UNL     1      -4.824  13.011  21.704  0.00  0.00    +0.000 A 
ATOM     14  C   UNL     1      -5.658  13.085  22.824  0.00  0.00    +0.000 A 
ATOM     15  C   UNL     1      -5.152  12.813  24.098  0.00  0.00    +0.000 A 
ATOM     16  C   UNL     1      -3.818  12.445  24.258  0.00  0.00    +0.000 A 
ATOM     17  C   UNL     1      -2.985  12.367  23.144  0.00  0.00    +0.000 A 
ENDBRANCH   9  12
ENDBRANCH   5   8
BRANCH   1  18
ATOM     18  C   UNL     1       1.335   9.331  18.034  0.00  0.00    +0.000 C 
BRANCH  18  20
ATOM     19  O   UNL     1       1.924   8.274  20.134  0.00  0.00    +0.000 OA
ATOM     20  C   UNL     1       1.984   8.242  18.907  0.00  0.00    +0.000 C 
ATOM     21  N   UNL     1       2.715   7.304  18.216  0.00  0.00    +0.000 N 
ATOM     22  H   UNL     1       2.673   7.325  17.196  0.00  0.00    +0.000 HD
BRANCH  21  23
ATOM     23  C   UNL     1       3.405   6.198  18.837  0.00  0.00    +0.000 C 
BRANCH  23  24
ATOM     24  C   UNL     1       2.444   5.067  19.103  0.00  0.00    +0.000 A 
ATOM     25  C   UNL     1       2.001   4.792  20.405  0.00  0.00    +0.000 A 
ATOM     26  C   UNL     1       1.185   3.687  20.658  0.00  0.00    +0.000 A 
ATOM     27  C   UNL     1       0.805   2.848  19.612  0.00  0.00    +0.000 A 
ATOM     28  C   UNL     1       1.224   3.123  18.311  0.00  0.00    +0.000 A 
ATOM     29  C   UNL     1       2.039   4.226  18.057  0.00  0.00    +0.000 A 
ENDBRANCH  23  24
ENDBRANCH  21  23
ENDBRANCH  18  20
ENDBRANCH   1  18
TORSDOF 6
ENDMDL
MODEL 9
REMARK VINA RESULT:      -7.5      3.760     11.368
REMARK  Name = 
REMARK  6 active torsions:
REMARK  status: ('A' for Active; 'I' for Inactive)
REMARK    1  A    between atoms: C_2  and  C_3
REMARK    2  A    between atoms: C_3  and  N_4
REMARK    3  A    between atoms: C_8  and  N_9
REMARK    4  A    between atoms: C_10  and  C_12
REMARK    5  A    between atoms: N_20  and  C_21
REMARK    6  A    between atoms: C_21  and  C_22
REMARK                            x       y       z     vdW  Elec       q    Type
REMARK                         _______ _______ _______ _____ _____    ______ ____
ROOT
ATOM      1  N   UNL     1       0.436  10.481  20.045  0.00  0.00    +0.000 N 
ATOM      2  C   UNL     1       0.182  10.062  21.340  0.00  0.00    +0.000 A 
ATOM      3  C   UNL     1       0.610   8.873  21.783  0.00  0.00    +0.000 A 
ATOM      4  C   UNL     1       1.430   8.043  20.942  0.00  0.00    +0.000 A 
ATOM      5  C   UNL     1       1.701   8.380  19.671  0.00  0.00    +0.000 A 
ATOM      6  C   UNL     1       1.081   9.650  19.125  0.00  0.00    +0.000 A 
ATOM      7  O   UNL     1       1.188   9.908  17.925  0.00  0.00    +0.000 OA
ENDROOT
BRANCH   5   8
ATOM      8  N   UNL     1       2.518   7.668  18.810  0.00  0.00    +0.000 N 
ATOM      9  C   UNL     1       2.664   6.298  18.767  0.00  0.00    +0.000 C 
ATOM     10  O   UNL     1       2.022   5.493  19.440  0.00  0.00    +0.000 OA
ATOM     11  H   UNL     1       2.931   8.228  18.066  0.00  0.00    +0.000 HD
BRANCH   9  12
ATOM     12  C   UNL     1       3.613   5.765  17.756  0.00  0.00    +0.000 A 
ATOM     13  C   UNL     1       3.715   4.400  17.468  0.00  0.00    +0.000 A 
ATOM     14  C   UNL     1       4.630   3.965  16.503  0.00  0.00    +0.000 A 
ATOM     15  C   UNL     1       5.433   4.888  15.828  0.00  0.00    +0.000 A 
ATOM     16  C   UNL     1       5.312   6.251  16.096  0.00  0.00    +0.000 A 
ATOM     17  C   UNL     1       4.399   6.688  17.053  0.00  0.00    +0.000 A 
ENDBRANCH   9  12
ENDBRANCH   5   8
BRANCH   1  18
ATOM     18  C   UNL     1      -0.159  11.738  19.574  0.00  0.00    +0.000 C 
BRANCH  18  20
ATOM     19  O   UNL     1      -2.293  11.044  18.658  0.00  0.00    +0.000 OA
ATOM     20  C   UNL     1      -1.695  11.733  19.482  0.00  0.00    +0.000 C 
ATOM     21  N   UNL     1      -2.329  12.628  20.311  0.00  0.00    +0.000 N 
ATOM     22  H   UNL     1      -1.760  13.128  20.996  0.00  0.00    +0.000 HD
BRANCH  21  23
ATOM     23  C   UNL     1      -3.763  12.788  20.384  0.00  0.00    +0.000 C 
BRANCH  23  24
ATOM     24  C   UNL     1      -4.214  12.790  21.824  0.00  0.00    +0.000 A 
ATOM     25  C   UNL     1      -3.308  12.521  22.861  0.00  0.00    +0.000 A 
ATOM     26  C   UNL     1      -3.750  12.431  24.182  0.00  0.00    +0.000 A 
ATOM     27  C   UNL     1      -5.100  12.610  24.479  0.00  0.00    +0.000 A 
ATOM     28  C   UNL     1      -6.005  12.898  23.458  0.00  0.00    +0.000 A 
ATOM     29  C   UNL     1      -5.565  12.987  22.138  0.00  0.00    +0.000 A 
ENDBRANCH  23  24
ENDBRANCH  21  23
ENDBRANCH  18  20
ENDBRANCH   1  18
TORSDOF 6
ENDMDL
