MODEL 1
REMARK VINA RESULT:      -7.5      0.000      0.000
REMARK  Name = 
REMARK  5 active torsions:
REMARK  status: ('A' for Active; 'I' for Inactive)
REMARK    1  A    between atoms: C_1  and  N_2
REMARK    2  A    between atoms: C_6  and  C_7
REMARK    3  A    between atoms: C_7  and  C_8
REMARK    4  A    between atoms: N_12  and  C_13
REMARK    5  A    between atoms: C_13  and  C_14
REMARK                            x       y       z     vdW  Elec       q    Type
REMARK                         _______ _______ _______ _____ _____    ______ ____
ROOT
ATOM      1  C   UNL     1       4.586   6.573  17.829  0.00  0.00    +0.000 C 
ATOM      2  C   UNL     1       5.455   6.369  16.576  0.00  0.00    +0.000 C 
ATOM      3  C   UNL     1       5.124   5.089  15.806  0.00  0.00    +0.000 C 
ATOM      4  C   UNL     1       4.987   3.856  16.703  0.00  0.00    +0.000 C 
ATOM      5  N   UNL     1       4.080   4.122  17.822  0.00  0.00    +0.000 NA
ATOM      6  C   UNL     1       4.551   5.243  18.640  0.00  0.00    +0.000 C 
ENDROOT
BRANCH   1   7
ATOM      7  C   UNL     1       3.150   7.068  17.534  0.00  0.00    +0.000 C 
BRANCH   7  13
ATOM      8  C   UNL     1      -0.042   9.594  22.689  0.00  0.00    +0.000 C 
ATOM      9  N   UNL     1       0.054  10.062  21.320  0.00  0.00    +0.000 N 
ATOM     10  C   UNL     1       0.834   9.279  20.442  0.00  0.00    +0.000 A 
ATOM     11  C   UNL     1       0.955   9.725  19.136  0.00  0.00    +0.000 A 
ATOM     12  C   UNL     1       1.706   8.998  18.209  0.00  0.00    +0.000 A 
ATOM     13  C   UNL     1       2.333   7.817  18.584  0.00  0.00    +0.000 A 
ATOM     14  N   UNL     1       2.187   7.373  19.844  0.00  0.00    +0.000 NA
ATOM     15  N   UNL     1       1.421   8.112  20.780  0.00  0.00    +0.000 NA
ATOM     16  H   UNL     1       0.372  11.027  21.271  0.00  0.00    +0.000 HD
ENDBRANCH   7  13
ENDBRANCH   1   7
BRANCH   5  17
ATOM     17  C   UNL     1       3.742   2.901  18.583  0.00  0.00    +0.000 C 
BRANCH  17  18
ATOM     18  C   UNL     1       2.631   3.022  19.590  0.00  0.00    +0.000 A 
ATOM     19  C   UNL     1       1.288   3.279  19.391  0.00  0.00    +0.000 A 
ATOM     20  N   UNL     1       0.699   3.150  20.621  0.00  0.00    +0.000 N 
ATOM     21  C   UNL     1       1.678   2.809  21.512  0.00  0.00    +0.000 A 
ATOM     22  N   UNL     1       2.851   2.735  20.927  0.00  0.00    +0.000 NA
ATOM     23  H   UNL     1      -0.283   3.248  20.835  0.00  0.00    +0.000 HD
ENDBRANCH  17  18
ENDBRANCH   5  17
TORSDOF 4
ENDMDL
MODEL 2
REMARK VINA RESULT:      -7.4      1.886      4.227
REMARK  Name = 
REMARK  5 active torsions:
REMARK  status: ('A' for Active; 'I' for Inactive)
REMARK    1  A    between atoms: C_1  and  N_2
REMARK    2  A    between atoms: C_6  and  C_7
REMARK    3  A    between atoms: C_7  and  C_8
REMARK    4  A    between atoms: N_12  and  C_13
REMARK    5  A    between atoms: C_13  and  C_14
REMARK                            x       y       z     vdW  Elec       q    Type
REMARK                         _______ _______ _______ _____ _____    ______ ____
ROOT
ATOM      1  C   UNL     1       1.844   4.746  19.381  0.00  0.00    +0.000 C 
ATOM      2  C   UNL     1       1.849   3.552  20.350  0.00  0.00    +0.000 C 
ATOM      3  C   UNL     1       3.193   2.822  20.412  0.00  0.00    +0.000 C 
ATOM      4  C   UNL     1       3.794   2.535  19.034  0.00  0.00    +0.000 C 
ATOM      5  N   UNL     1       3.819   3.747  18.212  0.00  0.00    +0.000 NA
ATOM      6  C   UNL     1       2.474   4.298  18.027  0.00  0.00    +0.000 C 
ENDROOT
BRANCH   1   7
ATOM      7  C   UNL     1       2.557   6.009  19.921  0.00  0.00    +0.000 C 
BRANCH   7  13
ATOM      8  C   UNL     1       0.306  12.135  19.183  0.00  0.00    +0.000 C 
ATOM      9  N   UNL     1       0.959  11.251  18.236  0.00  0.00    +0.000 N 
ATOM     10  C   UNL     1       1.328   9.977  18.718  0.00  0.00    +0.000 A 
ATOM     11  C   UNL     1       1.974   9.129  17.833  0.00  0.00    +0.000 A 
ATOM     12  C   UNL     1       2.363   7.851  18.238  0.00  0.00    +0.000 A 
ATOM     13  C   UNL     1       2.101   7.411  19.529  0.00  0.00    +0.000 A 
ATOM     14  N   UNL     1       1.446   8.227  20.374  0.00  0.00    +0.000 NA
ATOM     15  N   UNL     1       1.050   9.522  19.958  0.00  0.00    +0.000 NA
ATOM     16  H   UNL     1       1.771  11.690  17.809  0.00  0.00    +0.000 HD
ENDBRANCH   7  13
ENDBRANCH   1   7
BRANCH   5  17
ATOM     17  C   UNL     1       4.592   3.573  16.965  0.00  0.00    +0.000 C 
BRANCH  17  18
ATOM     18  C   UNL     1       5.739   4.522  16.746  0.00  0.00    +0.000 A 
ATOM     19  C   UNL     1       6.699   4.526  15.753  0.00  0.00    +0.000 A 
ATOM     20  N   UNL     1       7.421   5.675  15.939  0.00  0.00    +0.000 N 
ATOM     21  C   UNL     1       6.881   6.331  17.010  0.00  0.00    +0.000 A 
ATOM     22  N   UNL     1       5.877   5.660  17.524  0.00  0.00    +0.000 NA
ATOM     23  H   UNL     1       8.189   6.006  15.373  0.00  0.00    +0.000 HD
ENDBRANCH  17  18
ENDBRANCH   5  17
TORSDOF 4
ENDMDL
MODEL 3
REMARK VINA RESULT:      -7.3      2.282      4.355
REMARK  Name = 
REMARK  5 active torsions:
REMARK  status: ('A' for Active; 'I' for Inactive)
REMARK    1  A    between atoms: C_1  and  N_2
REMARK    2  A    between atoms: C_6  and  C_7
REMARK    3  A    between atoms: C_7  and  C_8
REMARK    4  A    between atoms: N_12  and  C_13
REMARK    5  A    between atoms: C_13  and  C_14
REMARK                            x       y       z     vdW  Elec       q    Type
REMARK                         _______ _______ _______ _____ _____    ______ ____
ROOT
ATOM      1  C   UNL     1       2.393   5.315  18.301  0.00  0.00    +0.000 C 
ATOM      2  C   UNL     1       1.972   3.925  18.807  0.00  0.00    +0.000 C 
ATOM      3  C   UNL     1       3.115   3.137  19.449  0.00  0.00    +0.000 C 
ATOM      4  C   UNL     1       4.407   3.158  18.627  0.00  0.00    +0.000 C 
ATOM      5  N   UNL     1       4.769   4.529  18.259  0.00  0.00    +0.000 NA
ATOM      6  C   UNL     1       3.710   5.173  17.478  0.00  0.00    +0.000 C 
ENDROOT
BRANCH   1   7
ATOM      7  C   UNL     1       2.559   6.375  19.415  0.00  0.00    +0.000 C 
BRANCH   7  13
ATOM      8  C   UNL     1       0.081  12.453  19.656  0.00  0.00    +0.000 C 
ATOM      9  N   UNL     1       0.694  11.729  18.559  0.00  0.00    +0.000 N 
ATOM     10  C   UNL     1       1.133  10.418  18.839  0.00  0.00    +0.000 A 
ATOM     11  C   UNL     1       1.742   9.721  17.809  0.00  0.00    +0.000 A 
ATOM     12  C   UNL     1       2.196   8.416  18.012  0.00  0.00    +0.000 A 
ATOM     13  C   UNL     1       2.036   7.799  19.245  0.00  0.00    +0.000 A 
ATOM     14  N   UNL     1       1.416   8.469  20.233  0.00  0.00    +0.000 NA
ATOM     15  N   UNL     1       0.954   9.791  20.022  0.00  0.00    +0.000 NA
ATOM     16  H   UNL     1       1.461  12.252  18.143  0.00  0.00    +0.000 HD
ENDBRANCH   7  13
ENDBRANCH   1   7
BRANCH   5  17
ATOM     17  C   UNL     1       6.118   4.621  17.664  0.00  0.00    +0.000 C 
BRANCH  17  18
ATOM     18  C   UNL     1       6.909   5.862  17.976  0.00  0.00    +0.000 A 
ATOM     19  C   UNL     1       7.833   6.086  18.978  0.00  0.00    +0.000 A 
ATOM     20  N   UNL     1       8.351   7.331  18.733  0.00  0.00    +0.000 N 
ATOM     21  C   UNL     1       7.751   7.811  17.603  0.00  0.00    +0.000 A 
ATOM     22  N   UNL     1       6.872   6.958  17.130  0.00  0.00    +0.000 NA
ATOM     23  H   UNL     1       9.072   7.801  19.261  0.00  0.00    +0.000 HD
ENDBRANCH  17  18
ENDBRANCH   5  17
TORSDOF 4
ENDMDL
MODEL 4
REMARK VINA RESULT:      -7.2      2.014      4.275
REMARK  Name = 
REMARK  5 active torsions:
REMARK  status: ('A' for Active; 'I' for Inactive)
REMARK    1  A    between atoms: C_1  and  N_2
REMARK    2  A    between atoms: C_6  and  C_7
REMARK    3  A    between atoms: C_7  and  C_8
REMARK    4  A    between atoms: N_12  and  C_13
REMARK    5  A    between atoms: C_13  and  C_14
REMARK                            x       y       z     vdW  Elec       q    Type
REMARK                         _______ _______ _______ _____ _____    ______ ____
ROOT
ATOM      1  C   UNL     1       2.339   5.447  18.310  0.00  0.00    +0.000 C 
ATOM      2  C   UNL     1       1.684   4.099  18.656  0.00  0.00    +0.000 C 
ATOM      3  C   UNL     1       2.575   3.186  19.500  0.00  0.00    +0.000 C 
ATOM      4  C   UNL     1       4.012   3.088  18.981  0.00  0.00    +0.000 C 
ATOM      5  N   UNL     1       4.578   4.420  18.755  0.00  0.00    +0.000 NA
ATOM      6  C   UNL     1       3.785   5.185  17.789  0.00  0.00    +0.000 C 
ENDROOT
BRANCH   1   7
ATOM      7  C   UNL     1       2.357   6.465  19.476  0.00  0.00    +0.000 C 
BRANCH   7  13
ATOM      8  C   UNL     1       0.258  12.687  19.568  0.00  0.00    +0.000 C 
ATOM      9  N   UNL     1       0.864  11.915  18.502  0.00  0.00    +0.000 N 
ATOM     10  C   UNL     1       1.210  10.581  18.810  0.00  0.00    +0.000 A 
ATOM     11  C   UNL     1       1.812   9.836  17.810  0.00  0.00    +0.000 A 
ATOM     12  C   UNL     1       2.176   8.508  18.042  0.00  0.00    +0.000 A 
ATOM     13  C   UNL     1       1.931   7.916  19.274  0.00  0.00    +0.000 A 
ATOM     14  N   UNL     1       1.318   8.634  20.231  0.00  0.00    +0.000 NA
ATOM     15  N   UNL     1       0.948   9.981  19.991  0.00  0.00    +0.000 NA
ATOM     16  H   UNL     1       1.678  12.383  18.111  0.00  0.00    +0.000 HD
ENDBRANCH   7  13
ENDBRANCH   1   7
BRANCH   5  17
ATOM     17  C   UNL     1       6.028   4.382  18.473  0.00  0.00    +0.000 C 
BRANCH  17  18
ATOM     18  C   UNL     1       6.456   4.799  17.092  0.00  0.00    +0.000 A 
ATOM     19  C   UNL     1       7.134   5.932  16.686  0.00  0.00    +0.000 A 
ATOM     20  N   UNL     1       7.387   5.755  15.352  0.00  0.00    +0.000 N 
ATOM     21  C   UNL     1       6.880   4.537  14.995  0.00  0.00    +0.000 A 
ATOM     22  N   UNL     1       6.305   3.942  16.013  0.00  0.00    +0.000 NA
ATOM     23  H   UNL     1       7.890   6.384  14.743  0.00  0.00    +0.000 HD
ENDBRANCH  17  18
ENDBRANCH   5  17
TORSDOF 4
ENDMDL
MODEL 5
REMARK VINA RESULT:      -7.2      2.073      4.153
REMARK  Name = 
REMARK  5 active torsions:
REMARK  status: ('A' for Active; 'I' for Inactive)
REMARK    1  A    between atoms: C_1  and  N_2
REMARK    2  A    between atoms: C_6  and  C_7
REMARK    3  A    between atoms: C_7  and  C_8
REMARK    4  A    between atoms: N_12  and  C_13
REMARK    5  A    between atoms: C_13  and  C_14
REMARK                            x       y       z     vdW  Elec       q    Type
REMARK                         _______ _______ _______ _____ _____    ______ ____
ROOT
ATOM      1  C   UNL     1       1.859   5.127  19.232  0.00  0.00    +0.000 C 
ATOM      2  C   UNL     1       1.358   4.025  20.181  0.00  0.00    +0.000 C 
ATOM      3  C   UNL     1       2.486   3.222  20.833  0.00  0.00    +0.000 C 
ATOM      4  C   UNL     1       3.568   2.778  19.845  0.00  0.00    +0.000 C 
ATOM      5  N   UNL     1       4.037   3.909  19.041  0.00  0.00    +0.000 NA
ATOM      6  C   UNL     1       2.942   4.523  18.286  0.00  0.00    +0.000 C 
ENDROOT
BRANCH   1   7
ATOM      7  C   UNL     1       2.403   6.386  19.948  0.00  0.00    +0.000 C 
BRANCH   7  13
ATOM      8  C   UNL     1       0.215  12.532  19.183  0.00  0.00    +0.000 C 
ATOM      9  N   UNL     1       0.817  11.621  18.229  0.00  0.00    +0.000 N 
ATOM     10  C   UNL     1       1.186  10.350  18.719  0.00  0.00    +0.000 A 
ATOM     11  C   UNL     1       1.784   9.477  17.825  0.00  0.00    +0.000 A 
ATOM     12  C   UNL     1       2.169   8.200  18.239  0.00  0.00    +0.000 A 
ATOM     13  C   UNL     1       1.952   7.788  19.547  0.00  0.00    +0.000 A 
ATOM     14  N   UNL     1       1.344   8.629  20.402  0.00  0.00    +0.000 NA
ATOM     15  N   UNL     1       0.951   9.922  19.978  0.00  0.00    +0.000 NA
ATOM     16  H   UNL     1       1.618  12.039  17.761  0.00  0.00    +0.000 HD
ENDBRANCH   7  13
ENDBRANCH   1   7
BRANCH   5  17
ATOM     17  C   UNL     1       5.232   3.579  18.238  0.00  0.00    +0.000 C 
BRANCH  17  18
ATOM     18  C   UNL     1       6.296   4.638  18.146  0.00  0.00    +0.000 A 
ATOM     19  C   UNL     1       6.705   5.382  17.056  0.00  0.00    +0.000 A 
ATOM     20  N   UNL     1       7.605   6.292  17.543  0.00  0.00    +0.000 N 
ATOM     21  C   UNL     1       7.704   6.091  18.892  0.00  0.00    +0.000 A 
ATOM     22  N   UNL     1       6.940   5.098  19.284  0.00  0.00    +0.000 NA
ATOM     23  H   UNL     1       8.084   7.010  17.019  0.00  0.00    +0.000 HD
ENDBRANCH  17  18
ENDBRANCH   5  17
TORSDOF 4
ENDMDL
MODEL 6
REMARK VINA RESULT:      -7.1      0.982      1.150
REMARK  Name = 
REMARK  5 active torsions:
REMARK  status: ('A' for Active; 'I' for Inactive)
REMARK    1  A    between atoms: C_1  and  N_2
REMARK    2  A    between atoms: C_6  and  C_7
REMARK    3  A    between atoms: C_7  and  C_8
REMARK    4  A    between atoms: N_12  and  C_13
REMARK    5  A    between atoms: C_13  and  C_14
REMARK                            x       y       z     vdW  Elec       q    Type
REMARK                         _______ _______ _______ _____ _____    ______ ____
ROOT
ATOM      1  C   UNL     1       4.599   6.679  17.772  0.00  0.00    +0.000 C 
ATOM      2  C   UNL     1       5.399   6.401  16.488  0.00  0.00    +0.000 C 
ATOM      3  C   UNL     1       5.086   5.043  15.857  0.00  0.00    +0.000 C 
ATOM      4  C   UNL     1       5.066   3.891  16.865  0.00  0.00    +0.000 C 
ATOM      5  N   UNL     1       4.217   4.218  18.014  0.00  0.00    +0.000 NA
ATOM      6  C   UNL     1       4.680   5.428  18.698  0.00  0.00    +0.000 C 
ENDROOT
BRANCH   1   7
ATOM      7  C   UNL     1       3.124   7.081  17.530  0.00  0.00    +0.000 C 
BRANCH   7  13
ATOM      8  C   UNL     1      -0.394  11.229  21.212  0.00  0.00    +0.000 C 
ATOM      9  N   UNL     1       0.184   9.940  21.538  0.00  0.00    +0.000 N 
ATOM     10  C   UNL     1       0.893   9.289  20.505  0.00  0.00    +0.000 A 
ATOM     11  C   UNL     1       1.431   8.046  20.792  0.00  0.00    +0.000 A 
ATOM     12  C   UNL     1       2.150   7.347  19.820  0.00  0.00    +0.000 A 
ATOM     13  C   UNL     1       2.340   7.893  18.557  0.00  0.00    +0.000 A 
ATOM     14  N   UNL     1       1.841   9.113  18.293  0.00  0.00    +0.000 NA
ATOM     15  N   UNL     1       1.115   9.820  19.283  0.00  0.00    +0.000 NA
ATOM     16  H   UNL     1      -0.509   9.298  21.915  0.00  0.00    +0.000 HD
ENDBRANCH   7  13
ENDBRANCH   1   7
BRANCH   5  17
ATOM     17  C   UNL     1       3.987   3.057  18.898  0.00  0.00    +0.000 C 
BRANCH  17  18
ATOM     18  C   UNL     1       2.776   3.119  19.789  0.00  0.00    +0.000 A 
ATOM     19  C   UNL     1       1.475   3.471  19.481  0.00  0.00    +0.000 A 
ATOM     20  N   UNL     1       0.747   3.230  20.616  0.00  0.00    +0.000 N 
ATOM     21  C   UNL     1       1.605   2.734  21.557  0.00  0.00    +0.000 A 
ATOM     22  N   UNL     1       2.832   2.665  21.096  0.00  0.00    +0.000 NA
ATOM     23  H   UNL     1      -0.248   3.355  20.734  0.00  0.00    +0.000 HD
ENDBRANCH  17  18
ENDBRANCH   5  17
TORSDOF 4
ENDMDL
MODEL 7
REMARK VINA RESULT:      -7.0      2.291      6.054
REMARK  Name = 
REMARK  5 active torsions:
REMARK  status: ('A' for Active; 'I' for Inactive)
REMARK    1  A    between atoms: C_1  and  N_2
REMARK    2  A    between atoms: C_6  and  C_7
REMARK    3  A    between atoms: C_7  and  C_8
REMARK    4  A    between atoms: N_12  and  C_13
REMARK    5  A    between atoms: C_13  and  C_14
REMARK                            x       y       z     vdW  Elec       q    Type
REMARK                         _______ _______ _______ _____ _____    ______ ____
ROOT
ATOM      1  C   UNL     1       2.514   7.067  17.837  0.00  0.00    +0.000 C 
ATOM      2  C   UNL     1       2.019   8.124  18.839  0.00  0.00    +0.000 C 
ATOM      3  C   UNL     1       2.153   7.689  20.300  0.00  0.00    +0.000 C 
ATOM      4  C   UNL     1       1.649   6.268  20.562  0.00  0.00    +0.000 C 
ATOM      5  N   UNL     1       2.234   5.322  19.608  0.00  0.00    +0.000 NA
ATOM      6  C   UNL     1       1.911   5.683  18.226  0.00  0.00    +0.000 C 
ENDROOT
BRANCH   1   7
ATOM      7  C   UNL     1       4.053   6.976  17.716  0.00  0.00    +0.000 C 
BRANCH   7  13
ATOM      8  C   UNL     1       7.067   4.133  12.619  0.00  0.00    +0.000 C 
ATOM      9  N   UNL     1       6.550   3.559  13.846  0.00  0.00    +0.000 N 
ATOM     10  C   UNL     1       5.950   4.457  14.756  0.00  0.00    +0.000 A 
ATOM     11  C   UNL     1       5.472   3.929  15.944  0.00  0.00    +0.000 A 
ATOM     12  C   UNL     1       4.861   4.757  16.888  0.00  0.00    +0.000 A 
ATOM     13  C   UNL     1       4.719   6.116  16.645  0.00  0.00    +0.000 A 
ATOM     14  N   UNL     1       5.158   6.618  15.477  0.00  0.00    +0.000 NA
ATOM     15  N   UNL     1       5.774   5.775  14.520  0.00  0.00    +0.000 NA
ATOM     16  H   UNL     1       7.256   3.016  14.337  0.00  0.00    +0.000 HD
ENDBRANCH   7  13
ENDBRANCH   1   7
BRANCH   5  17
ATOM     17  C   UNL     1       1.957   3.914  19.960  0.00  0.00    +0.000 C 
BRANCH  17  18
ATOM     18  C   UNL     1       2.956   2.893  19.489  0.00  0.00    +0.000 A 
ATOM     19  C   UNL     1       4.119   2.456  20.094  0.00  0.00    +0.000 A 
ATOM     20  N   UNL     1       4.580   1.429  19.314  0.00  0.00    +0.000 N 
ATOM     21  C   UNL     1       3.694   1.262  18.287  0.00  0.00    +0.000 A 
ATOM     22  N   UNL     1       2.713   2.132  18.357  0.00  0.00    +0.000 NA
ATOM     23  H   UNL     1       5.401   0.865  19.480  0.00  0.00    +0.000 HD
ENDBRANCH  17  18
ENDBRANCH   5  17
TORSDOF 4
ENDMDL
MODEL 8
REMARK VINA RESULT:      -7.0      2.272      4.376
REMARK  Name = 
REMARK  5 active torsions:
REMARK  status: ('A' for Active; 'I' for Inactive)
REMARK    1  A    between atoms: C_1  and  N_2
REMARK    2  A    between atoms: C_6  and  C_7
REMARK    3  A    between atoms: C_7  and  C_8
REMARK    4  A    between atoms: N_12  and  C_13
REMARK    5  A    between atoms: C_13  and  C_14
REMARK                            x       y       z     vdW  Elec       q    Type
REMARK                         _______ _______ _______ _____ _____    ______ ____
ROOT
ATOM      1  C   UNL     1       2.351   5.350  18.366  0.00  0.00    +0.000 C 
ATOM      2  C   UNL     1       1.921   3.918  18.728  0.00  0.00    +0.000 C 
ATOM      3  C   UNL     1       3.073   3.041  19.221  0.00  0.00    +0.000 C 
ATOM      4  C   UNL     1       4.327   3.135  18.348  0.00  0.00    +0.000 C 
ATOM      5  N   UNL     1       4.704   4.533  18.124  0.00  0.00    +0.000 NA
ATOM      6  C   UNL     1       3.626   5.282  17.472  0.00  0.00    +0.000 C 
ENDROOT
BRANCH   1   7
ATOM      7  C   UNL     1       2.590   6.271  19.586  0.00  0.00    +0.000 C 
BRANCH   7  13
ATOM      8  C   UNL     1       0.080  12.311  18.991  0.00  0.00    +0.000 C 
ATOM      9  N   UNL     1       0.140  11.426  20.138  0.00  0.00    +0.000 N 
ATOM     10  C   UNL     1       0.754  10.172  19.932  0.00  0.00    +0.000 A 
ATOM     11  C   UNL     1       0.799   9.304  21.011  0.00  0.00    +0.000 A 
ATOM     12  C   UNL     1       1.397   8.049  20.882  0.00  0.00    +0.000 A 
ATOM     13  C   UNL     1       1.959   7.658  19.675  0.00  0.00    +0.000 A 
ATOM     14  N   UNL     1       1.940   8.515  18.639  0.00  0.00    +0.000 NA
ATOM     15  N   UNL     1       1.336   9.790  18.775  0.00  0.00    +0.000 NA
ATOM     16  H   UNL     1      -0.777  11.279  20.551  0.00  0.00    +0.000 HD
ENDBRANCH   7  13
ENDBRANCH   1   7
BRANCH   5  17
ATOM     17  C   UNL     1       6.027   4.669  17.481  0.00  0.00    +0.000 C 
BRANCH  17  18
ATOM     18  C   UNL     1       6.848   5.866  17.878  0.00  0.00    +0.000 A 
ATOM     19  C   UNL     1       7.763   6.004  18.905  0.00  0.00    +0.000 A 
ATOM     20  N   UNL     1       8.320   7.245  18.742  0.00  0.00    +0.000 N 
ATOM     21  C   UNL     1       7.752   7.808  17.634  0.00  0.00    +0.000 A 
ATOM     22  N   UNL     1       6.856   7.011  17.098  0.00  0.00    +0.000 NA
ATOM     23  H   UNL     1       9.045   7.661  19.307  0.00  0.00    +0.000 HD
ENDBRANCH  17  18
ENDBRANCH   5  17
TORSDOF 4
ENDMDL
MODEL 9
REMARK VINA RESULT:      -7.0      1.872      4.173
REMARK  Name = 
REMARK  5 active torsions:
REMARK  status: ('A' for Active; 'I' for Inactive)
REMARK    1  A    between atoms: C_1  and  N_2
REMARK    2  A    between atoms: C_6  and  C_7
REMARK    3  A    between atoms: C_7  and  C_8
REMARK    4  A    between atoms: N_12  and  C_13
REMARK    5  A    between atoms: C_13  and  C_14
REMARK                            x       y       z     vdW  Elec       q    Type
REMARK                         _______ _______ _______ _____ _____    ______ ____
ROOT
ATOM      1  C   UNL     1       1.437   4.639  19.940  0.00  0.00    +0.000 C 
ATOM      2  C   UNL     1       1.600   3.319  20.712  0.00  0.00    +0.000 C 
ATOM      3  C   UNL     1       2.955   2.645  20.489  0.00  0.00    +0.000 C 
ATOM      4  C   UNL     1       3.372   2.585  19.017  0.00  0.00    +0.000 C 
ATOM      5  N   UNL     1       3.258   3.903  18.388  0.00  0.00    +0.000 NA
ATOM      6  C   UNL     1       1.888   4.418  18.464  0.00  0.00    +0.000 C 
ENDROOT
BRANCH   1   7
ATOM      7  C   UNL     1       2.188   5.839  20.564  0.00  0.00    +0.000 C 
BRANCH   7  13
ATOM      8  C   UNL     1       0.531  11.932  18.755  0.00  0.00    +0.000 C 
ATOM      9  N   UNL     1       0.269  11.211  19.985  0.00  0.00    +0.000 N 
ATOM     10  C   UNL     1       0.767   9.893  20.060  0.00  0.00    +0.000 A 
ATOM     11  C   UNL     1       0.505   9.182  21.220  0.00  0.00    +0.000 A 
ATOM     12  C   UNL     1       0.972   7.875  21.367  0.00  0.00    +0.000 A 
ATOM     13  C   UNL     1       1.711   7.274  20.356  0.00  0.00    +0.000 A 
ATOM     14  N   UNL     1       1.988   7.978  19.245  0.00  0.00    +0.000 NA
ATOM     15  N   UNL     1       1.515   9.306  19.101  0.00  0.00    +0.000 NA
ATOM     16  H   UNL     1      -0.722  11.202  20.215  0.00  0.00    +0.000 HD
ENDBRANCH   7  13
ENDBRANCH   1   7
BRANCH   5  17
ATOM     17  C   UNL     1       3.860   3.944  17.040  0.00  0.00    +0.000 C 
BRANCH  17  18
ATOM     18  C   UNL     1       5.347   4.162  16.972  0.00  0.00    +0.000 A 
ATOM     19  C   UNL     1       6.194   4.116  15.881  0.00  0.00    +0.000 A 
ATOM     20  N   UNL     1       7.419   4.519  16.345  0.00  0.00    +0.000 N 
ATOM     21  C   UNL     1       7.281   4.807  17.674  0.00  0.00    +0.000 A 
ATOM     22  N   UNL     1       6.053   4.592  18.084  0.00  0.00    +0.000 NA
ATOM     23  H   UNL     1       8.265   4.624  15.805  0.00  0.00    +0.000 HD
ENDBRANCH  17  18
ENDBRANCH   5  17
TORSDOF 4
ENDMDL
