MODEL 1
REMARK VINA RESULT:      -7.5      0.000      0.000
REMARK  Name = 
REMARK  3 active torsions:
REMARK  status: ('A' for Active; 'I' for Inactive)
REMARK    1  A    between atoms: C_1  and  C_2
REMARK    2  A    between atoms: C_7  and  N_8
REMARK    3  A    between atoms: C_12  and  N_13
REMARK                            x       y       z     vdW  Elec       q    Type
REMARK                         _______ _______ _______ _____ _____    ______ ____
ROOT
ATOM      1  N   UNL     1       1.259   9.592  19.397  0.00  0.00    +0.000 N 
ATOM      2  C   UNL     1       1.896   8.982  18.323  0.00  0.00    +0.000 A 
ATOM      3  O   UNL     1       2.058   9.470  17.206  0.00  0.00    +0.000 OA
ATOM      4  C   UNL     1       2.454   7.634  18.566  0.00  0.00    +0.000 A 
ATOM      5  C   UNL     1       2.247   6.999  19.726  0.00  0.00    +0.000 A 
ATOM      6  N   UNL     1       1.540   7.663  20.682  0.00  0.00    +0.000 N 
ATOM      7  C   UNL     1       1.023   8.923  20.587  0.00  0.00    +0.000 A 
ATOM      8  O   UNL     1       0.363   9.347  21.539  0.00  0.00    +0.000 OA
ATOM      9  H   UNL     1       1.380   7.214  21.571  0.00  0.00    +0.000 HD
ENDROOT
BRANCH   1  16
ATOM     10  C   UNL     1      -1.435   9.964  18.212  0.00  0.00    +0.000 C 
ATOM     11  C   UNL     1      -0.548  11.104  18.635  0.00  0.00    +0.000 A 
ATOM     12  C   UNL     1      -1.023  12.418  18.484  0.00  0.00    +0.000 A 
ATOM     13  C   UNL     1      -0.269  13.509  18.916  0.00  0.00    +0.000 A 
ATOM     14  C   UNL     1       0.974  13.304  19.507  0.00  0.00    +0.000 A 
ATOM     15  C   UNL     1       1.460  12.007  19.669  0.00  0.00    +0.000 A 
ATOM     16  C   UNL     1       0.716  10.900  19.227  0.00  0.00    +0.000 A 
ENDBRANCH   1  16
BRANCH   5  17
ATOM     17  N   UNL     1       2.688   5.695  19.971  0.00  0.00    +0.000 N 
ATOM     18  C   UNL     1       3.998   5.237  19.480  0.00  0.00    +0.000 C 
ATOM     19  C   UNL     1       3.847   4.208  18.361  0.00  0.00    +0.000 C 
ATOM     20  C   UNL     1       3.450   2.810  18.832  0.00  0.00    +0.000 C 
ATOM     21  C   UNL     1       2.159   2.757  19.643  0.00  0.00    +0.000 C 
ATOM     22  C   UNL     1       2.312   3.406  21.015  0.00  0.00    +0.000 C 
ATOM     23  C   UNL     1       2.046   4.907  21.037  0.00  0.00    +0.000 C 
ENDBRANCH   5  17
TORSDOF 2
ENDMDL
MODEL 2
REMARK VINA RESULT:      -7.5      0.590      1.739
REMARK  Name = 
REMARK  3 active torsions:
REMARK  status: ('A' for Active; 'I' for Inactive)
REMARK    1  A    between atoms: C_1  and  C_2
REMARK    2  A    between atoms: C_7  and  N_8
REMARK    3  A    between atoms: C_12  and  N_13
REMARK                            x       y       z     vdW  Elec       q    Type
REMARK                         _______ _______ _______ _____ _____    ______ ____
ROOT
ATOM      1  N   UNL     1       1.124   9.582  19.326  0.00  0.00    +0.000 N 
ATOM      2  C   UNL     1       0.960   9.051  20.599  0.00  0.00    +0.000 A 
ATOM      3  O   UNL     1       0.435   9.617  21.557  0.00  0.00    +0.000 OA
ATOM      4  C   UNL     1       1.435   7.666  20.803  0.00  0.00    +0.000 A 
ATOM      5  C   UNL     1       2.093   7.011  19.838  0.00  0.00    +0.000 A 
ATOM      6  N   UNL     1       2.266   7.659  18.653  0.00  0.00    +0.000 N 
ATOM      7  C   UNL     1       1.828   8.914  18.337  0.00  0.00    +0.000 A 
ATOM      8  O   UNL     1       2.122   9.363  17.226  0.00  0.00    +0.000 OA
ATOM      9  H   UNL     1       2.747   7.186  17.903  0.00  0.00    +0.000 HD
ENDROOT
BRANCH   1  16
ATOM     10  C   UNL     1      -1.617  10.061  18.300  0.00  0.00    +0.000 C 
ATOM     11  C   UNL     1      -0.618  11.159  18.545  0.00  0.00    +0.000 A 
ATOM     12  C   UNL     1      -1.004  12.487  18.298  0.00  0.00    +0.000 A 
ATOM     13  C   UNL     1      -0.139  13.548  18.567  0.00  0.00    +0.000 A 
ATOM     14  C   UNL     1       1.127  13.299  19.088  0.00  0.00    +0.000 A 
ATOM     15  C   UNL     1       1.526  11.987  19.344  0.00  0.00    +0.000 A 
ATOM     16  C   UNL     1       0.669  10.909  19.065  0.00  0.00    +0.000 A 
ENDBRANCH   1  16
BRANCH   5  17
ATOM     17  N   UNL     1       2.627   5.731  20.012  0.00  0.00    +0.000 N 
ATOM     18  C   UNL     1       3.957   5.389  19.481  0.00  0.00    +0.000 C 
ATOM     19  C   UNL     1       3.858   4.408  18.315  0.00  0.00    +0.000 C 
ATOM     20  C   UNL     1       3.567   2.965  18.721  0.00  0.00    +0.000 C 
ATOM     21  C   UNL     1       2.295   2.782  19.545  0.00  0.00    +0.000 C 
ATOM     22  C   UNL     1       2.426   3.374  20.945  0.00  0.00    +0.000 C 
ATOM     23  C   UNL     1       2.058   4.849  21.046  0.00  0.00    +0.000 C 
ENDBRANCH   5  17
TORSDOF 2
ENDMDL
MODEL 3
REMARK VINA RESULT:      -7.4      2.097      7.046
REMARK  Name = 
REMARK  3 active torsions:
REMARK  status: ('A' for Active; 'I' for Inactive)
REMARK    1  A    between atoms: C_1  and  C_2
REMARK    2  A    between atoms: C_7  and  N_8
REMARK    3  A    between atoms: C_12  and  N_13
REMARK                            x       y       z     vdW  Elec       q    Type
REMARK                         _______ _______ _______ _____ _____    ______ ____
ROOT
ATOM      1  N   UNL     1       2.364   6.202  19.185  0.00  0.00    +0.000 N 
ATOM      2  C   UNL     1       2.452   7.419  18.520  0.00  0.00    +0.000 A 
ATOM      3  O   UNL     1       2.918   7.596  17.395  0.00  0.00    +0.000 OA
ATOM      4  C   UNL     1       1.904   8.597  19.225  0.00  0.00    +0.000 A 
ATOM      5  C   UNL     1       1.457   8.505  20.483  0.00  0.00    +0.000 A 
ATOM      6  N   UNL     1       1.490   7.275  21.067  0.00  0.00    +0.000 N 
ATOM      7  C   UNL     1       1.925   6.113  20.497  0.00  0.00    +0.000 A 
ATOM      8  O   UNL     1       1.931   5.097  21.196  0.00  0.00    +0.000 OA
ATOM      9  H   UNL     1       1.148   7.173  22.010  0.00  0.00    +0.000 HD
ENDROOT
BRANCH   1  16
ATOM     10  C   UNL     1       5.243   5.507  19.337  0.00  0.00    +0.000 C 
ATOM     11  C   UNL     1       4.231   4.694  18.577  0.00  0.00    +0.000 A 
ATOM     12  C   UNL     1       4.660   3.529  17.919  0.00  0.00    +0.000 A 
ATOM     13  C   UNL     1       3.754   2.705  17.252  0.00  0.00    +0.000 A 
ATOM     14  C   UNL     1       2.401   3.032  17.232  0.00  0.00    +0.000 A 
ATOM     15  C   UNL     1       1.956   4.182  17.882  0.00  0.00    +0.000 A 
ATOM     16  C   UNL     1       2.860   5.027  18.547  0.00  0.00    +0.000 A 
ENDBRANCH   1  16
BRANCH   5  17
ATOM     17  N   UNL     1       1.003   9.606  21.214  0.00  0.00    +0.000 N 
ATOM     18  C   UNL     1       0.922   9.557  22.683  0.00  0.00    +0.000 C 
ATOM     19  C   UNL     1      -0.528   9.548  23.164  0.00  0.00    +0.000 C 
ATOM     20  C   UNL     1      -1.228  10.903  23.097  0.00  0.00    +0.000 C 
ATOM     21  C   UNL     1      -1.239  11.544  21.712  0.00  0.00    +0.000 C 
ATOM     22  C   UNL     1       0.150  12.002  21.278  0.00  0.00    +0.000 C 
ATOM     23  C   UNL     1       0.978  10.933  20.575  0.00  0.00    +0.000 C 
ENDBRANCH   5  17
TORSDOF 2
ENDMDL
MODEL 4
REMARK VINA RESULT:      -7.0      1.401      1.735
REMARK  Name = 
REMARK  3 active torsions:
REMARK  status: ('A' for Active; 'I' for Inactive)
REMARK    1  A    between atoms: C_1  and  C_2
REMARK    2  A    between atoms: C_7  and  N_8
REMARK    3  A    between atoms: C_12  and  N_13
REMARK                            x       y       z     vdW  Elec       q    Type
REMARK                         _______ _______ _______ _____ _____    ______ ____
ROOT
ATOM      1  N   UNL     1       1.246   9.590  19.528  0.00  0.00    +0.000 N 
ATOM      2  C   UNL     1       1.862   9.453  18.290  0.00  0.00    +0.000 A 
ATOM      3  O   UNL     1       1.896  10.304  17.402  0.00  0.00    +0.000 OA
ATOM      4  C   UNL     1       2.563   8.177  18.039  0.00  0.00    +0.000 A 
ATOM      5  C   UNL     1       2.501   7.168  18.918  0.00  0.00    +0.000 A 
ATOM      6  N   UNL     1       1.803   7.386  20.066  0.00  0.00    +0.000 N 
ATOM      7  C   UNL     1       1.161   8.537  20.425  0.00  0.00    +0.000 A 
ATOM      8  O   UNL     1       0.532   8.538  21.486  0.00  0.00    +0.000 OA
ATOM      9  H   UNL     1       1.750   6.650  20.753  0.00  0.00    +0.000 HD
ENDROOT
BRANCH   1  16
ATOM     10  C   UNL     1      -1.501  10.080  18.523  0.00  0.00    +0.000 C 
ATOM     11  C   UNL     1      -0.724  11.077  19.339  0.00  0.00    +0.000 A 
ATOM     12  C   UNL     1      -1.334  12.300  19.666  0.00  0.00    +0.000 A 
ATOM     13  C   UNL     1      -0.684  13.235  20.472  0.00  0.00    +0.000 A 
ATOM     14  C   UNL     1       0.588  12.962  20.966  0.00  0.00    +0.000 A 
ATOM     15  C   UNL     1       1.208  11.752  20.655  0.00  0.00    +0.000 A 
ATOM     16  C   UNL     1       0.569  10.807  19.834  0.00  0.00    +0.000 A 
ENDBRANCH   1  16
BRANCH   5  17
ATOM     17  N   UNL     1       3.083   5.919  18.687  0.00  0.00    +0.000 N 
ATOM     18  C   UNL     1       4.207   5.446  19.511  0.00  0.00    +0.000 C 
ATOM     19  C   UNL     1       5.507   5.398  18.710  0.00  0.00    +0.000 C 
ATOM     20  C   UNL     1       5.618   4.218  17.748  0.00  0.00    +0.000 C 
ATOM     21  C   UNL     1       4.483   4.118  16.732  0.00  0.00    +0.000 C 
ATOM     22  C   UNL     1       3.159   3.736  17.384  0.00  0.00    +0.000 C 
ATOM     23  C   UNL     1       2.344   4.915  17.902  0.00  0.00    +0.000 C 
ENDBRANCH   5  17
TORSDOF 2
ENDMDL
MODEL 5
REMARK VINA RESULT:      -7.0      1.415      2.423
REMARK  Name = 
REMARK  3 active torsions:
REMARK  status: ('A' for Active; 'I' for Inactive)
REMARK    1  A    between atoms: C_1  and  C_2
REMARK    2  A    between atoms: C_7  and  N_8
REMARK    3  A    between atoms: C_12  and  N_13
REMARK                            x       y       z     vdW  Elec       q    Type
REMARK                         _______ _______ _______ _____ _____    ______ ____
ROOT
ATOM      1  N   UNL     1       1.185   9.475  19.535  0.00  0.00    +0.000 N 
ATOM      2  C   UNL     1       1.191   8.526  20.549  0.00  0.00    +0.000 A 
ATOM      3  O   UNL     1       0.709   8.665  21.673  0.00  0.00    +0.000 OA
ATOM      4  C   UNL     1       1.808   7.222  20.229  0.00  0.00    +0.000 A 
ATOM      5  C   UNL     1       2.429   7.018  19.060  0.00  0.00    +0.000 A 
ATOM      6  N   UNL     1       2.429   8.047  18.168  0.00  0.00    +0.000 N 
ATOM      7  C   UNL     1       1.850   9.273  18.336  0.00  0.00    +0.000 A 
ATOM      8  O   UNL     1       1.995  10.105  17.438  0.00  0.00    +0.000 OA
ATOM      9  H   UNL     1       2.878   7.919  17.275  0.00  0.00    +0.000 HD
ENDROOT
BRANCH   1  16
ATOM     10  C   UNL     1      -1.533  10.086  18.518  0.00  0.00    +0.000 C 
ATOM     11  C   UNL     1      -0.690  11.073  19.278  0.00  0.00    +0.000 A 
ATOM     12  C   UNL     1      -1.219  12.347  19.544  0.00  0.00    +0.000 A 
ATOM     13  C   UNL     1      -0.505  13.279  20.298  0.00  0.00    +0.000 A 
ATOM     14  C   UNL     1       0.751  12.951  20.800  0.00  0.00    +0.000 A 
ATOM     15  C   UNL     1       1.291  11.690  20.549  0.00  0.00    +0.000 A 
ATOM     16  C   UNL     1       0.588  10.747  19.781  0.00  0.00    +0.000 A 
ENDBRANCH   1  16
BRANCH   5  17
ATOM     17  N   UNL     1       3.092   5.829  18.745  0.00  0.00    +0.000 N 
ATOM     18  C   UNL     1       4.253   5.380  19.531  0.00  0.00    +0.000 C 
ATOM     19  C   UNL     1       5.546   5.474  18.724  0.00  0.00    +0.000 C 
ATOM     20  C   UNL     1       5.728   4.369  17.685  0.00  0.00    +0.000 C 
ATOM     21  C   UNL     1       4.593   4.259  16.670  0.00  0.00    +0.000 C 
ATOM     22  C   UNL     1       3.303   3.746  17.301  0.00  0.00    +0.000 C 
ATOM     23  C   UNL     1       2.415   4.831  17.899  0.00  0.00    +0.000 C 
ENDBRANCH   5  17
TORSDOF 2
ENDMDL
MODEL 6
REMARK VINA RESULT:      -7.0      2.107      7.206
REMARK  Name = 
REMARK  3 active torsions:
REMARK  status: ('A' for Active; 'I' for Inactive)
REMARK    1  A    between atoms: C_1  and  C_2
REMARK    2  A    between atoms: C_7  and  N_8
REMARK    3  A    between atoms: C_12  and  N_13
REMARK                            x       y       z     vdW  Elec       q    Type
REMARK                         _______ _______ _______ _____ _____    ______ ____
ROOT
ATOM      1  N   UNL     1       2.385   6.287  19.249  0.00  0.00    +0.000 N 
ATOM      2  C   UNL     1       1.826   6.102  20.507  0.00  0.00    +0.000 A 
ATOM      3  O   UNL     1       1.694   5.026  21.089  0.00  0.00    +0.000 OA
ATOM      4  C   UNL     1       1.382   7.320  21.218  0.00  0.00    +0.000 A 
ATOM      5  C   UNL     1       1.412   8.518  20.622  0.00  0.00    +0.000 A 
ATOM      6  N   UNL     1       1.909   8.571  19.355  0.00  0.00    +0.000 N 
ATOM      7  C   UNL     1       2.392   7.524  18.624  0.00  0.00    +0.000 A 
ATOM      8  O   UNL     1       2.756   7.749  17.467  0.00  0.00    +0.000 OA
ATOM      9  H   UNL     1       1.957   9.462  18.886  0.00  0.00    +0.000 HD
ENDROOT
BRANCH   1  16
ATOM     10  C   UNL     1       5.251   5.525  19.308  0.00  0.00    +0.000 C 
ATOM     11  C   UNL     1       4.211   4.788  18.509  0.00  0.00    +0.000 A 
ATOM     12  C   UNL     1       4.607   3.663  17.765  0.00  0.00    +0.000 A 
ATOM     13  C   UNL     1       3.674   2.906  17.056  0.00  0.00    +0.000 A 
ATOM     14  C   UNL     1       2.329   3.261  17.079  0.00  0.00    +0.000 A 
ATOM     15  C   UNL     1       1.917   4.371  17.815  0.00  0.00    +0.000 A 
ATOM     16  C   UNL     1       2.848   5.149  18.523  0.00  0.00    +0.000 A 
ENDBRANCH   1  16
BRANCH   5  17
ATOM     17  N   UNL     1       0.931   9.683  21.226  0.00  0.00    +0.000 N 
ATOM     18  C   UNL     1       0.805   9.779  22.689  0.00  0.00    +0.000 C 
ATOM     19  C   UNL     1      -0.658   9.806  23.125  0.00  0.00    +0.000 C 
ATOM     20  C   UNL     1      -1.362  11.143  22.903  0.00  0.00    +0.000 C 
ATOM     21  C   UNL     1      -1.333  11.643  21.461  0.00  0.00    +0.000 C 
ATOM     22  C   UNL     1       0.066  12.067  21.027  0.00  0.00    +0.000 C 
ATOM     23  C   UNL     1       0.920  10.940  20.458  0.00  0.00    +0.000 C 
ENDBRANCH   5  17
TORSDOF 2
ENDMDL
MODEL 7
REMARK VINA RESULT:      -7.0      1.129      2.189
REMARK  Name = 
REMARK  3 active torsions:
REMARK  status: ('A' for Active; 'I' for Inactive)
REMARK    1  A    between atoms: C_1  and  C_2
REMARK    2  A    between atoms: C_7  and  N_8
REMARK    3  A    between atoms: C_12  and  N_13
REMARK                            x       y       z     vdW  Elec       q    Type
REMARK                         _______ _______ _______ _____ _____    ______ ____
ROOT
ATOM      1  N   UNL     1       1.209   9.359  19.556  0.00  0.00    +0.000 N 
ATOM      2  C   UNL     1       1.192   8.433  20.591  0.00  0.00    +0.000 A 
ATOM      3  O   UNL     1       0.725   8.614  21.715  0.00  0.00    +0.000 OA
ATOM      4  C   UNL     1       1.763   7.102  20.296  0.00  0.00    +0.000 A 
ATOM      5  C   UNL     1       2.367   6.851  19.127  0.00  0.00    +0.000 A 
ATOM      6  N   UNL     1       2.393   7.860  18.212  0.00  0.00    +0.000 N 
ATOM      7  C   UNL     1       1.857   9.107  18.357  0.00  0.00    +0.000 A 
ATOM      8  O   UNL     1       2.022   9.914  17.438  0.00  0.00    +0.000 OA
ATOM      9  H   UNL     1       2.830   7.696  17.318  0.00  0.00    +0.000 HD
ENDROOT
BRANCH   1  16
ATOM     10  C   UNL     1      -1.487  10.044  18.528  0.00  0.00    +0.000 C 
ATOM     11  C   UNL     1      -0.609  11.015  19.269  0.00  0.00    +0.000 A 
ATOM     12  C   UNL     1      -1.093  12.312  19.510  0.00  0.00    +0.000 A 
ATOM     13  C   UNL     1      -0.346  13.233  20.246  0.00  0.00    +0.000 A 
ATOM     14  C   UNL     1       0.898  12.872  20.753  0.00  0.00    +0.000 A 
ATOM     15  C   UNL     1       1.394  11.588  20.527  0.00  0.00    +0.000 A 
ATOM     16  C   UNL     1       0.657  10.655  19.777  0.00  0.00    +0.000 A 
ENDBRANCH   1  16
BRANCH   5  17
ATOM     17  N   UNL     1       2.987   5.634  18.834  0.00  0.00    +0.000 N 
ATOM     18  C   UNL     1       2.459   4.751  17.782  0.00  0.00    +0.000 C 
ATOM     19  C   UNL     1       1.851   3.479  18.370  0.00  0.00    +0.000 C 
ATOM     20  C   UNL     1       2.872   2.442  18.831  0.00  0.00    +0.000 C 
ATOM     21  C   UNL     1       3.877   2.954  19.859  0.00  0.00    +0.000 C 
ATOM     22  C   UNL     1       4.854   3.959  19.259  0.00  0.00    +0.000 C 
ATOM     23  C   UNL     1       4.370   5.405  19.285  0.00  0.00    +0.000 C 
ENDBRANCH   5  17
TORSDOF 2
ENDMDL
MODEL 8
REMARK VINA RESULT:      -7.0      1.092      1.408
REMARK  Name = 
REMARK  3 active torsions:
REMARK  status: ('A' for Active; 'I' for Inactive)
REMARK    1  A    between atoms: C_1  and  C_2
REMARK    2  A    between atoms: C_7  and  N_8
REMARK    3  A    between atoms: C_12  and  N_13
REMARK                            x       y       z     vdW  Elec       q    Type
REMARK                         _______ _______ _______ _____ _____    ______ ____
ROOT
ATOM      1  N   UNL     1       1.329   9.461  19.565  0.00  0.00    +0.000 N 
ATOM      2  C   UNL     1       1.881   9.248  18.308  0.00  0.00    +0.000 A 
ATOM      3  O   UNL     1       1.902  10.057  17.381  0.00  0.00    +0.000 OA
ATOM      4  C   UNL     1       2.528   7.938  18.085  0.00  0.00    +0.000 A 
ATOM      5  C   UNL     1       2.475   6.973  19.011  0.00  0.00    +0.000 A 
ATOM      6  N   UNL     1       1.838   7.266  20.179  0.00  0.00    +0.000 N 
ATOM      7  C   UNL     1       1.251   8.453  20.513  0.00  0.00    +0.000 A 
ATOM      8  O   UNL     1       0.673   8.523  21.600  0.00  0.00    +0.000 OA
ATOM      9  H   UNL     1       1.794   6.563  20.900  0.00  0.00    +0.000 HD
ENDROOT
BRANCH   1  16
ATOM     10  C   UNL     1      -1.430  10.015  18.629  0.00  0.00    +0.000 C 
ATOM     11  C   UNL     1      -0.592  11.013  19.381  0.00  0.00    +0.000 A 
ATOM     12  C   UNL     1      -1.147  12.269  19.679  0.00  0.00    +0.000 A 
ATOM     13  C   UNL     1      -0.437  13.208  20.427  0.00  0.00    +0.000 A 
ATOM     14  C   UNL     1       0.840  12.907  20.891  0.00  0.00    +0.000 A 
ATOM     15  C   UNL     1       1.405  11.664  20.608  0.00  0.00    +0.000 A 
ATOM     16  C   UNL     1       0.706  10.713  19.845  0.00  0.00    +0.000 A 
ENDBRANCH   1  16
BRANCH   5  17
ATOM     17  N   UNL     1       3.004   5.695  18.813  0.00  0.00    +0.000 N 
ATOM     18  C   UNL     1       2.423   4.782  17.815  0.00  0.00    +0.000 C 
ATOM     19  C   UNL     1       1.715   3.604  18.480  0.00  0.00    +0.000 C 
ATOM     20  C   UNL     1       2.650   2.528  19.028  0.00  0.00    +0.000 C 
ATOM     21  C   UNL     1       3.680   3.035  20.034  0.00  0.00    +0.000 C 
ATOM     22  C   UNL     1       4.736   3.920  19.381  0.00  0.00    +0.000 C 
ATOM     23  C   UNL     1       4.362   5.396  19.300  0.00  0.00    +0.000 C 
ENDBRANCH   5  17
TORSDOF 2
ENDMDL
MODEL 9
REMARK VINA RESULT:      -6.9      2.170      6.754
REMARK  Name = 
REMARK  3 active torsions:
REMARK  status: ('A' for Active; 'I' for Inactive)
REMARK    1  A    between atoms: C_1  and  C_2
REMARK    2  A    between atoms: C_7  and  N_8
REMARK    3  A    between atoms: C_12  and  N_13
REMARK                            x       y       z     vdW  Elec       q    Type
REMARK                         _______ _______ _______ _____ _____    ______ ____
ROOT
ATOM      1  N   UNL     1       2.700   6.615  18.819  0.00  0.00    +0.000 N 
ATOM      2  C   UNL     1       2.516   7.838  18.186  0.00  0.00    +0.000 A 
ATOM      3  O   UNL     1       2.824   8.105  17.025  0.00  0.00    +0.000 OA
ATOM      4  C   UNL     1       1.860   8.899  18.978  0.00  0.00    +0.000 A 
ATOM      5  C   UNL     1       1.570   8.718  20.273  0.00  0.00    +0.000 A 
ATOM      6  N   UNL     1       1.867   7.503  20.812  0.00  0.00    +0.000 N 
ATOM      7  C   UNL     1       2.424   6.437  20.165  0.00  0.00    +0.000 A 
ATOM      8  O   UNL     1       2.670   5.427  20.828  0.00  0.00    +0.000 OA
ATOM      9  H   UNL     1       1.648   7.332  21.781  0.00  0.00    +0.000 HD
ENDROOT
BRANCH   1  16
ATOM     10  C   UNL     1       1.067   4.372  17.772  0.00  0.00    +0.000 C 
ATOM     11  C   UNL     1       2.561   4.453  17.620  0.00  0.00    +0.000 A 
ATOM     12  C   UNL     1       3.224   3.426  16.927  0.00  0.00    +0.000 A 
ATOM     13  C   UNL     1       4.600   3.483  16.702  0.00  0.00    +0.000 A 
ATOM     14  C   UNL     1       5.337   4.568  17.168  0.00  0.00    +0.000 A 
ATOM     15  C   UNL     1       4.695   5.598  17.854  0.00  0.00    +0.000 A 
ATOM     16  C   UNL     1       3.312   5.548  18.098  0.00  0.00    +0.000 A 
ENDBRANCH   1  16
BRANCH   5  17
ATOM     17  N   UNL     1       1.022   9.718  21.080  0.00  0.00    +0.000 N 
ATOM     18  C   UNL     1       0.989   9.574  22.544  0.00  0.00    +0.000 C 
ATOM     19  C   UNL     1      -0.437   9.379  23.055  0.00  0.00    +0.000 C 
ATOM     20  C   UNL     1      -1.281  10.652  23.087  0.00  0.00    +0.000 C 
ATOM     21  C   UNL     1      -1.399  11.368  21.744  0.00  0.00    +0.000 C 
ATOM     22  C   UNL     1      -0.081  11.999  21.309  0.00  0.00    +0.000 C 
ATOM     23  C   UNL     1       0.837  11.070  20.523  0.00  0.00    +0.000 C 
ENDBRANCH   5  17
TORSDOF 2
ENDMDL
