MODEL 1
REMARK VINA RESULT:      -6.9      0.000      0.000
REMARK  Name = 
REMARK  11 active torsions:
REMARK  status: ('A' for Active; 'I' for Inactive)
REMARK    1  A    between atoms: C_1  and  C_2
REMARK    2  A    between atoms: C_2  and  C_3
REMARK    3  A    between atoms: N_8  and  C_9
REMARK    4  A    between atoms: C_12  and  C_13
REMARK    5  A    between atoms: C_19  and  C_20
REMARK    6  A    between atoms: C_20  and  C_21
REMARK    7  A    between atoms: N_23  and  C_24
REMARK    8  A    between atoms: C_24  and  C_25
REMARK    9  A    between atoms: C_25  and  C_26
REMARK   10  A    between atoms: C_25  and  C_27
REMARK   11  A    between atoms: C_25  and  O_28
REMARK                            x       y       z     vdW  Elec       q    Type
REMARK                         _______ _______ _______ _____ _____    ______ ____
ROOT
ATOM      1  C   UNL     1       1.530  12.562  19.093  0.00  0.00    +0.000 C 
ATOM      2  C   UNL     1       0.684  11.330  18.666  0.00  0.00    +0.000 C 
ATOM      3  N   UNL     1       0.464  10.453  19.826  0.00  0.00    +0.000 N 
ATOM      4  C   UNL     1       0.941   9.148  19.906  0.00  0.00    +0.000 C 
ATOM      5  O   UNL     1       0.625   8.362  20.792  0.00  0.00    +0.000 OA
ATOM      6  N   UNL     1       1.882   8.820  18.940  0.00  0.00    +0.000 N 
ATOM      7  C   UNL     1      -0.188  11.158  20.977  0.00  0.00    +0.000 C 
ATOM      8  C   UNL     1       0.659  12.433  21.309  0.00  0.00    +0.000 C 
ATOM      9  N   UNL     1       0.859  13.373  20.162  0.00  0.00    +0.000 NA
ATOM     10  H   UNL     1       2.498   9.587  18.718  0.00  0.00    +0.000 HD
ENDROOT
BRANCH   6  11
ATOM     11  C   UNL     1       2.485   7.544  18.919  0.00  0.00    +0.000 A 
ATOM     12  C   UNL     1       3.294   7.131  17.861  0.00  0.00    +0.000 A 
ATOM     13  C   UNL     1       3.801   5.830  17.837  0.00  0.00    +0.000 A 
ATOM     14  C   UNL     1       3.476   4.917  18.853  0.00  0.00    +0.000 A 
ATOM     15  C   UNL     1       2.692   5.349  19.931  0.00  0.00    +0.000 A 
ATOM     16 CL   UNL     1       2.228   4.340  21.256  0.00  0.00    +0.000 Cl
ATOM     17  C   UNL     1       2.227   6.672  19.977  0.00  0.00    +0.000 A 
BRANCH  14  18
ATOM     18  C   UNL     1       4.012   3.541  18.683  0.00  0.00    +0.000 C 
ATOM     19  N   UNL     1       5.209   3.238  19.271  0.00  0.00    +0.000 N 
ATOM     20  O   UNL     1       3.386   2.690  18.079  0.00  0.00    +0.000 OA
ATOM     21  H   UNL     1       5.786   3.917  19.742  0.00  0.00    +0.000 HD
ATOM     22  H   UNL     1       5.572   2.302  19.139  0.00  0.00    +0.000 HD
ENDBRANCH  14  18
ENDBRANCH   6  11
BRANCH   1  24
ATOM     23  C   UNL     1       3.136  14.339  18.187  0.00  0.00    +0.000 C 
ATOM     24  C   UNL     1       2.056  13.318  17.861  0.00  0.00    +0.000 C 
ENDBRANCH   1  24
BRANCH   7  25
ATOM     25  C   UNL     1      -0.471  10.330  22.246  0.00  0.00    +0.000 C 
ATOM     26  C   UNL     1      -1.428  11.001  23.223  0.00  0.00    +0.000 C 
ENDBRANCH   7  25
BRANCH   9  27
ATOM     27  C   UNL     1      -0.430  13.993  19.725  0.00  0.00    +0.000 C 
BRANCH  27  28
ATOM     28  C   UNL     1      -0.543  15.563  19.700  0.00  0.00    +0.000 C 
ATOM     29  C   UNL     1      -1.759  16.058  20.490  0.00  0.00    +0.000 C 
ATOM     30  C   UNL     1       0.734  16.199  20.273  0.00  0.00    +0.000 C 
BRANCH  28  31
ATOM     31  O   UNL     1      -0.599  16.051  18.353  0.00  0.00    +0.000 OA
ATOM     32  H   UNL     1      -1.294  16.731  18.302  0.00  0.00    +0.000 HD
ENDBRANCH  28  31
ENDBRANCH  27  28
ENDBRANCH   9  27
TORSDOF 7
ENDMDL
MODEL 2
REMARK VINA RESULT:      -6.9      1.929      2.578
REMARK  Name = 
REMARK  11 active torsions:
REMARK  status: ('A' for Active; 'I' for Inactive)
REMARK    1  A    between atoms: C_1  and  C_2
REMARK    2  A    between atoms: C_2  and  C_3
REMARK    3  A    between atoms: N_8  and  C_9
REMARK    4  A    between atoms: C_12  and  C_13
REMARK    5  A    between atoms: C_19  and  C_20
REMARK    6  A    between atoms: C_20  and  C_21
REMARK    7  A    between atoms: N_23  and  C_24
REMARK    8  A    between atoms: C_24  and  C_25
REMARK    9  A    between atoms: C_25  and  C_26
REMARK   10  A    between atoms: C_25  and  C_27
REMARK   11  A    between atoms: C_25  and  O_28
REMARK                            x       y       z     vdW  Elec       q    Type
REMARK                         _______ _______ _______ _____ _____    ______ ____
ROOT
ATOM      1  C   UNL     1       1.045  12.446  20.224  0.00  0.00    +0.000 C 
ATOM      2  C   UNL     1       1.482  11.934  18.823  0.00  0.00    +0.000 C 
ATOM      3  N   UNL     1       0.549  10.895  18.361  0.00  0.00    +0.000 N 
ATOM      4  C   UNL     1       0.922   9.575  18.124  0.00  0.00    +0.000 C 
ATOM      5  O   UNL     1       0.193   8.749  17.588  0.00  0.00    +0.000 OA
ATOM      6  N   UNL     1       2.171   9.233  18.624  0.00  0.00    +0.000 N 
ATOM      7  C   UNL     1      -0.874  11.362  18.324  0.00  0.00    +0.000 C 
ATOM      8  C   UNL     1      -1.233  11.943  19.734  0.00  0.00    +0.000 C 
ATOM      9  N   UNL     1      -0.333  13.038  20.212  0.00  0.00    +0.000 NA
ATOM     10  H   UNL     1       2.377   9.683  19.503  0.00  0.00    +0.000 HD
ENDROOT
BRANCH   6  11
ATOM     11  C   UNL     1       2.668   7.918  18.495  0.00  0.00    +0.000 A 
ATOM     12  C   UNL     1       2.398   6.935  19.446  0.00  0.00    +0.000 A 
ATOM     13  C   UNL     1       2.979   5.670  19.327  0.00  0.00    +0.000 A 
ATOM     14  C   UNL     1       3.863   5.387  18.273  0.00  0.00    +0.000 A 
ATOM     15  C   UNL     1       4.101   6.368  17.302  0.00  0.00    +0.000 A 
ATOM     16 CL   UNL     1       5.152   6.152  15.945  0.00  0.00    +0.000 Cl
ATOM     17  C   UNL     1       3.475   7.620  17.398  0.00  0.00    +0.000 A 
BRANCH  14  18
ATOM     18  C   UNL     1       4.478   4.033  18.290  0.00  0.00    +0.000 C 
ATOM     19  N   UNL     1       5.518   3.807  19.149  0.00  0.00    +0.000 N 
ATOM     20  O   UNL     1       4.042   3.134  17.595  0.00  0.00    +0.000 OA
ATOM     21  H   UNL     1       5.943   4.528  19.710  0.00  0.00    +0.000 HD
ATOM     22  H   UNL     1       5.938   2.886  19.144  0.00  0.00    +0.000 HD
ENDBRANCH  14  18
ENDBRANCH   6  11
BRANCH   1  24
ATOM     23  C   UNL     1       3.076  13.965  19.871  0.00  0.00    +0.000 C 
ATOM     24  C   UNL     1       2.163  13.278  20.876  0.00  0.00    +0.000 C 
ENDBRANCH   1  24
BRANCH   7  25
ATOM     25  C   UNL     1      -1.938  10.353  17.849  0.00  0.00    +0.000 C 
ATOM     26  C   UNL     1      -2.594  10.721  16.524  0.00  0.00    +0.000 C 
ENDBRANCH   7  25
BRANCH   9  27
ATOM     27  C   UNL     1      -0.453  14.262  19.361  0.00  0.00    +0.000 C 
BRANCH  27  28
ATOM     28  C   UNL     1      -0.969  15.595  20.023  0.00  0.00    +0.000 C 
ATOM     29  C   UNL     1      -2.063  15.329  21.061  0.00  0.00    +0.000 C 
ATOM     30  C   UNL     1       0.197  16.345  20.687  0.00  0.00    +0.000 C 
BRANCH  28  31
ATOM     31  O   UNL     1      -1.446  16.509  19.026  0.00  0.00    +0.000 OA
ATOM     32  H   UNL     1      -0.938  17.336  19.102  0.00  0.00    +0.000 HD
ENDBRANCH  28  31
ENDBRANCH  27  28
ENDBRANCH   9  27
TORSDOF 7
ENDMDL
MODEL 3
REMARK VINA RESULT:      -6.9      2.804      9.549
REMARK  Name = 
REMARK  11 active torsions:
REMARK  status: ('A' for Active; 'I' for Inactive)
REMARK    1  A    between atoms: C_1  and  C_2
REMARK    2  A    between atoms: C_2  and  C_3
REMARK    3  A    between atoms: N_8  and  C_9
REMARK    4  A    between atoms: C_12  and  C_13
REMARK    5  A    between atoms: C_19  and  C_20
REMARK    6  A    between atoms: C_20  and  C_21
REMARK    7  A    between atoms: N_23  and  C_24
REMARK    8  A    between atoms: C_24  and  C_25
REMARK    9  A    between atoms: C_25  and  C_26
REMARK   10  A    between atoms: C_25  and  C_27
REMARK   11  A    between atoms: C_25  and  O_28
REMARK                            x       y       z     vdW  Elec       q    Type
REMARK                         _______ _______ _______ _____ _____    ______ ____
ROOT
ATOM      1  C   UNL     1       2.914   5.093  19.948  0.00  0.00    +0.000 C 
ATOM      2  C   UNL     1       2.012   5.661  18.818  0.00  0.00    +0.000 C 
ATOM      3  N   UNL     1       2.744   6.697  18.072  0.00  0.00    +0.000 N 
ATOM      4  C   UNL     1       2.351   8.031  18.021  0.00  0.00    +0.000 C 
ATOM      5  O   UNL     1       2.860   8.861  17.275  0.00  0.00    +0.000 OA
ATOM      6  N   UNL     1       1.383   8.381  18.951  0.00  0.00    +0.000 N 
ATOM      7  C   UNL     1       4.040   6.203  17.505  0.00  0.00    +0.000 C 
ATOM      8  C   UNL     1       4.870   5.567  18.672  0.00  0.00    +0.000 C 
ATOM      9  N   UNL     1       4.173   4.474  19.418  0.00  0.00    +0.000 NA
ATOM     10  H   UNL     1       1.498   7.905  19.833  0.00  0.00    +0.000 HD
ENDROOT
BRANCH   6  11
ATOM     11  C   UNL     1       0.915   9.710  19.045  0.00  0.00    +0.000 A 
ATOM     12  C   UNL     1       1.488  10.629  19.922  0.00  0.00    +0.000 A 
ATOM     13  C   UNL     1       0.942  11.908  20.048  0.00  0.00    +0.000 A 
ATOM     14  C   UNL     1      -0.207  12.269  19.324  0.00  0.00    +0.000 A 
ATOM     15  C   UNL     1      -0.756  11.352  18.418  0.00  0.00    +0.000 A 
ATOM     16 CL   UNL     1      -2.155  11.666  17.451  0.00  0.00    +0.000 Cl
ATOM     17  C   UNL     1      -0.172  10.086  18.257  0.00  0.00    +0.000 A 
BRANCH  14  18
ATOM     18  C   UNL     1      -0.742  13.629  19.594  0.00  0.00    +0.000 C 
ATOM     19  N   UNL     1      -0.524  14.606  18.661  0.00  0.00    +0.000 N 
ATOM     20  O   UNL     1      -1.397  13.862  20.593  0.00  0.00    +0.000 OA
ATOM     21  H   UNL     1       0.049  14.475  17.842  0.00  0.00    +0.000 HD
ATOM     22  H   UNL     1      -0.881  15.532  18.860  0.00  0.00    +0.000 HD
ENDBRANCH  14  18
ENDBRANCH   6  11
BRANCH   1  24
ATOM     23  C   UNL     1       0.657   4.009  20.485  0.00  0.00    +0.000 C 
ATOM     24  C   UNL     1       2.085   4.262  20.943  0.00  0.00    +0.000 C 
ENDBRANCH   1  24
BRANCH   7  25
ATOM     25  C   UNL     1       4.888   7.206  16.699  0.00  0.00    +0.000 C 
ATOM     26  C   UNL     1       6.356   7.243  17.104  0.00  0.00    +0.000 C 
ENDBRANCH   7  25
BRANCH   9  27
ATOM     27  C   UNL     1       3.936   3.278  18.553  0.00  0.00    +0.000 C 
BRANCH  27  28
ATOM     28  C   UNL     1       3.838   1.860  19.232  0.00  0.00    +0.000 C 
ATOM     29  C   UNL     1       4.567   1.823  20.578  0.00  0.00    +0.000 C 
ATOM     30  C   UNL     1       2.366   1.467  19.434  0.00  0.00    +0.000 C 
BRANCH  28  31
ATOM     31  O   UNL     1       4.353   0.841  18.364  0.00  0.00    +0.000 OA
ATOM     32  H   UNL     1       4.436   1.214  17.469  0.00  0.00    +0.000 HD
ENDBRANCH  28  31
ENDBRANCH  27  28
ENDBRANCH   9  27
TORSDOF 7
ENDMDL
MODEL 4
REMARK VINA RESULT:      -6.9      1.999      3.136
REMARK  Name = 
REMARK  11 active torsions:
REMARK  status: ('A' for Active; 'I' for Inactive)
REMARK    1  A    between atoms: C_1  and  C_2
REMARK    2  A    between atoms: C_2  and  C_3
REMARK    3  A    between atoms: N_8  and  C_9
REMARK    4  A    between atoms: C_12  and  C_13
REMARK    5  A    between atoms: C_19  and  C_20
REMARK    6  A    between atoms: C_20  and  C_21
REMARK    7  A    between atoms: N_23  and  C_24
REMARK    8  A    between atoms: C_24  and  C_25
REMARK    9  A    between atoms: C_25  and  C_26
REMARK   10  A    between atoms: C_25  and  C_27
REMARK   11  A    between atoms: C_25  and  O_28
REMARK                            x       y       z     vdW  Elec       q    Type
REMARK                         _______ _______ _______ _____ _____    ______ ____
ROOT
ATOM      1  C   UNL     1      -0.971  11.557  20.985  0.00  0.00    +0.000 C 
ATOM      2  C   UNL     1       0.232  11.593  20.002  0.00  0.00    +0.000 C 
ATOM      3  N   UNL     1      -0.094  10.822  18.792  0.00  0.00    +0.000 N 
ATOM      4  C   UNL     1       0.593   9.677  18.401  0.00  0.00    +0.000 C 
ATOM      5  O   UNL     1       0.435   9.127  17.317  0.00  0.00    +0.000 OA
ATOM      6  N   UNL     1       1.424   9.144  19.376  0.00  0.00    +0.000 N 
ATOM      7  C   UNL     1      -1.338  11.303  18.110  0.00  0.00    +0.000 C 
ATOM      8  C   UNL     1      -2.494  11.326  19.167  0.00  0.00    +0.000 C 
ATOM      9  N   UNL     1      -2.215  12.144  20.388  0.00  0.00    +0.000 NA
ATOM     10  H   UNL     1       1.041   9.230  20.305  0.00  0.00    +0.000 HD
ENDROOT
BRANCH   6  11
ATOM     11  C   UNL     1       2.155   7.960  19.138  0.00  0.00    +0.000 A 
ATOM     12  C   UNL     1       2.961   7.809  18.011  0.00  0.00    +0.000 A 
ATOM     13  C   UNL     1       3.600   6.591  17.767  0.00  0.00    +0.000 A 
ATOM     14  C   UNL     1       3.409   5.500  18.629  0.00  0.00    +0.000 A 
ATOM     15  C   UNL     1       2.626   5.669  19.779  0.00  0.00    +0.000 A 
ATOM     16 CL   UNL     1       2.320   4.418  20.934  0.00  0.00    +0.000 Cl
ATOM     17  C   UNL     1       2.029   6.910  20.047  0.00  0.00    +0.000 A 
BRANCH  14  18
ATOM     18  C   UNL     1       4.078   4.234  18.229  0.00  0.00    +0.000 C 
ATOM     19  N   UNL     1       5.259   3.907  18.838  0.00  0.00    +0.000 N 
ATOM     20  O   UNL     1       3.572   3.482  17.417  0.00  0.00    +0.000 OA
ATOM     21  H   UNL     1       5.741   4.516  19.481  0.00  0.00    +0.000 HD
ATOM     22  H   UNL     1       5.714   3.050  18.549  0.00  0.00    +0.000 HD
ENDBRANCH  14  18
ENDBRANCH   6  11
BRANCH   1  24
ATOM     23  C   UNL     1      -1.654  11.948  23.422  0.00  0.00    +0.000 C 
ATOM     24  C   UNL     1      -0.553  12.061  22.378  0.00  0.00    +0.000 C 
ENDBRANCH   1  24
BRANCH   7  25
ATOM     25  C   UNL     1      -1.770  10.569  16.825  0.00  0.00    +0.000 C 
ATOM     26  C   UNL     1      -3.070   9.787  16.966  0.00  0.00    +0.000 C 
ENDBRANCH   7  25
BRANCH   9  27
ATOM     27  C   UNL     1      -2.097  13.599  20.063  0.00  0.00    +0.000 C 
BRANCH  27  28
ATOM     28  C   UNL     1      -2.947  14.631  20.896  0.00  0.00    +0.000 C 
ATOM     29  C   UNL     1      -4.118  13.955  21.614  0.00  0.00    +0.000 C 
ATOM     30  C   UNL     1      -2.057  15.345  21.926  0.00  0.00    +0.000 C 
BRANCH  28  31
ATOM     31  O   UNL     1      -3.428  15.691  20.059  0.00  0.00    +0.000 OA
ATOM     32  H   UNL     1      -3.175  16.539  20.464  0.00  0.00    +0.000 HD
ENDBRANCH  28  31
ENDBRANCH  27  28
ENDBRANCH   9  27
TORSDOF 7
ENDMDL
MODEL 5
REMARK VINA RESULT:      -6.9      3.551      8.904
REMARK  Name = 
REMARK  11 active torsions:
REMARK  status: ('A' for Active; 'I' for Inactive)
REMARK    1  A    between atoms: C_1  and  C_2
REMARK    2  A    between atoms: C_2  and  C_3
REMARK    3  A    between atoms: N_8  and  C_9
REMARK    4  A    between atoms: C_12  and  C_13
REMARK    5  A    between atoms: C_19  and  C_20
REMARK    6  A    between atoms: C_20  and  C_21
REMARK    7  A    between atoms: N_23  and  C_24
REMARK    8  A    between atoms: C_24  and  C_25
REMARK    9  A    between atoms: C_25  and  C_26
REMARK   10  A    between atoms: C_25  and  C_27
REMARK   11  A    between atoms: C_25  and  O_28
REMARK                            x       y       z     vdW  Elec       q    Type
REMARK                         _______ _______ _______ _____ _____    ______ ____
ROOT
ATOM      1  C   UNL     1       3.668   6.377  17.414  0.00  0.00    +0.000 C 
ATOM      2  C   UNL     1       3.831   6.513  18.953  0.00  0.00    +0.000 C 
ATOM      3  N   UNL     1       2.636   5.982  19.627  0.00  0.00    +0.000 N 
ATOM      4  C   UNL     1       1.785   6.758  20.409  0.00  0.00    +0.000 C 
ATOM      5  O   UNL     1       0.886   6.294  21.101  0.00  0.00    +0.000 OA
ATOM      6  N   UNL     1       1.976   8.127  20.282  0.00  0.00    +0.000 N 
ATOM      7  C   UNL     1       2.339   4.561  19.259  0.00  0.00    +0.000 C 
ATOM      8  C   UNL     1       2.269   4.467  17.696  0.00  0.00    +0.000 C 
ATOM      9  N   UNL     1       3.491   4.952  16.981  0.00  0.00    +0.000 NA
ATOM     10  H   UNL     1       2.215   8.402  19.342  0.00  0.00    +0.000 HD
ENDROOT
BRANCH   6  11
ATOM     11  C   UNL     1       1.161   9.041  20.983  0.00  0.00    +0.000 A 
ATOM     12  C   UNL     1       1.070   9.026  22.375  0.00  0.00    +0.000 A 
ATOM     13  C   UNL     1       0.186   9.889  23.026  0.00  0.00    +0.000 A 
ATOM     14  C   UNL     1      -0.642  10.752  22.290  0.00  0.00    +0.000 A 
ATOM     15  C   UNL     1      -0.520  10.787  20.895  0.00  0.00    +0.000 A 
ATOM     16 CL   UNL     1      -1.462  11.810  19.866  0.00  0.00    +0.000 Cl
ATOM     17  C   UNL     1       0.407   9.955  20.249  0.00  0.00    +0.000 A 
BRANCH  14  18
ATOM     18  C   UNL     1      -1.594  11.571  23.086  0.00  0.00    +0.000 C 
ATOM     19  N   UNL     1      -1.310  12.896  23.268  0.00  0.00    +0.000 N 
ATOM     20  O   UNL     1      -2.622  11.092  23.526  0.00  0.00    +0.000 OA
ATOM     21  H   UNL     1      -0.452  13.329  22.963  0.00  0.00    +0.000 HD
ATOM     22  H   UNL     1      -1.958  13.443  23.822  0.00  0.00    +0.000 HD
ENDBRANCH  14  18
ENDBRANCH   6  11
BRANCH   1  24
ATOM     23  C   UNL     1       6.018   7.391  17.464  0.00  0.00    +0.000 C 
ATOM     24  C   UNL     1       4.730   7.210  16.676  0.00  0.00    +0.000 C 
ENDBRANCH   1  24
BRANCH   7  25
ATOM     25  C   UNL     1       1.109   3.902  19.913  0.00  0.00    +0.000 C 
ATOM     26  C   UNL     1       1.451   2.903  21.011  0.00  0.00    +0.000 C 
ENDBRANCH   7  25
BRANCH   9  27
ATOM     27  C   UNL     1       4.676   4.086  17.265  0.00  0.00    +0.000 C 
BRANCH  27  28
ATOM     28  C   UNL     1       5.714   3.822  16.110  0.00  0.00    +0.000 C 
ATOM     29  C   UNL     1       5.333   4.561  14.824  0.00  0.00    +0.000 C 
ATOM     30  C   UNL     1       7.122   4.251  16.551  0.00  0.00    +0.000 C 
BRANCH  28  31
ATOM     31  O   UNL     1       5.844   2.417  15.851  0.00  0.00    +0.000 OA
ATOM     32  H   UNL     1       6.767   2.238  15.597  0.00  0.00    +0.000 HD
ENDBRANCH  28  31
ENDBRANCH  27  28
ENDBRANCH   9  27
TORSDOF 7
ENDMDL
MODEL 6
REMARK VINA RESULT:      -6.8      1.183      1.493
REMARK  Name = 
REMARK  11 active torsions:
REMARK  status: ('A' for Active; 'I' for Inactive)
REMARK    1  A    between atoms: C_1  and  C_2
REMARK    2  A    between atoms: C_2  and  C_3
REMARK    3  A    between atoms: N_8  and  C_9
REMARK    4  A    between atoms: C_12  and  C_13
REMARK    5  A    between atoms: C_19  and  C_20
REMARK    6  A    between atoms: C_20  and  C_21
REMARK    7  A    between atoms: N_23  and  C_24
REMARK    8  A    between atoms: C_24  and  C_25
REMARK    9  A    between atoms: C_25  and  C_26
REMARK   10  A    between atoms: C_25  and  C_27
REMARK   11  A    between atoms: C_25  and  O_28
REMARK                            x       y       z     vdW  Elec       q    Type
REMARK                         _______ _______ _______ _____ _____    ______ ____
ROOT
ATOM      1  C   UNL     1       1.607  12.698  19.138  0.00  0.00    +0.000 C 
ATOM      2  C   UNL     1       0.741  11.499  18.663  0.00  0.00    +0.000 C 
ATOM      3  N   UNL     1       0.486  10.593  19.794  0.00  0.00    +0.000 N 
ATOM      4  C   UNL     1       0.933   9.276  19.841  0.00  0.00    +0.000 C 
ATOM      5  O   UNL     1       0.588   8.471  20.699  0.00  0.00    +0.000 OA
ATOM      6  N   UNL     1       1.880   8.956  18.877  0.00  0.00    +0.000 N 
ATOM      7  C   UNL     1      -0.166  11.278  20.956  0.00  0.00    +0.000 C 
ATOM      8  C   UNL     1       0.704  12.524  21.337  0.00  0.00    +0.000 C 
ATOM      9  N   UNL     1       0.940  13.492  20.222  0.00  0.00    +0.000 NA
ATOM     10  H   UNL     1       2.515   9.715  18.687  0.00  0.00    +0.000 HD
ENDROOT
BRANCH   6  11
ATOM     11  C   UNL     1       2.455   7.668  18.826  0.00  0.00    +0.000 A 
ATOM     12  C   UNL     1       2.296   6.752  19.865  0.00  0.00    +0.000 A 
ATOM     13  C   UNL     1       2.952   5.519  19.816  0.00  0.00    +0.000 A 
ATOM     14  C   UNL     1       3.802   5.206  18.743  0.00  0.00    +0.000 A 
ATOM     15  C   UNL     1       3.928   6.116  17.686  0.00  0.00    +0.000 A 
ATOM     16 CL   UNL     1       4.925   5.854  16.297  0.00  0.00    +0.000 Cl
ATOM     17  C   UNL     1       3.227   7.330  17.716  0.00  0.00    +0.000 A 
BRANCH  14  18
ATOM     18  C   UNL     1       4.504   3.898  18.834  0.00  0.00    +0.000 C 
ATOM     19  N   UNL     1       5.849   3.903  19.082  0.00  0.00    +0.000 N 
ATOM     20  O   UNL     1       3.896   2.848  18.738  0.00  0.00    +0.000 OA
ATOM     21  H   UNL     1       6.404   4.744  19.125  0.00  0.00    +0.000 HD
ATOM     22  H   UNL     1       6.320   3.008  19.130  0.00  0.00    +0.000 HD
ENDBRANCH  14  18
ENDBRANCH   6  11
BRANCH   1  24
ATOM     23  C   UNL     1       3.402  14.302  18.265  0.00  0.00    +0.000 C 
ATOM     24  C   UNL     1       2.166  13.479  17.936  0.00  0.00    +0.000 C 
ENDBRANCH   1  24
BRANCH   7  25
ATOM     25  C   UNL     1      -0.484  10.419  22.196  0.00  0.00    +0.000 C 
ATOM     26  C   UNL     1      -1.429  11.087  23.187  0.00  0.00    +0.000 C 
ENDBRANCH   7  25
BRANCH   9  27
ATOM     27  C   UNL     1      -0.329  14.153  19.787  0.00  0.00    +0.000 C 
BRANCH  27  28
ATOM     28  C   UNL     1      -0.500  15.699  20.037  0.00  0.00    +0.000 C 
ATOM     29  C   UNL     1      -1.222  15.985  21.357  0.00  0.00    +0.000 C 
ATOM     30  C   UNL     1       0.871  16.393  20.041  0.00  0.00    +0.000 C 
BRANCH  28  31
ATOM     31  O   UNL     1      -1.199  16.318  18.948  0.00  0.00    +0.000 OA
ATOM     32  H   UNL     1      -2.051  15.861  18.832  0.00  0.00    +0.000 HD
ENDBRANCH  28  31
ENDBRANCH  27  28
ENDBRANCH   9  27
TORSDOF 7
ENDMDL
MODEL 7
REMARK VINA RESULT:      -6.8      2.372      3.519
REMARK  Name = 
REMARK  11 active torsions:
REMARK  status: ('A' for Active; 'I' for Inactive)
REMARK    1  A    between atoms: C_1  and  C_2
REMARK    2  A    between atoms: C_2  and  C_3
REMARK    3  A    between atoms: N_8  and  C_9
REMARK    4  A    between atoms: C_12  and  C_13
REMARK    5  A    between atoms: C_19  and  C_20
REMARK    6  A    between atoms: C_20  and  C_21
REMARK    7  A    between atoms: N_23  and  C_24
REMARK    8  A    between atoms: C_24  and  C_25
REMARK    9  A    between atoms: C_25  and  C_26
REMARK   10  A    between atoms: C_25  and  C_27
REMARK   11  A    between atoms: C_25  and  O_28
REMARK                            x       y       z     vdW  Elec       q    Type
REMARK                         _______ _______ _______ _____ _____    ______ ____
ROOT
ATOM      1  C   UNL     1      -0.900  11.337  20.972  0.00  0.00    +0.000 C 
ATOM      2  C   UNL     1       0.307  11.377  19.994  0.00  0.00    +0.000 C 
ATOM      3  N   UNL     1      -0.016  10.617  18.776  0.00  0.00    +0.000 N 
ATOM      4  C   UNL     1       0.670   9.473  18.379  0.00  0.00    +0.000 C 
ATOM      5  O   UNL     1       0.515   8.932  17.290  0.00  0.00    +0.000 OA
ATOM      6  N   UNL     1       1.496   8.931  19.353  0.00  0.00    +0.000 N 
ATOM      7  C   UNL     1      -1.257  11.106  18.093  0.00  0.00    +0.000 C 
ATOM      8  C   UNL     1      -2.417  11.123  19.146  0.00  0.00    +0.000 C 
ATOM      9  N   UNL     1      -2.141  11.931  20.374  0.00  0.00    +0.000 NA
ATOM     10  H   UNL     1       1.110   9.010  20.281  0.00  0.00    +0.000 HD
ENDROOT
BRANCH   6  11
ATOM     11  C   UNL     1       2.225   7.747  19.109  0.00  0.00    +0.000 A 
ATOM     12  C   UNL     1       2.165   6.656  19.975  0.00  0.00    +0.000 A 
ATOM     13  C   UNL     1       2.967   5.536  19.743  0.00  0.00    +0.000 A 
ATOM     14  C   UNL     1       3.865   5.512  18.663  0.00  0.00    +0.000 A 
ATOM     15  C   UNL     1       3.894   6.596  17.777  0.00  0.00    +0.000 A 
ATOM     16 CL   UNL     1       4.935   6.693  16.400  0.00  0.00    +0.000 Cl
ATOM     17  C   UNL     1       3.049   7.697  17.985  0.00  0.00    +0.000 A 
BRANCH  14  18
ATOM     18  C   UNL     1       4.720   4.300  18.560  0.00  0.00    +0.000 C 
ATOM     19  N   UNL     1       4.217   3.208  17.907  0.00  0.00    +0.000 N 
ATOM     20  O   UNL     1       5.854   4.289  19.001  0.00  0.00    +0.000 OA
ATOM     21  H   UNL     1       3.270   3.152  17.565  0.00  0.00    +0.000 HD
ATOM     22  H   UNL     1       4.802   2.384  17.853  0.00  0.00    +0.000 HD
ENDBRANCH  14  18
ENDBRANCH   6  11
BRANCH   1  24
ATOM     23  C   UNL     1      -1.584  11.688  23.414  0.00  0.00    +0.000 C 
ATOM     24  C   UNL     1      -0.487  11.828  22.370  0.00  0.00    +0.000 C 
ENDBRANCH   1  24
BRANCH   7  25
ATOM     25  C   UNL     1      -1.685  10.382  16.801  0.00  0.00    +0.000 C 
ATOM     26  C   UNL     1      -3.117   9.861  16.829  0.00  0.00    +0.000 C 
ENDBRANCH   7  25
BRANCH   9  27
ATOM     27  C   UNL     1      -2.019  13.388  20.062  0.00  0.00    +0.000 C 
BRANCH  27  28
ATOM     28  C   UNL     1      -2.835  14.418  20.929  0.00  0.00    +0.000 C 
ATOM     29  C   UNL     1      -3.986  13.743  21.680  0.00  0.00    +0.000 C 
ATOM     30  C   UNL     1      -1.908  15.120  21.934  0.00  0.00    +0.000 C 
BRANCH  28  31
ATOM     31  O   UNL     1      -3.337  15.487  20.115  0.00  0.00    +0.000 OA
ATOM     32  H   UNL     1      -3.467  15.148  19.212  0.00  0.00    +0.000 HD
ENDBRANCH  28  31
ENDBRANCH  27  28
ENDBRANCH   9  27
TORSDOF 7
ENDMDL
MODEL 8
REMARK VINA RESULT:      -6.7      1.695      2.246
REMARK  Name = 
REMARK  11 active torsions:
REMARK  status: ('A' for Active; 'I' for Inactive)
REMARK    1  A    between atoms: C_1  and  C_2
REMARK    2  A    between atoms: C_2  and  C_3
REMARK    3  A    between atoms: N_8  and  C_9
REMARK    4  A    between atoms: C_12  and  C_13
REMARK    5  A    between atoms: C_19  and  C_20
REMARK    6  A    between atoms: C_20  and  C_21
REMARK    7  A    between atoms: N_23  and  C_24
REMARK    8  A    between atoms: C_24  and  C_25
REMARK    9  A    between atoms: C_25  and  C_26
REMARK   10  A    between atoms: C_25  and  C_27
REMARK   11  A    between atoms: C_25  and  O_28
REMARK                            x       y       z     vdW  Elec       q    Type
REMARK                         _______ _______ _______ _____ _____    ______ ____
ROOT
ATOM      1  C   UNL     1       1.176  12.844  20.062  0.00  0.00    +0.000 C 
ATOM      2  C   UNL     1       1.538  12.204  18.693  0.00  0.00    +0.000 C 
ATOM      3  N   UNL     1       0.536  11.185  18.341  0.00  0.00    +0.000 N 
ATOM      4  C   UNL     1       0.833   9.833  18.197  0.00  0.00    +0.000 C 
ATOM      5  O   UNL     1       0.044   9.009  17.748  0.00  0.00    +0.000 OA
ATOM      6  N   UNL     1       2.079   9.462  18.683  0.00  0.00    +0.000 N 
ATOM      7  C   UNL     1      -0.861  11.724  18.311  0.00  0.00    +0.000 C 
ATOM      8  C   UNL     1      -1.141  12.429  19.682  0.00  0.00    +0.000 C 
ATOM      9  N   UNL     1      -0.170  13.507  20.045  0.00  0.00    +0.000 NA
ATOM     10  H   UNL     1       2.338   9.966  19.518  0.00  0.00    +0.000 HD
ENDROOT
BRANCH   6  11
ATOM     11  C   UNL     1       2.502   8.117  18.642  0.00  0.00    +0.000 A 
ATOM     12  C   UNL     1       3.273   7.622  17.591  0.00  0.00    +0.000 A 
ATOM     13  C   UNL     1       3.599   6.265  17.543  0.00  0.00    +0.000 A 
ATOM     14  C   UNL     1       3.127   5.381  18.528  0.00  0.00    +0.000 A 
ATOM     15  C   UNL     1       2.383   5.892  19.599  0.00  0.00    +0.000 A 
ATOM     16 CL   UNL     1       1.753   4.925  20.888  0.00  0.00    +0.000 Cl
ATOM     17  C   UNL     1       2.102   7.264  19.670  0.00  0.00    +0.000 A 
BRANCH  14  18
ATOM     18  C   UNL     1       3.474   3.949  18.333  0.00  0.00    +0.000 C 
ATOM     19  N   UNL     1       2.649   3.184  17.555  0.00  0.00    +0.000 N 
ATOM     20  O   UNL     1       4.488   3.476  18.812  0.00  0.00    +0.000 OA
ATOM     21  H   UNL     1       1.777   3.517  17.175  0.00  0.00    +0.000 HD
ATOM     22  H   UNL     1       2.887   2.207  17.439  0.00  0.00    +0.000 HD
ENDBRANCH  14  18
ENDBRANCH   6  11
BRANCH   1  24
ATOM     23  C   UNL     1       3.275  14.211  19.531  0.00  0.00    +0.000 C 
ATOM     24  C   UNL     1       2.357  13.662  20.613  0.00  0.00    +0.000 C 
ENDBRANCH   1  24
BRANCH   7  25
ATOM     25  C   UNL     1      -1.992  10.741  17.948  0.00  0.00    +0.000 C 
ATOM     26  C   UNL     1      -2.601  10.978  16.572  0.00  0.00    +0.000 C 
ENDBRANCH   7  25
BRANCH   9  27
ATOM     27  C   UNL     1      -0.256  14.668  19.106  0.00  0.00    +0.000 C 
BRANCH  27  28
ATOM     28  C   UNL     1      -0.826  16.034  19.642  0.00  0.00    +0.000 C 
ATOM     29  C   UNL     1      -0.095  16.500  20.904  0.00  0.00    +0.000 C 
ATOM     30  C   UNL     1      -0.719  17.118  18.557  0.00  0.00    +0.000 C 
BRANCH  28  31
ATOM     31  O   UNL     1      -2.235  15.936  19.896  0.00  0.00    +0.000 OA
ATOM     32  H   UNL     1      -2.659  16.753  19.581  0.00  0.00    +0.000 HD
ENDBRANCH  28  31
ENDBRANCH  27  28
ENDBRANCH   9  27
TORSDOF 7
ENDMDL
MODEL 9
REMARK VINA RESULT:      -6.6      2.110      3.325
REMARK  Name = 
REMARK  11 active torsions:
REMARK  status: ('A' for Active; 'I' for Inactive)
REMARK    1  A    between atoms: C_1  and  C_2
REMARK    2  A    between atoms: C_2  and  C_3
REMARK    3  A    between atoms: N_8  and  C_9
REMARK    4  A    between atoms: C_12  and  C_13
REMARK    5  A    between atoms: C_19  and  C_20
REMARK    6  A    between atoms: C_20  and  C_21
REMARK    7  A    between atoms: N_23  and  C_24
REMARK    8  A    between atoms: C_24  and  C_25
REMARK    9  A    between atoms: C_25  and  C_26
REMARK   10  A    between atoms: C_25  and  C_27
REMARK   11  A    between atoms: C_25  and  O_28
REMARK                            x       y       z     vdW  Elec       q    Type
REMARK                         _______ _______ _______ _____ _____    ______ ____
ROOT
ATOM      1  C   UNL     1      -0.537  10.165  21.760  0.00  0.00    +0.000 C 
ATOM      2  C   UNL     1       0.918  10.079  21.222  0.00  0.00    +0.000 C 
ATOM      3  N   UNL     1       0.904   9.612  19.827  0.00  0.00    +0.000 N 
ATOM      4  C   UNL     1       1.484   8.417  19.409  0.00  0.00    +0.000 C 
ATOM      5  O   UNL     1       1.618   8.102  18.233  0.00  0.00    +0.000 OA
ATOM      6  N   UNL     1       1.830   7.555  20.441  0.00  0.00    +0.000 N 
ATOM      7  C   UNL     1       0.067  10.472  18.930  0.00  0.00    +0.000 C 
ATOM      8  C   UNL     1      -1.361  10.591  19.564  0.00  0.00    +0.000 C 
ATOM      9  N   UNL     1      -1.385  11.113  20.966  0.00  0.00    +0.000 NA
ATOM     10  H   UNL     1       1.172   7.576  21.205  0.00  0.00    +0.000 HD
ENDROOT
BRANCH   6  11
ATOM     11  C   UNL     1       2.391   6.289  20.170  0.00  0.00    +0.000 A 
ATOM     12  C   UNL     1       3.486   6.138  19.320  0.00  0.00    +0.000 A 
ATOM     13  C   UNL     1       3.957   4.861  19.009  0.00  0.00    +0.000 A 
ATOM     14  C   UNL     1       3.316   3.719  19.517  0.00  0.00    +0.000 A 
ATOM     15  C   UNL     1       2.239   3.880  20.398  0.00  0.00    +0.000 A 
ATOM     16 CL   UNL     1       1.368   2.566  21.111  0.00  0.00    +0.000 Cl
ATOM     17  C   UNL     1       1.802   5.166  20.749  0.00  0.00    +0.000 A 
BRANCH  14  18
ATOM     18  C   UNL     1       3.859   2.414  19.059  0.00  0.00    +0.000 C 
ATOM     19  N   UNL     1       4.925   1.885  19.735  0.00  0.00    +0.000 N 
ATOM     20  O   UNL     1       3.346   1.805  18.139  0.00  0.00    +0.000 OA
ATOM     21  H   UNL     1       5.413   2.370  20.471  0.00  0.00    +0.000 HD
ATOM     22  H   UNL     1       5.296   1.002  19.407  0.00  0.00    +0.000 HD
ENDBRANCH  14  18
ENDBRANCH   6  11
BRANCH   1  24
ATOM     23  C   UNL     1       0.357   9.335  24.012  0.00  0.00    +0.000 C 
ATOM     24  C   UNL     1      -0.545  10.326  23.290  0.00  0.00    +0.000 C 
ENDBRANCH   1  24
BRANCH   7  25
ATOM     25  C   UNL     1      -0.014  10.076  17.442  0.00  0.00    +0.000 C 
ATOM     26  C   UNL     1      -1.427   9.781  16.956  0.00  0.00    +0.000 C 
ENDBRANCH   7  25
BRANCH   9  27
ATOM     27  C   UNL     1      -0.924  12.534  21.035  0.00  0.00    +0.000 C 
BRANCH  27  28
ATOM     28  C   UNL     1      -1.990  13.663  21.298  0.00  0.00    +0.000 C 
ATOM     29  C   UNL     1      -3.155  13.157  22.153  0.00  0.00    +0.000 C 
ATOM     30  C   UNL     1      -1.330  14.866  21.991  0.00  0.00    +0.000 C 
BRANCH  28  31
ATOM     31  O   UNL     1      -2.481  14.201  20.063  0.00  0.00    +0.000 OA
ATOM     32  H   UNL     1      -2.149  13.647  19.335  0.00  0.00    +0.000 HD
ENDBRANCH  28  31
ENDBRANCH  27  28
ENDBRANCH   9  27
TORSDOF 7
ENDMDL
