MODEL 1
REMARK VINA RESULT:      -5.9      0.000      0.000
REMARK  Name = 
REMARK  4 active torsions:
REMARK  status: ('A' for Active; 'I' for Inactive)
REMARK    1  A    between atoms: N_1  and  C_2
REMARK    2  A    between atoms: C_2  and  C_3
REMARK    3  A    between atoms: C_4  and  C_5
REMARK    4  A    between atoms: C_5  and  N_6
REMARK                            x       y       z     vdW  Elec       q    Type
REMARK                         _______ _______ _______ _____ _____    ______ ____
ROOT
ATOM      1  N   UNL     1       4.366   5.023  18.087  0.00  0.00    +0.000 N 
ATOM      2  C   UNL     1       4.633   5.716  16.934  0.00  0.00    +0.000 A 
ATOM      3  C   UNL     1       5.847   5.581  16.273  0.00  0.00    +0.000 A 
ATOM      4  C   UNL     1       6.801   4.719  16.791  0.00  0.00    +0.000 A 
ATOM      5  O   UNL     1       7.870   4.579  16.222  0.00  0.00    +0.000 OA
ATOM      6  N   UNL     1       6.538   4.027  17.943  0.00  0.00    +0.000 N 
ATOM      7  C   UNL     1       5.333   4.169  18.594  0.00  0.00    +0.000 A 
ATOM      8  O   UNL     1       5.130   3.528  19.612  0.00  0.00    +0.000 OA
ATOM      9  H   UNL     1       7.255   3.372  18.328  0.00  0.00    +0.000 HD
ENDROOT
BRANCH   1  10
ATOM     10  C   UNL     1       3.050   5.170  18.747  0.00  0.00    +0.000 C 
BRANCH  10  12
ATOM     11  C   UNL     1       1.437   3.333  18.050  0.00  0.00    +0.000 C 
ATOM     12  C   UNL     1       1.929   4.582  17.918  0.00  0.00    +0.000 C 
BRANCH  11  13
ATOM     13  C   UNL     1       1.932   2.295  19.035  0.00  0.00    +0.000 C 
BRANCH  13  14
ATOM     14  N   UNL     1       2.964   1.469  18.427  0.00  0.00    +0.000 NA
ATOM     15  H   UNL     1       2.613   1.168  17.487  0.00  0.00    +0.000 HD
ATOM     16  H   UNL     1       3.818   2.051  18.268  0.00  0.00    +0.000 HD
ENDBRANCH  13  14
ENDBRANCH  11  13
ENDBRANCH  10  12
ENDBRANCH   1  10
TORSDOF 4
ENDMDL
MODEL 2
REMARK VINA RESULT:      -5.8      1.886      2.207
REMARK  Name = 
REMARK  4 active torsions:
REMARK  status: ('A' for Active; 'I' for Inactive)
REMARK    1  A    between atoms: N_1  and  C_2
REMARK    2  A    between atoms: C_2  and  C_3
REMARK    3  A    between atoms: C_4  and  C_5
REMARK    4  A    between atoms: C_5  and  N_6
REMARK                            x       y       z     vdW  Elec       q    Type
REMARK                         _______ _______ _______ _____ _____    ______ ____
ROOT
ATOM      1  N   UNL     1       3.614   3.015  18.263  0.00  0.00    +0.000 N 
ATOM      2  C   UNL     1       3.688   3.746  17.105  0.00  0.00    +0.000 A 
ATOM      3  C   UNL     1       4.803   4.521  16.810  0.00  0.00    +0.000 A 
ATOM      4  C   UNL     1       5.861   4.544  17.704  0.00  0.00    +0.000 A 
ATOM      5  O   UNL     1       6.852   5.211  17.460  0.00  0.00    +0.000 OA
ATOM      6  N   UNL     1       5.789   3.817  18.862  0.00  0.00    +0.000 N 
ATOM      7  C   UNL     1       4.679   3.054  19.149  0.00  0.00    +0.000 A 
ATOM      8  O   UNL     1       4.654   2.410  20.185  0.00  0.00    +0.000 OA
ATOM      9  H   UNL     1       6.590   3.829  19.531  0.00  0.00    +0.000 HD
ENDROOT
BRANCH   1  10
ATOM     10  C   UNL     1       2.424   2.178  18.530  0.00  0.00    +0.000 C 
BRANCH  10  12
ATOM     11  C   UNL     1       0.756   3.207  20.148  0.00  0.00    +0.000 C 
ATOM     12  C   UNL     1       1.214   3.008  18.894  0.00  0.00    +0.000 C 
BRANCH  11  13
ATOM     13  C   UNL     1       1.360   2.619  21.405  0.00  0.00    +0.000 C 
BRANCH  13  14
ATOM     14  N   UNL     1       2.343   3.532  21.971  0.00  0.00    +0.000 NA
ATOM     15  H   UNL     1       1.818   4.287  22.473  0.00  0.00    +0.000 HD
ATOM     16  H   UNL     1       2.913   3.023  22.683  0.00  0.00    +0.000 HD
ENDBRANCH  13  14
ENDBRANCH  11  13
ENDBRANCH  10  12
ENDBRANCH   1  10
TORSDOF 4
ENDMDL
MODEL 3
REMARK VINA RESULT:      -5.7      2.063      4.941
REMARK  Name = 
REMARK  4 active torsions:
REMARK  status: ('A' for Active; 'I' for Inactive)
REMARK    1  A    between atoms: N_1  and  C_2
REMARK    2  A    between atoms: C_2  and  C_3
REMARK    3  A    between atoms: C_4  and  C_5
REMARK    4  A    between atoms: C_5  and  N_6
REMARK                            x       y       z     vdW  Elec       q    Type
REMARK                         _______ _______ _______ _____ _____    ______ ____
ROOT
ATOM      1  N   UNL     1       3.000   3.086  18.794  0.00  0.00    +0.000 N 
ATOM      2  C   UNL     1       1.643   3.206  18.944  0.00  0.00    +0.000 A 
ATOM      3  C   UNL     1       1.030   3.008  20.175  0.00  0.00    +0.000 A 
ATOM      4  C   UNL     1       1.815   2.691  21.272  0.00  0.00    +0.000 A 
ATOM      5  O   UNL     1       1.298   2.521  22.363  0.00  0.00    +0.000 OA
ATOM      6  N   UNL     1       3.171   2.567  21.125  0.00  0.00    +0.000 N 
ATOM      7  C   UNL     1       3.770   2.762  19.900  0.00  0.00    +0.000 A 
ATOM      8  O   UNL     1       4.982   2.654  19.809  0.00  0.00    +0.000 OA
ATOM      9  H   UNL     1       3.762   2.336  21.954  0.00  0.00    +0.000 HD
ENDROOT
BRANCH   1  10
ATOM     10  C   UNL     1       3.620   3.333  17.473  0.00  0.00    +0.000 C 
BRANCH  10  12
ATOM     11  C   UNL     1       5.129   5.316  16.971  0.00  0.00    +0.000 C 
ATOM     12  C   UNL     1       3.913   4.800  17.248  0.00  0.00    +0.000 C 
BRANCH  11  13
ATOM     13  C   UNL     1       6.413   4.524  16.857  0.00  0.00    +0.000 C 
BRANCH  13  14
ATOM     14  N   UNL     1       6.969   4.265  18.176  0.00  0.00    +0.000 NA
ATOM     15  H   UNL     1       6.260   4.575  18.883  0.00  0.00    +0.000 HD
ATOM     16  H   UNL     1       7.100   3.236  18.298  0.00  0.00    +0.000 HD
ENDBRANCH  13  14
ENDBRANCH  11  13
ENDBRANCH  10  12
ENDBRANCH   1  10
TORSDOF 4
ENDMDL
MODEL 4
REMARK VINA RESULT:      -5.7      1.021      1.021
REMARK  Name = 
REMARK  4 active torsions:
REMARK  status: ('A' for Active; 'I' for Inactive)
REMARK    1  A    between atoms: N_1  and  C_2
REMARK    2  A    between atoms: C_2  and  C_3
REMARK    3  A    between atoms: C_4  and  C_5
REMARK    4  A    between atoms: C_5  and  N_6
REMARK                            x       y       z     vdW  Elec       q    Type
REMARK                         _______ _______ _______ _____ _____    ______ ____
ROOT
ATOM      1  N   UNL     1       4.389   5.034  18.103  0.00  0.00    +0.000 N 
ATOM      2  C   UNL     1       4.666   5.733  16.957  0.00  0.00    +0.000 A 
ATOM      3  C   UNL     1       5.879   5.586  16.294  0.00  0.00    +0.000 A 
ATOM      4  C   UNL     1       6.819   4.705  16.805  0.00  0.00    +0.000 A 
ATOM      5  O   UNL     1       7.886   4.554  16.234  0.00  0.00    +0.000 OA
ATOM      6  N   UNL     1       6.546   4.007  17.951  0.00  0.00    +0.000 N 
ATOM      7  C   UNL     1       5.343   4.162  18.602  0.00  0.00    +0.000 A 
ATOM      8  O   UNL     1       5.130   3.515  19.615  0.00  0.00    +0.000 OA
ATOM      9  H   UNL     1       7.253   3.338  18.329  0.00  0.00    +0.000 HD
ENDROOT
BRANCH   1  10
ATOM     10  C   UNL     1       3.075   5.195  18.764  0.00  0.00    +0.000 C 
BRANCH  10  12
ATOM     11  C   UNL     1       1.298   3.425  18.355  0.00  0.00    +0.000 C 
ATOM     12  C   UNL     1       1.960   4.540  17.980  0.00  0.00    +0.000 C 
BRANCH  11  13
ATOM     13  C   UNL     1       1.566   2.626  19.612  0.00  0.00    +0.000 C 
BRANCH  13  14
ATOM     14  N   UNL     1       0.704   3.077  20.694  0.00  0.00    +0.000 NA
ATOM     15  H   UNL     1       0.680   4.124  20.662  0.00  0.00    +0.000 HD
ATOM     16  H   UNL     1      -0.269   2.739  20.521  0.00  0.00    +0.000 HD
ENDBRANCH  13  14
ENDBRANCH  11  13
ENDBRANCH  10  12
ENDBRANCH   1  10
TORSDOF 4
ENDMDL
MODEL 5
REMARK VINA RESULT:      -5.6      1.602      1.690
REMARK  Name = 
REMARK  4 active torsions:
REMARK  status: ('A' for Active; 'I' for Inactive)
REMARK    1  A    between atoms: N_1  and  C_2
REMARK    2  A    between atoms: C_2  and  C_3
REMARK    3  A    between atoms: C_4  and  C_5
REMARK    4  A    between atoms: C_5  and  N_6
REMARK                            x       y       z     vdW  Elec       q    Type
REMARK                         _______ _______ _______ _____ _____    ______ ____
ROOT
ATOM      1  N   UNL     1       3.997   4.488  18.197  0.00  0.00    +0.000 N 
ATOM      2  C   UNL     1       4.270   5.466  17.276  0.00  0.00    +0.000 A 
ATOM      3  C   UNL     1       5.576   5.789  16.929  0.00  0.00    +0.000 A 
ATOM      4  C   UNL     1       6.619   5.099  17.525  0.00  0.00    +0.000 A 
ATOM      5  O   UNL     1       7.772   5.361  17.228  0.00  0.00    +0.000 OA
ATOM      6  N   UNL     1       6.350   4.123  18.447  0.00  0.00    +0.000 N 
ATOM      7  C   UNL     1       5.053   3.811  18.787  0.00  0.00    +0.000 A 
ATOM      8  O   UNL     1       4.850   2.928  19.605  0.00  0.00    +0.000 OA
ATOM      9  H   UNL     1       7.137   3.598  18.889  0.00  0.00    +0.000 HD
ENDROOT
BRANCH   1  10
ATOM     10  C   UNL     1       2.593   4.150  18.519  0.00  0.00    +0.000 C 
BRANCH  10  12
ATOM     11  C   UNL     1       1.579   4.482  20.826  0.00  0.00    +0.000 C 
ATOM     12  C   UNL     1       2.057   4.978  19.666  0.00  0.00    +0.000 C 
BRANCH  11  13
ATOM     13  C   UNL     1       1.477   3.013  21.176  0.00  0.00    +0.000 C 
BRANCH  13  14
ATOM     14  N   UNL     1       2.648   2.588  21.928  0.00  0.00    +0.000 NA
ATOM     15  H   UNL     1       3.210   1.960  21.307  0.00  0.00    +0.000 HD
ATOM     16  H   UNL     1       3.238   3.423  22.144  0.00  0.00    +0.000 HD
ENDBRANCH  13  14
ENDBRANCH  11  13
ENDBRANCH  10  12
ENDBRANCH   1  10
TORSDOF 4
ENDMDL
MODEL 6
REMARK VINA RESULT:      -5.6      1.703      1.764
REMARK  Name = 
REMARK  4 active torsions:
REMARK  status: ('A' for Active; 'I' for Inactive)
REMARK    1  A    between atoms: N_1  and  C_2
REMARK    2  A    between atoms: C_2  and  C_3
REMARK    3  A    between atoms: C_4  and  C_5
REMARK    4  A    between atoms: C_5  and  N_6
REMARK                            x       y       z     vdW  Elec       q    Type
REMARK                         _______ _______ _______ _____ _____    ______ ____
ROOT
ATOM      1  N   UNL     1       5.147   4.213  17.220  0.00  0.00    +0.000 N 
ATOM      2  C   UNL     1       4.823   4.316  15.891  0.00  0.00    +0.000 A 
ATOM      3  C   UNL     1       5.760   4.720  14.947  0.00  0.00    +0.000 A 
ATOM      4  C   UNL     1       7.048   5.016  15.364  0.00  0.00    +0.000 A 
ATOM      5  O   UNL     1       7.887   5.364  14.551  0.00  0.00    +0.000 OA
ATOM      6  N   UNL     1       7.373   4.916  16.691  0.00  0.00    +0.000 N 
ATOM      7  C   UNL     1       6.438   4.518  17.620  0.00  0.00    +0.000 A 
ATOM      8  O   UNL     1       6.767   4.431  18.792  0.00  0.00    +0.000 OA
ATOM      9  H   UNL     1       8.347   5.132  17.002  0.00  0.00    +0.000 HD
ENDROOT
BRANCH   1  10
ATOM     10  C   UNL     1       4.131   3.751  18.191  0.00  0.00    +0.000 C 
BRANCH  10  12
ATOM     11  C   UNL     1       1.626   3.322  18.221  0.00  0.00    +0.000 C 
ATOM     12  C   UNL     1       2.730   3.826  17.629  0.00  0.00    +0.000 C 
BRANCH  11  13
ATOM     13  C   UNL     1       1.600   2.579  19.539  0.00  0.00    +0.000 C 
BRANCH  13  14
ATOM     14  N   UNL     1       0.627   3.177  20.440  0.00  0.00    +0.000 NA
ATOM     15  H   UNL     1      -0.325   2.973  20.054  0.00  0.00    +0.000 HD
ATOM     16  H   UNL     1       0.691   2.710  21.372  0.00  0.00    +0.000 HD
ENDBRANCH  13  14
ENDBRANCH  11  13
ENDBRANCH  10  12
ENDBRANCH   1  10
TORSDOF 4
ENDMDL
MODEL 7
REMARK VINA RESULT:      -5.6      1.720      1.972
REMARK  Name = 
REMARK  4 active torsions:
REMARK  status: ('A' for Active; 'I' for Inactive)
REMARK    1  A    between atoms: N_1  and  C_2
REMARK    2  A    between atoms: C_2  and  C_3
REMARK    3  A    between atoms: C_4  and  C_5
REMARK    4  A    between atoms: C_5  and  N_6
REMARK                            x       y       z     vdW  Elec       q    Type
REMARK                         _______ _______ _______ _____ _____    ______ ____
ROOT
ATOM      1  N   UNL     1       5.341   4.181  17.590  0.00  0.00    +0.000 N 
ATOM      2  C   UNL     1       4.880   4.165  16.299  0.00  0.00    +0.000 A 
ATOM      3  C   UNL     1       5.680   4.572  15.238  0.00  0.00    +0.000 A 
ATOM      4  C   UNL     1       6.975   4.994  15.499  0.00  0.00    +0.000 A 
ATOM      5  O   UNL     1       7.696   5.347  14.581  0.00  0.00    +0.000 OA
ATOM      6  N   UNL     1       7.438   5.013  16.787  0.00  0.00    +0.000 N 
ATOM      7  C   UNL     1       6.637   4.611  17.832  0.00  0.00    +0.000 A 
ATOM      8  O   UNL     1       7.087   4.631  18.966  0.00  0.00    +0.000 OA
ATOM      9  H   UNL     1       8.416   5.323  16.980  0.00  0.00    +0.000 HD
ENDROOT
BRANCH   1  10
ATOM     10  C   UNL     1       4.470   3.712  18.689  0.00  0.00    +0.000 C 
BRANCH  10  12
ATOM     11  C   UNL     1       2.444   2.231  18.291  0.00  0.00    +0.000 C 
ATOM     12  C   UNL     1       3.780   2.409  18.353  0.00  0.00    +0.000 C 
BRANCH  11  13
ATOM     13  C   UNL     1       1.403   3.295  18.565  0.00  0.00    +0.000 C 
BRANCH  13  14
ATOM     14  N   UNL     1       1.220   4.139  17.394  0.00  0.00    +0.000 NA
ATOM     15  H   UNL     1       0.614   3.615  16.720  0.00  0.00    +0.000 HD
ATOM     16  H   UNL     1       0.700   5.002  17.672  0.00  0.00    +0.000 HD
ENDBRANCH  13  14
ENDBRANCH  11  13
ENDBRANCH  10  12
ENDBRANCH   1  10
TORSDOF 4
ENDMDL
MODEL 8
REMARK VINA RESULT:      -5.5      1.805      2.135
REMARK  Name = 
REMARK  4 active torsions:
REMARK  status: ('A' for Active; 'I' for Inactive)
REMARK    1  A    between atoms: N_1  and  C_2
REMARK    2  A    between atoms: C_2  and  C_3
REMARK    3  A    between atoms: C_4  and  C_5
REMARK    4  A    between atoms: C_5  and  N_6
REMARK                            x       y       z     vdW  Elec       q    Type
REMARK                         _______ _______ _______ _____ _____    ______ ____
ROOT
ATOM      1  N   UNL     1       5.949   5.203  17.824  0.00  0.00    +0.000 N 
ATOM      2  C   UNL     1       5.097   5.605  16.829  0.00  0.00    +0.000 A 
ATOM      3  C   UNL     1       5.484   5.594  15.495  0.00  0.00    +0.000 A 
ATOM      4  C   UNL     1       6.759   5.157  15.170  0.00  0.00    +0.000 A 
ATOM      5  O   UNL     1       7.116   5.132  14.004  0.00  0.00    +0.000 OA
ATOM      6  N   UNL     1       7.614   4.756  16.162  0.00  0.00    +0.000 N 
ATOM      7  C   UNL     1       7.222   4.774  17.481  0.00  0.00    +0.000 A 
ATOM      8  O   UNL     1       8.007   4.399  18.338  0.00  0.00    +0.000 OA
ATOM      9  H   UNL     1       8.571   4.420  15.914  0.00  0.00    +0.000 HD
ENDROOT
BRANCH   1  10
ATOM     10  C   UNL     1       5.491   5.200  19.231  0.00  0.00    +0.000 C 
BRANCH  10  12
ATOM     11  C   UNL     1       3.472   3.695  19.575  0.00  0.00    +0.000 C 
ATOM     12  C   UNL     1       4.011   4.911  19.346  0.00  0.00    +0.000 C 
BRANCH  11  13
ATOM     13  C   UNL     1       4.251   2.407  19.737  0.00  0.00    +0.000 C 
BRANCH  13  14
ATOM     14  N   UNL     1       4.037   1.538  18.590  0.00  0.00    +0.000 NA
ATOM     15  H   UNL     1       3.090   1.757  18.201  0.00  0.00    +0.000 HD
ATOM     16  H   UNL     1       4.738   1.769  17.850  0.00  0.00    +0.000 HD
ENDBRANCH  13  14
ENDBRANCH  11  13
ENDBRANCH  10  12
ENDBRANCH   1  10
TORSDOF 4
ENDMDL
MODEL 9
REMARK VINA RESULT:      -5.5      2.104      2.581
REMARK  Name = 
REMARK  4 active torsions:
REMARK  status: ('A' for Active; 'I' for Inactive)
REMARK    1  A    between atoms: N_1  and  C_2
REMARK    2  A    between atoms: C_2  and  C_3
REMARK    3  A    between atoms: C_4  and  C_5
REMARK    4  A    between atoms: C_5  and  N_6
REMARK                            x       y       z     vdW  Elec       q    Type
REMARK                         _______ _______ _______ _____ _____    ______ ____
ROOT
ATOM      1  N   UNL     1       5.948   4.967  17.669  0.00  0.00    +0.000 N 
ATOM      2  C   UNL     1       5.093   5.323  16.659  0.00  0.00    +0.000 A 
ATOM      3  C   UNL     1       5.521   5.389  15.338  0.00  0.00    +0.000 A 
ATOM      4  C   UNL     1       6.839   5.078  15.043  0.00  0.00    +0.000 A 
ATOM      5  O   UNL     1       7.232   5.121  13.890  0.00  0.00    +0.000 OA
ATOM      6  N   UNL     1       7.696   4.724  16.051  0.00  0.00    +0.000 N 
ATOM      7  C   UNL     1       7.264   4.665  17.357  0.00  0.00    +0.000 A 
ATOM      8  O   UNL     1       8.053   4.335  18.228  0.00  0.00    +0.000 OA
ATOM      9  H   UNL     1       8.686   4.482  15.825  0.00  0.00    +0.000 HD
ENDROOT
BRANCH   1  10
ATOM     10  C   UNL     1       5.450   4.879  19.059  0.00  0.00    +0.000 C 
BRANCH  10  12
ATOM     11  C   UNL     1       3.265   3.667  19.525  0.00  0.00    +0.000 C 
ATOM     12  C   UNL     1       4.592   3.653  19.280  0.00  0.00    +0.000 C 
BRANCH  11  13
ATOM     13  C   UNL     1       2.408   4.908  19.642  0.00  0.00    +0.000 C 
BRANCH  13  14
ATOM     14  N   UNL     1       2.377   5.377  21.019  0.00  0.00    +0.000 NA
ATOM     15  H   UNL     1       1.403   5.708  21.217  0.00  0.00    +0.000 HD
ATOM     16  H   UNL     1       2.568   4.573  21.659  0.00  0.00    +0.000 HD
ENDBRANCH  13  14
ENDBRANCH  11  13
ENDBRANCH  10  12
ENDBRANCH   1  10
TORSDOF 4
ENDMDL
