MODEL 1
REMARK VINA RESULT:      -8.5      0.000      0.000
REMARK  Name = 
REMARK  7 active torsions:
REMARK  status: ('A' for Active; 'I' for Inactive)
REMARK    1  A    between atoms: N_3  and  C_4
REMARK    2  A    between atoms: C_9  and  C_10
REMARK    3  A    between atoms: C_18  and  C_20
REMARK    4  A    between atoms: C_23  and  C_24
REMARK    5  A    between atoms: C_24  and  O_25
REMARK    6  A    between atoms: C_24  and  C_26
REMARK    7  A    between atoms: C_26  and  O_27
REMARK                            x       y       z     vdW  Elec       q    Type
REMARK                         _______ _______ _______ _____ _____    ______ ____
ROOT
ATOM      1  O   UNL     1       9.088   8.627  19.208  0.00  0.00    +0.000 OA
ATOM      2  C   UNL     1       8.262   8.581  18.298  0.00  0.00    +0.000 C 
ATOM      3  N   UNL     1       7.823   9.703  17.622  0.00  0.00    +0.000 N 
ATOM      4  N   UNL     1       7.652   7.388  17.912  0.00  0.00    +0.000 N 
ATOM      5  C   UNL     1       6.705   7.252  16.803  0.00  0.00    +0.000 C 
ATOM      6  C   UNL     1       6.825   5.900  16.107  0.00  0.00    +0.000 C 
ATOM      7  C   UNL     1       6.762   4.715  17.087  0.00  0.00    +0.000 C 
ATOM      8  F   UNL     1       7.143   3.610  16.363  0.00  0.00    +0.000 F 
ATOM      9  C   UNL     1       7.847   4.929  18.152  0.00  0.00    +0.000 C 
ATOM     10  C   UNL     1       7.722   6.270  18.851  0.00  0.00    +0.000 C 
ATOM     11  H   UNL     1       6.835   9.685  17.422  0.00  0.00    +0.000 HD
ENDROOT
BRANCH   3  12
ATOM     12  C   UNL     1       8.379  10.978  17.851  0.00  0.00    +0.000 A 
ATOM     13  C   UNL     1       7.699  12.095  17.377  0.00  0.00    +0.000 A 
ATOM     14  C   UNL     1       8.195  13.371  17.642  0.00  0.00    +0.000 A 
ATOM     15  C   UNL     1       9.406  13.543  18.326  0.00  0.00    +0.000 A 
ATOM     16 CL   UNL     1       9.904  15.172  18.595  0.00  0.00    +0.000 Cl
ATOM     17  C   UNL     1      10.138  12.431  18.757  0.00  0.00    +0.000 A 
ATOM     18  C   UNL     1       9.594  11.146  18.525  0.00  0.00    +0.000 A 
BRANCH  17  19
ATOM     19  C   UNL     1      11.477  12.500  19.445  0.00  0.00    +0.000 C 
ATOM     20  F   UNL     1      12.333  13.462  19.007  0.00  0.00    +0.000 F 
ATOM     21  F   UNL     1      11.359  12.702  20.787  0.00  0.00    +0.000 F 
ATOM     22  F   UNL     1      12.168  11.328  19.314  0.00  0.00    +0.000 F 
ENDBRANCH  17  19
ENDBRANCH   3  12
BRANCH   7  23
ATOM     23  C   UNL     1       5.365   4.488  17.661  0.00  0.00    +0.000 A 
ATOM     24  N   UNL     1       5.161   4.660  18.995  0.00  0.00    +0.000 NA
ATOM     25  C   UNL     1       3.899   4.525  19.475  0.00  0.00    +0.000 A 
ATOM     26  C   UNL     1       2.796   4.188  18.698  0.00  0.00    +0.000 A 
ATOM     27  C   UNL     1       3.023   4.009  17.333  0.00  0.00    +0.000 A 
ATOM     28  C   UNL     1       4.301   4.176  16.813  0.00  0.00    +0.000 A 
ATOM     29  F   UNL     1       4.483   4.025  15.494  0.00  0.00    +0.000 F 
BRANCH  26  30
ATOM     30  C   UNL     1       1.441   4.002  19.337  0.00  0.00    +0.000 C 
BRANCH  30  31
ATOM     31  O   UNL     1       0.841   2.811  18.831  0.00  0.00    +0.000 OA
ATOM     32  H   UNL     1       0.669   2.208  19.572  0.00  0.00    +0.000 HD
ENDBRANCH  30  31
BRANCH  30  33
ATOM     33  C   UNL     1       1.511   3.962  20.875  0.00  0.00    +0.000 C 
BRANCH  33  34
ATOM     34  O   UNL     1       0.945   2.768  21.405  0.00  0.00    +0.000 OA
ATOM     35  H   UNL     1       0.299   3.018  22.087  0.00  0.00    +0.000 HD
ENDBRANCH  33  34
ENDBRANCH  30  33
ENDBRANCH  26  30
ENDBRANCH   7  23
TORSDOF 7
ENDMDL
MODEL 2
REMARK VINA RESULT:      -8.4      6.921     11.189
REMARK  Name = 
REMARK  7 active torsions:
REMARK  status: ('A' for Active; 'I' for Inactive)
REMARK    1  A    between atoms: N_3  and  C_4
REMARK    2  A    between atoms: C_9  and  C_10
REMARK    3  A    between atoms: C_18  and  C_20
REMARK    4  A    between atoms: C_23  and  C_24
REMARK    5  A    between atoms: C_24  and  O_25
REMARK    6  A    between atoms: C_24  and  C_26
REMARK    7  A    between atoms: C_26  and  O_27
REMARK                            x       y       z     vdW  Elec       q    Type
REMARK                         _______ _______ _______ _____ _____    ______ ____
ROOT
ATOM      1  O   UNL     1       1.567   7.747  21.416  0.00  0.00    +0.000 OA
ATOM      2  C   UNL     1       1.526   8.132  20.249  0.00  0.00    +0.000 C 
ATOM      3  N   UNL     1       2.075   7.421  19.200  0.00  0.00    +0.000 N 
ATOM      4  N   UNL     1       0.967   9.360  19.894  0.00  0.00    +0.000 N 
ATOM      5  C   UNL     1       0.834   9.855  18.523  0.00  0.00    +0.000 C 
ATOM      6  C   UNL     1      -0.419  10.704  18.337  0.00  0.00    +0.000 C 
ATOM      7  C   UNL     1      -0.544  11.824  19.384  0.00  0.00    +0.000 C 
ATOM      8  F   UNL     1      -1.821  12.318  19.254  0.00  0.00    +0.000 F 
ATOM      9  C   UNL     1      -0.471  11.177  20.775  0.00  0.00    +0.000 C 
ATOM     10  C   UNL     1       0.781  10.340  20.963  0.00  0.00    +0.000 C 
ATOM     11  H   UNL     1       2.537   8.007  18.521  0.00  0.00    +0.000 HD
ENDROOT
BRANCH   3  12
ATOM     12  C   UNL     1       2.628   6.136  19.378  0.00  0.00    +0.000 A 
ATOM     13  C   UNL     1       3.999   5.973  19.205  0.00  0.00    +0.000 A 
ATOM     14  C   UNL     1       4.581   4.726  19.434  0.00  0.00    +0.000 A 
ATOM     15  C   UNL     1       3.794   3.617  19.775  0.00  0.00    +0.000 A 
ATOM     16 CL   UNL     1       4.638   2.137  20.037  0.00  0.00    +0.000 Cl
ATOM     17  C   UNL     1       2.406   3.746  19.892  0.00  0.00    +0.000 A 
ATOM     18  C   UNL     1       1.839   5.029  19.707  0.00  0.00    +0.000 A 
BRANCH  17  19
ATOM     19  C   UNL     1       1.462   2.610  20.192  0.00  0.00    +0.000 C 
ATOM     20  F   UNL     1       1.624   1.479  19.455  0.00  0.00    +0.000 F 
ATOM     21  F   UNL     1       1.530   2.210  21.492  0.00  0.00    +0.000 F 
ATOM     22  F   UNL     1       0.160   2.976  19.993  0.00  0.00    +0.000 F 
ENDBRANCH  17  19
ENDBRANCH   3  12
BRANCH   7  23
ATOM     23  C   UNL     1       0.461  12.956  19.173  0.00  0.00    +0.000 A 
ATOM     24  N   UNL     1       1.516  12.757  18.338  0.00  0.00    +0.000 NA
ATOM     25  C   UNL     1       2.356  13.796  18.105  0.00  0.00    +0.000 A 
ATOM     26  C   UNL     1       2.232  15.052  18.692  0.00  0.00    +0.000 A 
ATOM     27  C   UNL     1       1.149  15.237  19.550  0.00  0.00    +0.000 A 
ATOM     28  C   UNL     1       0.255  14.197  19.776  0.00  0.00    +0.000 A 
ATOM     29  F   UNL     1      -0.793  14.414  20.584  0.00  0.00    +0.000 F 
BRANCH  26  30
ATOM     30  C   UNL     1       3.256  16.127  18.415  0.00  0.00    +0.000 C 
BRANCH  30  31
ATOM     31  O   UNL     1       4.557  15.545  18.399  0.00  0.00    +0.000 OA
ATOM     32  H   UNL     1       5.098  16.005  17.737  0.00  0.00    +0.000 HD
ENDBRANCH  30  31
BRANCH  30  33
ATOM     33  C   UNL     1       2.983  16.882  17.100  0.00  0.00    +0.000 C 
BRANCH  33  34
ATOM     34  O   UNL     1       2.124  18.000  17.294  0.00  0.00    +0.000 OA
ATOM     35  H   UNL     1       1.297  17.831  16.811  0.00  0.00    +0.000 HD
ENDBRANCH  33  34
ENDBRANCH  30  33
ENDBRANCH  26  30
ENDBRANCH   7  23
TORSDOF 7
ENDMDL
MODEL 3
REMARK VINA RESULT:      -8.3      8.421     11.067
REMARK  Name = 
REMARK  7 active torsions:
REMARK  status: ('A' for Active; 'I' for Inactive)
REMARK    1  A    between atoms: N_3  and  C_4
REMARK    2  A    between atoms: C_9  and  C_10
REMARK    3  A    between atoms: C_18  and  C_20
REMARK    4  A    between atoms: C_23  and  C_24
REMARK    5  A    between atoms: C_24  and  O_25
REMARK    6  A    between atoms: C_24  and  C_26
REMARK    7  A    between atoms: C_26  and  O_27
REMARK                            x       y       z     vdW  Elec       q    Type
REMARK                         _______ _______ _______ _____ _____    ______ ____
ROOT
ATOM      1  O   UNL     1       0.497   9.377  17.543  0.00  0.00    +0.000 OA
ATOM      2  C   UNL     1       0.866   9.611  18.692  0.00  0.00    +0.000 C 
ATOM      3  N   UNL     1       1.709   8.774  19.398  0.00  0.00    +0.000 N 
ATOM      4  N   UNL     1       0.410  10.720  19.404  0.00  0.00    +0.000 N 
ATOM      5  C   UNL     1       0.850  11.089  20.751  0.00  0.00    +0.000 C 
ATOM      6  C   UNL     1       0.877  12.601  20.954  0.00  0.00    +0.000 C 
ATOM      7  C   UNL     1      -0.444  13.281  20.556  0.00  0.00    +0.000 C 
ATOM      8  F   UNL     1      -0.179  14.631  20.540  0.00  0.00    +0.000 F 
ATOM      9  C   UNL     1      -0.757  12.886  19.106  0.00  0.00    +0.000 C 
ATOM     10  C   UNL     1      -0.794  11.382  18.906  0.00  0.00    +0.000 C 
ATOM     11  H   UNL     1       1.453   8.679  20.369  0.00  0.00    +0.000 HD
ENDROOT
BRANCH   3  12
ATOM     12  C   UNL     1       2.303   7.641  18.807  0.00  0.00    +0.000 A 
ATOM     13  C   UNL     1       3.329   7.832  17.887  0.00  0.00    +0.000 A 
ATOM     14  C   UNL     1       3.974   6.727  17.332  0.00  0.00    +0.000 A 
ATOM     15  C   UNL     1       3.561   5.424  17.640  0.00  0.00    +0.000 A 
ATOM     16 CL   UNL     1       4.447   4.147  16.892  0.00  0.00    +0.000 Cl
ATOM     17  C   UNL     1       2.490   5.210  18.515  0.00  0.00    +0.000 A 
ATOM     18  C   UNL     1       1.881   6.341  19.109  0.00  0.00    +0.000 A 
BRANCH  17  19
ATOM     19  C   UNL     1       1.926   3.858  18.867  0.00  0.00    +0.000 C 
ATOM     20  F   UNL     1       1.473   3.104  17.830  0.00  0.00    +0.000 F 
ATOM     21  F   UNL     1       2.829   3.075  19.519  0.00  0.00    +0.000 F 
ATOM     22  F   UNL     1       0.860   3.967  19.715  0.00  0.00    +0.000 F 
ENDBRANCH  17  19
ENDBRANCH   3  12
BRANCH   7  23
ATOM     23  C   UNL     1      -1.581  12.999  21.536  0.00  0.00    +0.000 A 
ATOM     24  N   UNL     1      -1.400  12.068  22.511  0.00  0.00    +0.000 NA
ATOM     25  C   UNL     1      -2.393  11.883  23.416  0.00  0.00    +0.000 A 
ATOM     26  C   UNL     1      -3.607  12.562  23.398  0.00  0.00    +0.000 A 
ATOM     27  C   UNL     1      -3.780  13.509  22.389  0.00  0.00    +0.000 A 
ATOM     28  C   UNL     1      -2.762  13.740  21.471  0.00  0.00    +0.000 A 
ATOM     29  F   UNL     1      -2.946  14.677  20.529  0.00  0.00    +0.000 F 
BRANCH  26  30
ATOM     30  C   UNL     1      -4.675  12.242  24.416  0.00  0.00    +0.000 C 
BRANCH  30  31
ATOM     31  O   UNL     1      -4.253  12.696  25.700  0.00  0.00    +0.000 OA
ATOM     32  H   UNL     1      -4.952  12.506  26.345  0.00  0.00    +0.000 HD
ENDBRANCH  30  31
BRANCH  30  33
ATOM     33  C   UNL     1      -6.044  12.847  24.051  0.00  0.00    +0.000 C 
BRANCH  33  34
ATOM     34  O   UNL     1      -6.945  11.866  23.548  0.00  0.00    +0.000 OA
ATOM     35  H   UNL     1      -7.282  12.178  22.690  0.00  0.00    +0.000 HD
ENDBRANCH  33  34
ENDBRANCH  30  33
ENDBRANCH  26  30
ENDBRANCH   7  23
TORSDOF 7
ENDMDL
MODEL 4
REMARK VINA RESULT:      -8.3      6.895     11.189
REMARK  Name = 
REMARK  7 active torsions:
REMARK  status: ('A' for Active; 'I' for Inactive)
REMARK    1  A    between atoms: N_3  and  C_4
REMARK    2  A    between atoms: C_9  and  C_10
REMARK    3  A    between atoms: C_18  and  C_20
REMARK    4  A    between atoms: C_23  and  C_24
REMARK    5  A    between atoms: C_24  and  O_25
REMARK    6  A    between atoms: C_24  and  C_26
REMARK    7  A    between atoms: C_26  and  O_27
REMARK                            x       y       z     vdW  Elec       q    Type
REMARK                         _______ _______ _______ _____ _____    ______ ____
ROOT
ATOM      1  O   UNL     1       1.527   7.693  21.295  0.00  0.00    +0.000 OA
ATOM      2  C   UNL     1       1.573   8.114  20.141  0.00  0.00    +0.000 C 
ATOM      3  N   UNL     1       2.183   7.424  19.111  0.00  0.00    +0.000 N 
ATOM      4  N   UNL     1       1.060   9.362  19.787  0.00  0.00    +0.000 N 
ATOM      5  C   UNL     1       1.031   9.899  18.425  0.00  0.00    +0.000 C 
ATOM      6  C   UNL     1      -0.193  10.776  18.179  0.00  0.00    +0.000 C 
ATOM      7  C   UNL     1      -0.373  11.867  19.249  0.00  0.00    +0.000 C 
ATOM      8  F   UNL     1      -1.630  12.387  19.047  0.00  0.00    +0.000 F 
ATOM      9  C   UNL     1      -0.407  11.177  20.621  0.00  0.00    +0.000 C 
ATOM     10  C   UNL     1       0.815  10.312  20.870  0.00  0.00    +0.000 C 
ATOM     11  H   UNL     1       2.700   8.021  18.484  0.00  0.00    +0.000 HD
ENDROOT
BRANCH   3  12
ATOM     12  C   UNL     1       2.702   6.125  19.287  0.00  0.00    +0.000 A 
ATOM     13  C   UNL     1       4.073   5.933  19.153  0.00  0.00    +0.000 A 
ATOM     14  C   UNL     1       4.620   4.671  19.382  0.00  0.00    +0.000 A 
ATOM     15  C   UNL     1       3.799   3.575  19.683  0.00  0.00    +0.000 A 
ATOM     16 CL   UNL     1       4.601   2.073  19.948  0.00  0.00    +0.000 Cl
ATOM     17  C   UNL     1       2.410   3.734  19.760  0.00  0.00    +0.000 A 
ATOM     18  C   UNL     1       1.878   5.032  19.577  0.00  0.00    +0.000 A 
BRANCH  17  19
ATOM     19  C   UNL     1       1.433   2.616  20.015  0.00  0.00    +0.000 C 
ATOM     20  F   UNL     1       0.120   2.900  19.803  0.00  0.00    +0.000 F 
ATOM     21  F   UNL     1       1.694   1.517  19.254  0.00  0.00    +0.000 F 
ATOM     22  F   UNL     1       1.495   2.183  21.310  0.00  0.00    +0.000 F 
ENDBRANCH  17  19
ENDBRANCH   3  12
BRANCH   7  23
ATOM     23  C   UNL     1       0.662  12.986  19.143  0.00  0.00    +0.000 A 
ATOM     24  N   UNL     1       1.714  12.837  18.294  0.00  0.00    +0.000 NA
ATOM     25  C   UNL     1       2.582  13.870  18.158  0.00  0.00    +0.000 A 
ATOM     26  C   UNL     1       2.490  15.069  18.857  0.00  0.00    +0.000 A 
ATOM     27  C   UNL     1       1.410  15.204  19.729  0.00  0.00    +0.000 A 
ATOM     28  C   UNL     1       0.487  14.171  19.858  0.00  0.00    +0.000 A 
ATOM     29  F   UNL     1      -0.556  14.341  20.682  0.00  0.00    +0.000 F 
BRANCH  26  30
ATOM     30  C   UNL     1       3.542  16.138  18.681  0.00  0.00    +0.000 C 
BRANCH  30  31
ATOM     31  O   UNL     1       3.088  17.091  17.723  0.00  0.00    +0.000 OA
ATOM     32  H   UNL     1       3.638  17.888  17.789  0.00  0.00    +0.000 HD
ENDBRANCH  30  31
BRANCH  30  33
ATOM     33  C   UNL     1       3.908  16.833  20.006  0.00  0.00    +0.000 C 
BRANCH  33  34
ATOM     34  O   UNL     1       3.495  18.195  20.026  0.00  0.00    +0.000 OA
ATOM     35  H   UNL     1       3.974  18.666  19.322  0.00  0.00    +0.000 HD
ENDBRANCH  33  34
ENDBRANCH  30  33
ENDBRANCH  26  30
ENDBRANCH   7  23
TORSDOF 7
ENDMDL
MODEL 5
REMARK VINA RESULT:      -8.2      6.648     11.017
REMARK  Name = 
REMARK  7 active torsions:
REMARK  status: ('A' for Active; 'I' for Inactive)
REMARK    1  A    between atoms: N_3  and  C_4
REMARK    2  A    between atoms: C_9  and  C_10
REMARK    3  A    between atoms: C_18  and  C_20
REMARK    4  A    between atoms: C_23  and  C_24
REMARK    5  A    between atoms: C_24  and  O_25
REMARK    6  A    between atoms: C_24  and  C_26
REMARK    7  A    between atoms: C_26  and  O_27
REMARK                            x       y       z     vdW  Elec       q    Type
REMARK                         _______ _______ _______ _____ _____    ______ ____
ROOT
ATOM      1  O   UNL     1       1.576   7.537  21.582  0.00  0.00    +0.000 OA
ATOM      2  C   UNL     1       1.560   8.019  20.451  0.00  0.00    +0.000 C 
ATOM      3  N   UNL     1       2.120   7.391  19.356  0.00  0.00    +0.000 N 
ATOM      4  N   UNL     1       1.022   9.280  20.192  0.00  0.00    +0.000 N 
ATOM      5  C   UNL     1       0.919   9.890  18.865  0.00  0.00    +0.000 C 
ATOM      6  C   UNL     1      -0.321  10.768  18.730  0.00  0.00    +0.000 C 
ATOM      7  C   UNL     1      -0.451  11.798  19.865  0.00  0.00    +0.000 C 
ATOM      8  F   UNL     1      -1.720  12.317  19.756  0.00  0.00    +0.000 F 
ATOM      9  C   UNL     1      -0.411  11.035  21.197  0.00  0.00    +0.000 C 
ATOM     10  C   UNL     1       0.828  10.169  21.336  0.00  0.00    +0.000 C 
ATOM     11  H   UNL     1       2.601   8.026  18.737  0.00  0.00    +0.000 HD
ENDROOT
BRANCH   3  12
ATOM     12  C   UNL     1       2.655   6.089  19.435  0.00  0.00    +0.000 A 
ATOM     13  C   UNL     1       4.015   5.914  19.203  0.00  0.00    +0.000 A 
ATOM     14  C   UNL     1       4.582   4.647  19.334  0.00  0.00    +0.000 A 
ATOM     15  C   UNL     1       3.787   3.532  19.635  0.00  0.00    +0.000 A 
ATOM     16 CL   UNL     1       4.611   2.024  19.775  0.00  0.00    +0.000 Cl
ATOM     17  C   UNL     1       2.406   3.676  19.810  0.00  0.00    +0.000 A 
ATOM     18  C   UNL     1       1.857   4.977  19.724  0.00  0.00    +0.000 A 
BRANCH  17  19
ATOM     19  C   UNL     1       1.452   2.540  20.073  0.00  0.00    +0.000 C 
ATOM     20  F   UNL     1       1.618   1.423  19.315  0.00  0.00    +0.000 F 
ATOM     21  F   UNL     1       1.501   2.112  21.366  0.00  0.00    +0.000 F 
ATOM     22  F   UNL     1       0.155   2.917  19.865  0.00  0.00    +0.000 F 
ENDBRANCH  17  19
ENDBRANCH   3  12
BRANCH   7  23
ATOM     23  C   UNL     1       0.570  12.930  19.766  0.00  0.00    +0.000 A 
ATOM     24  N   UNL     1       1.631  12.941  20.618  0.00  0.00    +0.000 NA
ATOM     25  C   UNL     1       2.566  13.912  20.467  0.00  0.00    +0.000 A 
ATOM     26  C   UNL     1       2.498  14.925  19.516  0.00  0.00    +0.000 A 
ATOM     27  C   UNL     1       1.402  14.903  18.654  0.00  0.00    +0.000 A 
ATOM     28  C   UNL     1       0.449  13.897  18.768  0.00  0.00    +0.000 A 
ATOM     29  F   UNL     1      -0.579  13.885  17.907  0.00  0.00    +0.000 F 
BRANCH  26  30
ATOM     30  C   UNL     1       3.560  15.997  19.467  0.00  0.00    +0.000 C 
BRANCH  30  31
ATOM     31  O   UNL     1       4.603  15.668  20.382  0.00  0.00    +0.000 OA
ATOM     32  H   UNL     1       5.367  16.241  20.206  0.00  0.00    +0.000 HD
ENDBRANCH  30  31
BRANCH  30  33
ATOM     33  C   UNL     1       4.128  16.206  18.050  0.00  0.00    +0.000 C 
BRANCH  33  34
ATOM     34  O   UNL     1       4.585  14.988  17.473  0.00  0.00    +0.000 OA
ATOM     35  H   UNL     1       5.157  15.208  16.717  0.00  0.00    +0.000 HD
ENDBRANCH  33  34
ENDBRANCH  30  33
ENDBRANCH  26  30
ENDBRANCH   7  23
TORSDOF 7
ENDMDL
MODEL 6
REMARK VINA RESULT:      -8.2      0.684      1.005
REMARK  Name = 
REMARK  7 active torsions:
REMARK  status: ('A' for Active; 'I' for Inactive)
REMARK    1  A    between atoms: N_3  and  C_4
REMARK    2  A    between atoms: C_9  and  C_10
REMARK    3  A    between atoms: C_18  and  C_20
REMARK    4  A    between atoms: C_23  and  C_24
REMARK    5  A    between atoms: C_24  and  O_25
REMARK    6  A    between atoms: C_24  and  C_26
REMARK    7  A    between atoms: C_26  and  O_27
REMARK                            x       y       z     vdW  Elec       q    Type
REMARK                         _______ _______ _______ _____ _____    ______ ____
ROOT
ATOM      1  O   UNL     1       9.156   8.239  18.878  0.00  0.00    +0.000 OA
ATOM      2  C   UNL     1       8.142   8.311  18.186  0.00  0.00    +0.000 C 
ATOM      3  N   UNL     1       7.627   9.507  17.725  0.00  0.00    +0.000 N 
ATOM      4  N   UNL     1       7.389   7.183  17.857  0.00  0.00    +0.000 N 
ATOM      5  C   UNL     1       6.207   7.189  16.994  0.00  0.00    +0.000 C 
ATOM      6  C   UNL     1       6.083   5.904  16.181  0.00  0.00    +0.000 C 
ATOM      7  C   UNL     1       6.176   4.636  17.048  0.00  0.00    +0.000 C 
ATOM      8  F   UNL     1       6.315   3.589  16.166  0.00  0.00    +0.000 F 
ATOM      9  C   UNL     1       7.488   4.707  17.842  0.00  0.00    +0.000 C 
ATOM     10  C   UNL     1       7.607   5.981  18.659  0.00  0.00    +0.000 C 
ATOM     11  H   UNL     1       6.620   9.546  17.761  0.00  0.00    +0.000 HD
ENDROOT
BRANCH   3  12
ATOM     12  C   UNL     1       8.295  10.732  17.921  0.00  0.00    +0.000 A 
ATOM     13  C   UNL     1       7.756  11.882  17.354  0.00  0.00    +0.000 A 
ATOM     14  C   UNL     1       8.363  13.117  17.582  0.00  0.00    +0.000 A 
ATOM     15  C   UNL     1       9.549  13.208  18.325  0.00  0.00    +0.000 A 
ATOM     16 CL   UNL     1      10.193  14.792  18.539  0.00  0.00    +0.000 Cl
ATOM     17  C   UNL     1      10.143  12.055  18.851  0.00  0.00    +0.000 A 
ATOM     18  C   UNL     1       9.485  10.818  18.653  0.00  0.00    +0.000 A 
BRANCH  17  19
ATOM     19  C   UNL     1      11.445  12.031  19.609  0.00  0.00    +0.000 C 
ATOM     20  F   UNL     1      11.369  11.729  20.933  0.00  0.00    +0.000 F 
ATOM     21  F   UNL     1      12.333  11.141  19.084  0.00  0.00    +0.000 F 
ATOM     22  F   UNL     1      12.074  13.243  19.560  0.00  0.00    +0.000 F 
ENDBRANCH  17  19
ENDBRANCH   3  12
BRANCH   7  23
ATOM     23  C   UNL     1       4.938   4.410  17.913  0.00  0.00    +0.000 A 
ATOM     24  N   UNL     1       4.962   4.793  19.217  0.00  0.00    +0.000 NA
ATOM     25  C   UNL     1       3.829   4.653  19.950  0.00  0.00    +0.000 A 
ATOM     26  C   UNL     1       2.644   4.108  19.466  0.00  0.00    +0.000 A 
ATOM     27  C   UNL     1       2.637   3.714  18.128  0.00  0.00    +0.000 A 
ATOM     28  C   UNL     1       3.776   3.881  17.348  0.00  0.00    +0.000 A 
ATOM     29  F   UNL     1       3.731   3.519  16.058  0.00  0.00    +0.000 F 
BRANCH  26  30
ATOM     30  C   UNL     1       1.454   3.937  20.379  0.00  0.00    +0.000 C 
BRANCH  30  31
ATOM     31  O   UNL     1       0.575   2.959  19.828  0.00  0.00    +0.000 OA
ATOM     32  H   UNL     1       0.843   2.777  18.913  0.00  0.00    +0.000 HD
ENDBRANCH  30  31
BRANCH  30  33
ATOM     33  C   UNL     1       1.858   3.555  21.816  0.00  0.00    +0.000 C 
BRANCH  33  34
ATOM     34  O   UNL     1       2.711   2.416  21.846  0.00  0.00    +0.000 OA
ATOM     35  H   UNL     1       2.699   2.055  22.749  0.00  0.00    +0.000 HD
ENDBRANCH  33  34
ENDBRANCH  30  33
ENDBRANCH  26  30
ENDBRANCH   7  23
TORSDOF 7
ENDMDL
MODEL 7
REMARK VINA RESULT:      -8.2      5.771      8.353
REMARK  Name = 
REMARK  7 active torsions:
REMARK  status: ('A' for Active; 'I' for Inactive)
REMARK    1  A    between atoms: N_3  and  C_4
REMARK    2  A    between atoms: C_9  and  C_10
REMARK    3  A    between atoms: C_18  and  C_20
REMARK    4  A    between atoms: C_23  and  C_24
REMARK    5  A    between atoms: C_24  and  O_25
REMARK    6  A    between atoms: C_24  and  C_26
REMARK    7  A    between atoms: C_26  and  O_27
REMARK                            x       y       z     vdW  Elec       q    Type
REMARK                         _______ _______ _______ _____ _____    ______ ____
ROOT
ATOM      1  O   UNL     1       1.975   6.775  19.161  0.00  0.00    +0.000 OA
ATOM      2  C   UNL     1       2.747   7.390  18.427  0.00  0.00    +0.000 C 
ATOM      3  N   UNL     1       2.489   8.663  17.958  0.00  0.00    +0.000 N 
ATOM      4  N   UNL     1       3.930   6.820  17.956  0.00  0.00    +0.000 N 
ATOM      5  C   UNL     1       4.920   7.512  17.128  0.00  0.00    +0.000 C 
ATOM      6  C   UNL     1       6.343   7.047  17.423  0.00  0.00    +0.000 C 
ATOM      7  C   UNL     1       6.494   5.517  17.372  0.00  0.00    +0.000 C 
ATOM      8  F   UNL     1       7.731   5.245  17.909  0.00  0.00    +0.000 F 
ATOM      9  C   UNL     1       5.464   4.910  18.336  0.00  0.00    +0.000 C 
ATOM     10  C   UNL     1       4.047   5.366  18.036  0.00  0.00    +0.000 C 
ATOM     11  H   UNL     1       2.763   8.796  16.997  0.00  0.00    +0.000 HD
ENDROOT
BRANCH   3  12
ATOM     12  C   UNL     1       1.365   9.401  18.382  0.00  0.00    +0.000 A 
ATOM     13  C   UNL     1       1.447  10.111  19.575  0.00  0.00    +0.000 A 
ATOM     14  C   UNL     1       0.372  10.898  19.988  0.00  0.00    +0.000 A 
ATOM     15  C   UNL     1      -0.818  10.932  19.248  0.00  0.00    +0.000 A 
ATOM     16 CL   UNL     1      -2.068  11.948  19.863  0.00  0.00    +0.000 Cl
ATOM     17  C   UNL     1      -0.945  10.175  18.078  0.00  0.00    +0.000 A 
ATOM     18  C   UNL     1       0.174   9.424  17.647  0.00  0.00    +0.000 A 
BRANCH  17  19
ATOM     19  C   UNL     1      -2.196  10.090  17.242  0.00  0.00    +0.000 C 
ATOM     20  F   UNL     1      -2.732  11.271  16.834  0.00  0.00    +0.000 F 
ATOM     21  F   UNL     1      -2.011   9.363  16.106  0.00  0.00    +0.000 F 
ATOM     22  F   UNL     1      -3.205   9.460  17.916  0.00  0.00    +0.000 F 
ENDBRANCH  17  19
ENDBRANCH   3  12
BRANCH   7  23
ATOM     23  C   UNL     1       6.423   4.956  15.953  0.00  0.00    +0.000 A 
ATOM     24  N   UNL     1       7.130   5.564  14.964  0.00  0.00    +0.000 NA
ATOM     25  C   UNL     1       7.113   5.009  13.726  0.00  0.00    +0.000 A 
ATOM     26  C   UNL     1       6.390   3.870  13.387  0.00  0.00    +0.000 A 
ATOM     27  C   UNL     1       5.665   3.261  14.411  0.00  0.00    +0.000 A 
ATOM     28  C   UNL     1       5.696   3.793  15.696  0.00  0.00    +0.000 A 
ATOM     29  F   UNL     1       5.011   3.170  16.666  0.00  0.00    +0.000 F 
BRANCH  26  30
ATOM     30  C   UNL     1       6.387   3.363  11.965  0.00  0.00    +0.000 C 
BRANCH  30  31
ATOM     31  O   UNL     1       7.494   2.484  11.777  0.00  0.00    +0.000 OA
ATOM     32  H   UNL     1       7.826   2.588  10.870  0.00  0.00    +0.000 HD
ENDBRANCH  30  31
BRANCH  30  33
ATOM     33  C   UNL     1       5.068   2.662  11.587  0.00  0.00    +0.000 C 
BRANCH  33  34
ATOM     34  O   UNL     1       4.068   3.590  11.181  0.00  0.00    +0.000 OA
ATOM     35  H   UNL     1       4.285   3.893  10.283  0.00  0.00    +0.000 HD
ENDBRANCH  33  34
ENDBRANCH  30  33
ENDBRANCH  26  30
ENDBRANCH   7  23
TORSDOF 7
ENDMDL
MODEL 8
REMARK VINA RESULT:      -8.2      5.727      8.298
REMARK  Name = 
REMARK  7 active torsions:
REMARK  status: ('A' for Active; 'I' for Inactive)
REMARK    1  A    between atoms: N_3  and  C_4
REMARK    2  A    between atoms: C_9  and  C_10
REMARK    3  A    between atoms: C_18  and  C_20
REMARK    4  A    between atoms: C_23  and  C_24
REMARK    5  A    between atoms: C_24  and  O_25
REMARK    6  A    between atoms: C_24  and  C_26
REMARK    7  A    between atoms: C_26  and  O_27
REMARK                            x       y       z     vdW  Elec       q    Type
REMARK                         _______ _______ _______ _____ _____    ______ ____
ROOT
ATOM      1  O   UNL     1       1.930   6.523  19.241  0.00  0.00    +0.000 OA
ATOM      2  C   UNL     1       2.720   7.125  18.516  0.00  0.00    +0.000 C 
ATOM      3  N   UNL     1       2.512   8.422  18.089  0.00  0.00    +0.000 N 
ATOM      4  N   UNL     1       3.870   6.518  18.011  0.00  0.00    +0.000 N 
ATOM      5  C   UNL     1       4.879   7.191  17.190  0.00  0.00    +0.000 C 
ATOM      6  C   UNL     1       6.283   6.654  17.451  0.00  0.00    +0.000 C 
ATOM      7  C   UNL     1       6.366   5.121  17.352  0.00  0.00    +0.000 C 
ATOM      8  F   UNL     1       7.596   4.779  17.863  0.00  0.00    +0.000 F 
ATOM      9  C   UNL     1       5.322   4.532  18.312  0.00  0.00    +0.000 C 
ATOM     10  C   UNL     1       3.923   5.058  18.046  0.00  0.00    +0.000 C 
ATOM     11  H   UNL     1       2.780   8.572  17.128  0.00  0.00    +0.000 HD
ENDROOT
BRANCH   3  12
ATOM     12  C   UNL     1       1.428   9.195  18.551  0.00  0.00    +0.000 A 
ATOM     13  C   UNL     1       1.503   9.754  19.822  0.00  0.00    +0.000 A 
ATOM     14  C   UNL     1       0.471  10.573  20.280  0.00  0.00    +0.000 A 
ATOM     15  C   UNL     1      -0.673  10.790  19.501  0.00  0.00    +0.000 A 
ATOM     16 CL   UNL     1      -1.872  11.827  20.180  0.00  0.00    +0.000 Cl
ATOM     17  C   UNL     1      -0.797  10.186  18.244  0.00  0.00    +0.000 A 
ATOM     18  C   UNL     1       0.282   9.401  17.774  0.00  0.00    +0.000 A 
BRANCH  17  19
ATOM     19  C   UNL     1      -2.007  10.302  17.353  0.00  0.00    +0.000 C 
ATOM     20  F   UNL     1      -1.943   9.652  16.161  0.00  0.00    +0.000 F 
ATOM     21  F   UNL     1      -3.139   9.846  17.957  0.00  0.00    +0.000 F 
ATOM     22  F   UNL     1      -2.267  11.604  17.030  0.00  0.00    +0.000 F 
ENDBRANCH  17  19
ENDBRANCH   3  12
BRANCH   7  23
ATOM     23  C   UNL     1       6.251   4.607  15.918  0.00  0.00    +0.000 A 
ATOM     24  N   UNL     1       5.241   3.754  15.599  0.00  0.00    +0.000 NA
ATOM     25  C   UNL     1       5.112   3.367  14.305  0.00  0.00    +0.000 A 
ATOM     26  C   UNL     1       5.967   3.758  13.280  0.00  0.00    +0.000 A 
ATOM     27  C   UNL     1       7.001   4.627  13.624  0.00  0.00    +0.000 A 
ATOM     28  C   UNL     1       7.132   5.066  14.938  0.00  0.00    +0.000 A 
ATOM     29  F   UNL     1       8.119   5.924  15.233  0.00  0.00    +0.000 F 
BRANCH  26  30
ATOM     30  C   UNL     1       5.775   3.223  11.881  0.00  0.00    +0.000 C 
BRANCH  30  31
ATOM     31  O   UNL     1       6.515   2.013  11.734  0.00  0.00    +0.000 OA
ATOM     32  H   UNL     1       5.927   1.327  11.378  0.00  0.00    +0.000 HD
ENDBRANCH  30  31
BRANCH  30  33
ATOM     33  C   UNL     1       4.292   2.996  11.531  0.00  0.00    +0.000 C 
BRANCH  33  34
ATOM     34  O   UNL     1       3.800   3.979  10.627  0.00  0.00    +0.000 OA
ATOM     35  H   UNL     1       4.239   4.823  10.832  0.00  0.00    +0.000 HD
ENDBRANCH  33  34
ENDBRANCH  30  33
ENDBRANCH  26  30
ENDBRANCH   7  23
TORSDOF 7
ENDMDL
MODEL 9
REMARK VINA RESULT:      -8.2      8.303     11.081
REMARK  Name = 
REMARK  7 active torsions:
REMARK  status: ('A' for Active; 'I' for Inactive)
REMARK    1  A    between atoms: N_3  and  C_4
REMARK    2  A    between atoms: C_9  and  C_10
REMARK    3  A    between atoms: C_18  and  C_20
REMARK    4  A    between atoms: C_23  and  C_24
REMARK    5  A    between atoms: C_24  and  O_25
REMARK    6  A    between atoms: C_24  and  C_26
REMARK    7  A    between atoms: C_26  and  O_27
REMARK                            x       y       z     vdW  Elec       q    Type
REMARK                         _______ _______ _______ _____ _____    ______ ____
ROOT
ATOM      1  O   UNL     1       0.426   9.236  17.501  0.00  0.00    +0.000 OA
ATOM      2  C   UNL     1       0.935   9.610  18.556  0.00  0.00    +0.000 C 
ATOM      3  N   UNL     1       1.841   8.847  19.268  0.00  0.00    +0.000 N 
ATOM      4  N   UNL     1       0.588  10.820  19.157  0.00  0.00    +0.000 N 
ATOM      5  C   UNL     1       1.193  11.351  20.380  0.00  0.00    +0.000 C 
ATOM      6  C   UNL     1       1.273  12.874  20.368  0.00  0.00    +0.000 C 
ATOM      7  C   UNL     1      -0.074  13.541  20.037  0.00  0.00    +0.000 C 
ATOM      8  F   UNL     1       0.212  14.866  19.804  0.00  0.00    +0.000 F 
ATOM      9  C   UNL     1      -0.566  12.965  18.701  0.00  0.00    +0.000 C 
ATOM     10  C   UNL     1      -0.655  11.450  18.716  0.00  0.00    +0.000 C 
ATOM     11  H   UNL     1       1.701   8.892  20.266  0.00  0.00    +0.000 HD
ENDROOT
BRANCH   3  12
ATOM     12  C   UNL     1       2.338   7.624  18.773  0.00  0.00    +0.000 A 
ATOM     13  C   UNL     1       3.361   7.655  17.831  0.00  0.00    +0.000 A 
ATOM     14  C   UNL     1       3.913   6.460  17.370  0.00  0.00    +0.000 A 
ATOM     15  C   UNL     1       3.407   5.224  17.795  0.00  0.00    +0.000 A 
ATOM     16 CL   UNL     1       4.182   3.823  17.154  0.00  0.00    +0.000 Cl
ATOM     17  C   UNL     1       2.336   5.171  18.694  0.00  0.00    +0.000 A 
ATOM     18  C   UNL     1       1.823   6.392  19.191  0.00  0.00    +0.000 A 
BRANCH  17  19
ATOM     19  C   UNL     1       1.676   3.901  19.168  0.00  0.00    +0.000 C 
ATOM     20  F   UNL     1       0.665   4.044  20.065  0.00  0.00    +0.000 F 
ATOM     21  F   UNL     1       1.152   3.177  18.140  0.00  0.00    +0.000 F 
ATOM     22  F   UNL     1       2.573   3.069  19.778  0.00  0.00    +0.000 F 
ENDBRANCH  17  19
ENDBRANCH   3  12
BRANCH   7  23
ATOM     23  C   UNL     1      -1.090  13.433  21.172  0.00  0.00    +0.000 A 
ATOM     24  N   UNL     1      -2.264  12.783  20.950  0.00  0.00    +0.000 NA
ATOM     25  C   UNL     1      -3.122  12.633  21.990  0.00  0.00    +0.000 A 
ATOM     26  C   UNL     1      -2.898  13.131  23.270  0.00  0.00    +0.000 A 
ATOM     27  C   UNL     1      -1.693  13.800  23.480  0.00  0.00    +0.000 A 
ATOM     28  C   UNL     1      -0.782  13.935  22.437  0.00  0.00    +0.000 A 
ATOM     29  F   UNL     1       0.380  14.559  22.676  0.00  0.00    +0.000 F 
BRANCH  26  30
ATOM     30  C   UNL     1      -3.943  12.964  24.347  0.00  0.00    +0.000 C 
BRANCH  30  31
ATOM     31  O   UNL     1      -3.743  13.954  25.354  0.00  0.00    +0.000 OA
ATOM     32  H   UNL     1      -4.606  14.206  25.720  0.00  0.00    +0.000 HD
ENDBRANCH  30  31
BRANCH  30  33
ATOM     33  C   UNL     1      -5.380  13.035  23.795  0.00  0.00    +0.000 C 
BRANCH  33  34
ATOM     34  O   UNL     1      -6.187  11.961  24.266  0.00  0.00    +0.000 OA
ATOM     35  H   UNL     1      -5.973  11.813  25.203  0.00  0.00    +0.000 HD
ENDBRANCH  33  34
ENDBRANCH  30  33
ENDBRANCH  26  30
ENDBRANCH   7  23
TORSDOF 7
ENDMDL
