MODEL 1
REMARK VINA RESULT:      -7.6      0.000      0.000
REMARK  Name = 
REMARK  7 active torsions:
REMARK  status: ('A' for Active; 'I' for Inactive)
REMARK    1  A    between atoms: C_1  and  C_2
REMARK    2  A    between atoms: C_4  and  O_5
REMARK    3  A    between atoms: C_7  and  C_8
REMARK    4  A    between atoms: C_9  and  C_10
REMARK    5  A    between atoms: C_10  and  C_11
REMARK    6  A    between atoms: C_11  and  N_12
REMARK    7  A    between atoms: C_11  and  C_13
REMARK                            x       y       z     vdW  Elec       q    Type
REMARK                         _______ _______ _______ _____ _____    ______ ____
ROOT
ATOM      1  C   UNL     1       1.504  10.029  19.296  0.00  0.00    +0.000 C 
ENDROOT
BRANCH   1   2
ATOM      2  C   UNL     1       1.833   8.820  18.356  0.00  0.00    +0.000 C 
ATOM      3  O   UNL     1       1.814   8.956  17.131  0.00  0.00    +0.000 OA
ATOM      4  N   UNL     1       2.264   7.632  18.937  0.00  0.00    +0.000 N 
ATOM      5  C   UNL     1       2.244   7.318  20.364  0.00  0.00    +0.000 C 
ATOM      6  C   UNL     1       1.224   6.208  20.612  0.00  0.00    +0.000 C 
ATOM      7  C   UNL     1       1.571   4.998  19.780  0.00  0.00    +0.000 A 
ATOM      8  C   UNL     1       1.172   3.721  20.198  0.00  0.00    +0.000 A 
ATOM      9  C   UNL     1       1.521   2.598  19.450  0.00  0.00    +0.000 A 
ATOM     10  C   UNL     1       2.255   2.756  18.282  0.00  0.00    +0.000 A 
ATOM     11  F   UNL     1       2.609   1.672  17.578  0.00  0.00    +0.000 F 
ATOM     12  C   UNL     1       2.632   4.017  17.834  0.00  0.00    +0.000 A 
ATOM     13  C   UNL     1       2.283   5.160  18.571  0.00  0.00    +0.000 A 
ATOM     14  C   UNL     1       2.698   6.531  18.070  0.00  0.00    +0.000 C 
ENDBRANCH   1   2
BRANCH   1  15
ATOM     15  N   UNL     1       1.681  11.252  18.481  0.00  0.00    +0.000 NA
ATOM     16  H   UNL     1       0.823  11.802  18.545  0.00  0.00    +0.000 HD
ATOM     17  H   UNL     1       1.763  10.991  17.498  0.00  0.00    +0.000 HD
ENDBRANCH   1  15
BRANCH   1  18
ATOM     18  C   UNL     1       0.066   9.866  19.838  0.00  0.00    +0.000 C 
BRANCH  18  26
ATOM     19  C   UNL     1      -0.520  11.936  21.775  0.00  0.00    +0.000 C 
ATOM     20  C   UNL     1      -1.433  11.731  20.586  0.00  0.00    +0.000 A 
ATOM     21  C   UNL     1      -2.591  12.525  20.528  0.00  0.00    +0.000 A 
ATOM     22  C   UNL     1      -3.455  12.405  19.457  0.00  0.00    +0.000 A 
ATOM     23  C   UNL     1      -3.152  11.548  18.413  0.00  0.00    +0.000 A 
ATOM     24  C   UNL     1      -1.983  10.752  18.423  0.00  0.00    +0.000 A 
ATOM     25  C   UNL     1      -1.773   9.918  17.191  0.00  0.00    +0.000 C 
ATOM     26  C   UNL     1      -1.134  10.778  19.555  0.00  0.00    +0.000 A 
BRANCH  22  27
ATOM     27  O   UNL     1      -4.609  13.126  19.385  0.00  0.00    +0.000 OA
ATOM     28  H   UNL     1      -4.417  13.968  18.941  0.00  0.00    +0.000 HD
ENDBRANCH  22  27
ENDBRANCH  18  26
ENDBRANCH   1  18
TORSDOF 5
ENDMDL
MODEL 2
REMARK VINA RESULT:      -7.6      1.356      1.846
REMARK  Name = 
REMARK  7 active torsions:
REMARK  status: ('A' for Active; 'I' for Inactive)
REMARK    1  A    between atoms: C_1  and  C_2
REMARK    2  A    between atoms: C_4  and  O_5
REMARK    3  A    between atoms: C_7  and  C_8
REMARK    4  A    between atoms: C_9  and  C_10
REMARK    5  A    between atoms: C_10  and  C_11
REMARK    6  A    between atoms: C_11  and  N_12
REMARK    7  A    between atoms: C_11  and  C_13
REMARK                            x       y       z     vdW  Elec       q    Type
REMARK                         _______ _______ _______ _____ _____    ______ ____
ROOT
ATOM      1  C   UNL     1       1.472  10.002  19.327  0.00  0.00    +0.000 C 
ENDROOT
BRANCH   1   2
ATOM      2  C   UNL     1       1.812   8.802  18.379  0.00  0.00    +0.000 C 
ATOM      3  O   UNL     1       1.793   8.947  17.155  0.00  0.00    +0.000 OA
ATOM      4  N   UNL     1       2.255   7.615  18.953  0.00  0.00    +0.000 N 
ATOM      5  C   UNL     1       2.237   7.291  20.377  0.00  0.00    +0.000 C 
ATOM      6  C   UNL     1       1.227   6.170  20.618  0.00  0.00    +0.000 C 
ATOM      7  C   UNL     1       1.586   4.969  19.777  0.00  0.00    +0.000 A 
ATOM      8  C   UNL     1       1.198   3.685  20.187  0.00  0.00    +0.000 A 
ATOM      9  C   UNL     1       1.558   2.571  19.432  0.00  0.00    +0.000 A 
ATOM     10  C   UNL     1       2.291   2.743  18.265  0.00  0.00    +0.000 A 
ATOM     11  F   UNL     1       2.656   1.668  17.554  0.00  0.00    +0.000 F 
ATOM     12  C   UNL     1       2.657   4.010  17.826  0.00  0.00    +0.000 A 
ATOM     13  C   UNL     1       2.297   5.145  18.570  0.00  0.00    +0.000 A 
ATOM     14  C   UNL     1       2.699   6.524  18.078  0.00  0.00    +0.000 C 
ENDBRANCH   1   2
BRANCH   1  15
ATOM     15  N   UNL     1       1.632  11.231  18.519  0.00  0.00    +0.000 NA
ATOM     16  H   UNL     1       0.713  11.498  18.162  0.00  0.00    +0.000 HD
ATOM     17  H   UNL     1       2.192  11.019  17.692  0.00  0.00    +0.000 HD
ENDBRANCH   1  15
BRANCH   1  18
ATOM     18  C   UNL     1       0.038   9.818  19.873  0.00  0.00    +0.000 C 
BRANCH  18  26
ATOM     19  C   UNL     1       0.330   9.379  22.719  0.00  0.00    +0.000 C 
ATOM     20  C   UNL     1      -0.608  10.453  22.211  0.00  0.00    +0.000 A 
ATOM     21  C   UNL     1      -1.367  11.142  23.171  0.00  0.00    +0.000 A 
ATOM     22  C   UNL     1      -2.224  12.150  22.777  0.00  0.00    +0.000 A 
ATOM     23  C   UNL     1      -2.293  12.522  21.446  0.00  0.00    +0.000 A 
ATOM     24  C   UNL     1      -1.526  11.869  20.453  0.00  0.00    +0.000 A 
ATOM     25  C   UNL     1      -1.675  12.429  19.066  0.00  0.00    +0.000 C 
ATOM     26  C   UNL     1      -0.717  10.765  20.814  0.00  0.00    +0.000 A 
BRANCH  22  27
ATOM     27  O   UNL     1      -3.009  12.813  23.673  0.00  0.00    +0.000 OA
ATOM     28  H   UNL     1      -3.136  12.243  24.449  0.00  0.00    +0.000 HD
ENDBRANCH  22  27
ENDBRANCH  18  26
ENDBRANCH   1  18
TORSDOF 5
ENDMDL
MODEL 3
REMARK VINA RESULT:      -7.5      1.269      2.201
REMARK  Name = 
REMARK  7 active torsions:
REMARK  status: ('A' for Active; 'I' for Inactive)
REMARK    1  A    between atoms: C_1  and  C_2
REMARK    2  A    between atoms: C_4  and  O_5
REMARK    3  A    between atoms: C_7  and  C_8
REMARK    4  A    between atoms: C_9  and  C_10
REMARK    5  A    between atoms: C_10  and  C_11
REMARK    6  A    between atoms: C_11  and  N_12
REMARK    7  A    between atoms: C_11  and  C_13
REMARK                            x       y       z     vdW  Elec       q    Type
REMARK                         _______ _______ _______ _____ _____    ______ ____
ROOT
ATOM      1  C   UNL     1       1.493  10.040  19.192  0.00  0.00    +0.000 C 
ENDROOT
BRANCH   1   2
ATOM      2  C   UNL     1       1.869   8.793  18.321  0.00  0.00    +0.000 C 
ATOM      3  O   UNL     1       1.906   8.877  17.091  0.00  0.00    +0.000 OA
ATOM      4  N   UNL     1       2.277   7.634  18.972  0.00  0.00    +0.000 N 
ATOM      5  C   UNL     1       2.192   7.380  20.408  0.00  0.00    +0.000 C 
ATOM      6  C   UNL     1       1.165   6.277  20.657  0.00  0.00    +0.000 C 
ATOM      7  C   UNL     1       1.554   5.034  19.893  0.00  0.00    +0.000 A 
ATOM      8  C   UNL     1       1.140   3.774  20.347  0.00  0.00    +0.000 A 
ATOM      9  C   UNL     1       1.527   2.622  19.665  0.00  0.00    +0.000 A 
ATOM     10  C   UNL     1       2.313   2.734  18.525  0.00  0.00    +0.000 A 
ATOM     11  F   UNL     1       2.704   1.623  17.885  0.00  0.00    +0.000 F 
ATOM     12  C   UNL     1       2.707   3.976  18.042  0.00  0.00    +0.000 A 
ATOM     13  C   UNL     1       2.321   5.148  18.713  0.00  0.00    +0.000 A 
ATOM     14  C   UNL     1       2.754   6.499  18.173  0.00  0.00    +0.000 C 
ENDBRANCH   1   2
BRANCH   1  15
ATOM     15  N   UNL     1       1.799  11.231  18.370  0.00  0.00    +0.000 NA
ATOM     16  H   UNL     1       0.961  11.815  18.332  0.00  0.00    +0.000 HD
ATOM     17  H   UNL     1       1.970  10.941  17.407  0.00  0.00    +0.000 HD
ENDBRANCH   1  15
BRANCH   1  18
ATOM     18  C   UNL     1       0.002   9.943  19.588  0.00  0.00    +0.000 C 
BRANCH  18  26
ATOM     19  C   UNL     1      -1.839  12.021  18.769  0.00  0.00    +0.000 C 
ATOM     20  C   UNL     1      -1.545  11.807  20.238  0.00  0.00    +0.000 A 
ATOM     21  C   UNL     1      -2.134  12.705  21.143  0.00  0.00    +0.000 A 
ATOM     22  C   UNL     1      -1.925  12.550  22.499  0.00  0.00    +0.000 A 
ATOM     23  C   UNL     1      -1.186  11.480  22.971  0.00  0.00    +0.000 A 
ATOM     24  C   UNL     1      -0.598  10.541  22.092  0.00  0.00    +0.000 A 
ATOM     25  C   UNL     1       0.126   9.409  22.766  0.00  0.00    +0.000 C 
ATOM     26  C   UNL     1      -0.709  10.732  20.694  0.00  0.00    +0.000 A 
BRANCH  22  27
ATOM     27  O   UNL     1      -2.445  13.425  23.407  0.00  0.00    +0.000 OA
ATOM     28  H   UNL     1      -3.381  13.202  23.545  0.00  0.00    +0.000 HD
ENDBRANCH  22  27
ENDBRANCH  18  26
ENDBRANCH   1  18
TORSDOF 5
ENDMDL
MODEL 4
REMARK VINA RESULT:      -7.5      0.909      1.942
REMARK  Name = 
REMARK  7 active torsions:
REMARK  status: ('A' for Active; 'I' for Inactive)
REMARK    1  A    between atoms: C_1  and  C_2
REMARK    2  A    between atoms: C_4  and  O_5
REMARK    3  A    between atoms: C_7  and  C_8
REMARK    4  A    between atoms: C_9  and  C_10
REMARK    5  A    between atoms: C_10  and  C_11
REMARK    6  A    between atoms: C_11  and  N_12
REMARK    7  A    between atoms: C_11  and  C_13
REMARK                            x       y       z     vdW  Elec       q    Type
REMARK                         _______ _______ _______ _____ _____    ______ ____
ROOT
ATOM      1  C   UNL     1       1.740   9.641  18.504  0.00  0.00    +0.000 C 
ENDROOT
BRANCH   1   2
ATOM      2  C   UNL     1       2.408   8.323  17.983  0.00  0.00    +0.000 C 
ATOM      3  O   UNL     1       2.818   8.246  16.822  0.00  0.00    +0.000 OA
ATOM      4  N   UNL     1       2.638   7.297  18.892  0.00  0.00    +0.000 N 
ATOM      5  C   UNL     1       2.126   7.230  20.259  0.00  0.00    +0.000 C 
ATOM      6  C   UNL     1       1.113   6.091  20.353  0.00  0.00    +0.000 C 
ATOM      7  C   UNL     1       1.761   4.793  19.936  0.00  0.00    +0.000 A 
ATOM      8  C   UNL     1       1.272   3.575  20.430  0.00  0.00    +0.000 A 
ATOM      9  C   UNL     1       1.890   2.377  20.075  0.00  0.00    +0.000 A 
ATOM     10  C   UNL     1       2.983   2.399  19.219  0.00  0.00    +0.000 A 
ATOM     11  F   UNL     1       3.590   1.248  18.899  0.00  0.00    +0.000 F 
ATOM     12  C   UNL     1       3.461   3.594  18.694  0.00  0.00    +0.000 A 
ATOM     13  C   UNL     1       2.847   4.810  19.035  0.00  0.00    +0.000 A 
ATOM     14  C   UNL     1       3.377   6.108  18.452  0.00  0.00    +0.000 C 
ENDBRANCH   1   2
BRANCH   1  15
ATOM     15  N   UNL     1       2.291  10.742  17.684  0.00  0.00    +0.000 NA
ATOM     16  H   UNL     1       3.274  10.536  17.495  0.00  0.00    +0.000 HD
ATOM     17  H   UNL     1       2.296  11.601  18.234  0.00  0.00    +0.000 HD
ENDBRANCH   1  15
BRANCH   1  18
ATOM     18  C   UNL     1       0.205   9.505  18.385  0.00  0.00    +0.000 C 
BRANCH  18  26
ATOM     19  C   UNL     1      -2.177   9.983  16.811  0.00  0.00    +0.000 C 
ATOM     20  C   UNL     1      -1.972  10.721  18.117  0.00  0.00    +0.000 A 
ATOM     21  C   UNL     1      -2.934  11.684  18.463  0.00  0.00    +0.000 A 
ATOM     22  C   UNL     1      -2.819  12.375  19.653  0.00  0.00    +0.000 A 
ATOM     23  C   UNL     1      -1.790  12.080  20.531  0.00  0.00    +0.000 A 
ATOM     24  C   UNL     1      -0.816  11.100  20.229  0.00  0.00    +0.000 A 
ATOM     25  C   UNL     1       0.201  10.862  21.310  0.00  0.00    +0.000 C 
ATOM     26  C   UNL     1      -0.851  10.450  18.972  0.00  0.00    +0.000 A 
BRANCH  22  27
ATOM     27  O   UNL     1      -3.708  13.346  20.005  0.00  0.00    +0.000 OA
ATOM     28  H   UNL     1      -4.273  13.000  20.717  0.00  0.00    +0.000 HD
ENDBRANCH  22  27
ENDBRANCH  18  26
ENDBRANCH   1  18
TORSDOF 5
ENDMDL
MODEL 5
REMARK VINA RESULT:      -7.4      3.486      7.876
REMARK  Name = 
REMARK  7 active torsions:
REMARK  status: ('A' for Active; 'I' for Inactive)
REMARK    1  A    between atoms: C_1  and  C_2
REMARK    2  A    between atoms: C_4  and  O_5
REMARK    3  A    between atoms: C_7  and  C_8
REMARK    4  A    between atoms: C_9  and  C_10
REMARK    5  A    between atoms: C_10  and  C_11
REMARK    6  A    between atoms: C_11  and  N_12
REMARK    7  A    between atoms: C_11  and  C_13
REMARK                            x       y       z     vdW  Elec       q    Type
REMARK                         _______ _______ _______ _____ _____    ______ ____
ROOT
ATOM      1  C   UNL     1       1.508   8.674  20.882  0.00  0.00    +0.000 C 
ENDROOT
BRANCH   1   2
ATOM      2  C   UNL     1       0.101   9.362  20.872  0.00  0.00    +0.000 C 
ATOM      3  O   UNL     1      -0.617   9.331  21.874  0.00  0.00    +0.000 OA
ATOM      4  N   UNL     1      -0.260  10.108  19.755  0.00  0.00    +0.000 N 
ATOM      5  C   UNL     1       0.456  10.149  18.482  0.00  0.00    +0.000 C 
ATOM      6  C   UNL     1      -0.408   9.491  17.407  0.00  0.00    +0.000 C 
ATOM      7  C   UNL     1      -1.740  10.194  17.320  0.00  0.00    +0.000 A 
ATOM      8  C   UNL     1      -2.467  10.175  16.120  0.00  0.00    +0.000 A 
ATOM      9  C   UNL     1      -3.681  10.853  16.026  0.00  0.00    +0.000 A 
ATOM     10  C   UNL     1      -4.171  11.535  17.133  0.00  0.00    +0.000 A 
ATOM     11  F   UNL     1      -5.326  12.205  17.032  0.00  0.00    +0.000 F 
ATOM     12  C   UNL     1      -3.481  11.538  18.339  0.00  0.00    +0.000 A 
ATOM     13  C   UNL     1      -2.260  10.855  18.455  0.00  0.00    +0.000 A 
ATOM     14  C   UNL     1      -1.518  10.863  19.779  0.00  0.00    +0.000 C 
ENDBRANCH   1   2
BRANCH   1  15
ATOM     15  N   UNL     1       1.999   8.746  22.275  0.00  0.00    +0.000 NA
ATOM     16  H   UNL     1       1.205   8.964  22.881  0.00  0.00    +0.000 HD
ATOM     17  H   UNL     1       2.635   9.539  22.368  0.00  0.00    +0.000 HD
ENDBRANCH   1  15
BRANCH   1  18
ATOM     18  C   UNL     1       1.361   7.225  20.365  0.00  0.00    +0.000 C 
BRANCH  18  26
ATOM     19  C   UNL     1       1.817   4.495  21.215  0.00  0.00    +0.000 C 
ATOM     20  C   UNL     1       2.659   5.094  20.109  0.00  0.00    +0.000 A 
ATOM     21  C   UNL     1       3.698   4.299  19.597  0.00  0.00    +0.000 A 
ATOM     22  C   UNL     1       4.488   4.777  18.571  0.00  0.00    +0.000 A 
ATOM     23  C   UNL     1       4.222   6.012  18.006  0.00  0.00    +0.000 A 
ATOM     24  C   UNL     1       3.169   6.831  18.477  0.00  0.00    +0.000 A 
ATOM     25  C   UNL     1       2.979   8.116  17.721  0.00  0.00    +0.000 C 
ATOM     26  C   UNL     1       2.409   6.411  19.595  0.00  0.00    +0.000 A 
BRANCH  22  27
ATOM     27  O   UNL     1       5.532   4.053  18.075  0.00  0.00    +0.000 OA
ATOM     28  H   UNL     1       5.173   3.317  17.552  0.00  0.00    +0.000 HD
ENDBRANCH  22  27
ENDBRANCH  18  26
ENDBRANCH   1  18
TORSDOF 5
ENDMDL
MODEL 6
REMARK VINA RESULT:      -7.3      6.186      8.828
REMARK  Name = 
REMARK  7 active torsions:
REMARK  status: ('A' for Active; 'I' for Inactive)
REMARK    1  A    between atoms: C_1  and  C_2
REMARK    2  A    between atoms: C_4  and  O_5
REMARK    3  A    between atoms: C_7  and  C_8
REMARK    4  A    between atoms: C_9  and  C_10
REMARK    5  A    between atoms: C_10  and  C_11
REMARK    6  A    between atoms: C_11  and  N_12
REMARK    7  A    between atoms: C_11  and  C_13
REMARK                            x       y       z     vdW  Elec       q    Type
REMARK                         _______ _______ _______ _____ _____    ______ ____
ROOT
ATOM      1  C   UNL     1       6.674   6.429  16.742  0.00  0.00    +0.000 C 
ENDROOT
BRANCH   1   2
ATOM      2  C   UNL     1       6.324   5.561  17.998  0.00  0.00    +0.000 C 
ATOM      3  O   UNL     1       7.197   4.901  18.565  0.00  0.00    +0.000 OA
ATOM      4  N   UNL     1       5.040   5.654  18.525  0.00  0.00    +0.000 N 
ATOM      5  C   UNL     1       3.902   6.324  17.901  0.00  0.00    +0.000 C 
ATOM      6  C   UNL     1       2.867   5.273  17.502  0.00  0.00    +0.000 C 
ATOM      7  C   UNL     1       2.449   4.480  18.716  0.00  0.00    +0.000 A 
ATOM      8  C   UNL     1       1.185   3.873  18.757  0.00  0.00    +0.000 A 
ATOM      9  C   UNL     1       0.783   3.169  19.890  0.00  0.00    +0.000 A 
ATOM     10  C   UNL     1       1.648   3.062  20.972  0.00  0.00    +0.000 A 
ATOM     11  F   UNL     1       1.249   2.405  22.070  0.00  0.00    +0.000 F 
ATOM     12  C   UNL     1       2.916   3.629  20.937  0.00  0.00    +0.000 A 
ATOM     13  C   UNL     1       3.342   4.336  19.801  0.00  0.00    +0.000 A 
ATOM     14  C   UNL     1       4.731   4.948  19.773  0.00  0.00    +0.000 C 
ENDBRANCH   1   2
BRANCH   1  15
ATOM     15  N   UNL     1       7.459   7.582  17.236  0.00  0.00    +0.000 NA
ATOM     16  H   UNL     1       6.869   8.415  17.180  0.00  0.00    +0.000 HD
ATOM     17  H   UNL     1       8.236   7.758  16.598  0.00  0.00    +0.000 HD
ENDBRANCH   1  15
BRANCH   1  18
ATOM     18  C   UNL     1       7.450   5.556  15.730  0.00  0.00    +0.000 C 
BRANCH  18  26
ATOM     19  C   UNL     1       8.627   5.780  13.095  0.00  0.00    +0.000 C 
ATOM     20  C   UNL     1       7.415   4.900  13.310  0.00  0.00    +0.000 A 
ATOM     21  C   UNL     1       6.863   4.287  12.173  0.00  0.00    +0.000 A 
ATOM     22  C   UNL     1       5.771   3.453  12.303  0.00  0.00    +0.000 A 
ATOM     23  C   UNL     1       5.257   3.172  13.557  0.00  0.00    +0.000 A 
ATOM     24  C   UNL     1       5.801   3.750  14.728  0.00  0.00    +0.000 A 
ATOM     25  C   UNL     1       5.163   3.301  16.012  0.00  0.00    +0.000 C 
ATOM     26  C   UNL     1       6.854   4.689  14.614  0.00  0.00    +0.000 A 
BRANCH  22  27
ATOM     27  O   UNL     1       5.180   2.872  11.220  0.00  0.00    +0.000 OA
ATOM     28  H   UNL     1       5.269   1.908  11.302  0.00  0.00    +0.000 HD
ENDBRANCH  22  27
ENDBRANCH  18  26
ENDBRANCH   1  18
TORSDOF 5
ENDMDL
MODEL 7
REMARK VINA RESULT:      -7.2      6.245      8.931
REMARK  Name = 
REMARK  7 active torsions:
REMARK  status: ('A' for Active; 'I' for Inactive)
REMARK    1  A    between atoms: C_1  and  C_2
REMARK    2  A    between atoms: C_4  and  O_5
REMARK    3  A    between atoms: C_7  and  C_8
REMARK    4  A    between atoms: C_9  and  C_10
REMARK    5  A    between atoms: C_10  and  C_11
REMARK    6  A    between atoms: C_11  and  N_12
REMARK    7  A    between atoms: C_11  and  C_13
REMARK                            x       y       z     vdW  Elec       q    Type
REMARK                         _______ _______ _______ _____ _____    ______ ____
ROOT
ATOM      1  C   UNL     1       6.671   6.229  16.741  0.00  0.00    +0.000 C 
ENDROOT
BRANCH   1   2
ATOM      2  C   UNL     1       6.283   5.473  18.057  0.00  0.00    +0.000 C 
ATOM      3  O   UNL     1       7.143   4.889  18.721  0.00  0.00    +0.000 OA
ATOM      4  N   UNL     1       4.975   5.584  18.519  0.00  0.00    +0.000 N 
ATOM      5  C   UNL     1       3.853   6.166  17.787  0.00  0.00    +0.000 C 
ATOM      6  C   UNL     1       2.857   5.060  17.445  0.00  0.00    +0.000 C 
ATOM      7  C   UNL     1       2.402   4.373  18.710  0.00  0.00    +0.000 A 
ATOM      8  C   UNL     1       1.149   3.743  18.754  0.00  0.00    +0.000 A 
ATOM      9  C   UNL     1       0.711   3.138  19.930  0.00  0.00    +0.000 A 
ATOM     10  C   UNL     1       1.529   3.153  21.053  0.00  0.00    +0.000 A 
ATOM     11  F   UNL     1       1.095   2.591  22.189  0.00  0.00    +0.000 F 
ATOM     12  C   UNL     1       2.786   3.744  21.018  0.00  0.00    +0.000 A 
ATOM     13  C   UNL     1       3.248   4.351  19.840  0.00  0.00    +0.000 A 
ATOM     14  C   UNL     1       4.625   4.990  19.814  0.00  0.00    +0.000 C 
ENDBRANCH   1   2
BRANCH   1  15
ATOM     15  N   UNL     1       7.474   7.401  17.154  0.00  0.00    +0.000 NA
ATOM     16  H   UNL     1       7.905   7.800  16.318  0.00  0.00    +0.000 HD
ATOM     17  H   UNL     1       8.252   7.088  17.735  0.00  0.00    +0.000 HD
ENDBRANCH   1  15
BRANCH   1  18
ATOM     18  C   UNL     1       7.444   5.260  15.817  0.00  0.00    +0.000 C 
BRANCH  18  26
ATOM     19  C   UNL     1       5.158   3.484  15.844  0.00  0.00    +0.000 C 
ATOM     20  C   UNL     1       5.888   3.757  14.547  0.00  0.00    +0.000 A 
ATOM     21  C   UNL     1       5.457   3.052  13.411  0.00  0.00    +0.000 A 
ATOM     22  C   UNL     1       6.065   3.273  12.192  0.00  0.00    +0.000 A 
ATOM     23  C   UNL     1       7.059   4.229  12.075  0.00  0.00    +0.000 A 
ATOM     24  C   UNL     1       7.503   4.977  13.190  0.00  0.00    +0.000 A 
ATOM     25  C   UNL     1       8.549   6.012  12.883  0.00  0.00    +0.000 C 
ATOM     26  C   UNL     1       6.970   4.699  14.471  0.00  0.00    +0.000 A 
BRANCH  22  27
ATOM     27  O   UNL     1       5.704   2.579  11.076  0.00  0.00    +0.000 OA
ATOM     28  H   UNL     1       5.704   1.632  11.291  0.00  0.00    +0.000 HD
ENDBRANCH  22  27
ENDBRANCH  18  26
ENDBRANCH   1  18
TORSDOF 5
ENDMDL
MODEL 8
REMARK VINA RESULT:      -7.2      3.530      8.440
REMARK  Name = 
REMARK  7 active torsions:
REMARK  status: ('A' for Active; 'I' for Inactive)
REMARK    1  A    between atoms: C_1  and  C_2
REMARK    2  A    between atoms: C_4  and  O_5
REMARK    3  A    between atoms: C_7  and  C_8
REMARK    4  A    between atoms: C_9  and  C_10
REMARK    5  A    between atoms: C_10  and  C_11
REMARK    6  A    between atoms: C_11  and  N_12
REMARK    7  A    between atoms: C_11  and  C_13
REMARK                            x       y       z     vdW  Elec       q    Type
REMARK                         _______ _______ _______ _____ _____    ______ ____
ROOT
ATOM      1  C   UNL     1       2.366   7.089  18.115  0.00  0.00    +0.000 C 
ENDROOT
BRANCH   1   2
ATOM      2  C   UNL     1       1.847   7.815  19.402  0.00  0.00    +0.000 C 
ATOM      3  O   UNL     1       1.977   7.292  20.511  0.00  0.00    +0.000 OA
ATOM      4  N   UNL     1       1.353   9.109  19.275  0.00  0.00    +0.000 N 
ATOM      5  C   UNL     1       1.067   9.799  18.019  0.00  0.00    +0.000 C 
ATOM      6  C   UNL     1      -0.442  10.001  17.897  0.00  0.00    +0.000 C 
ATOM      7  C   UNL     1      -0.953  10.775  19.088  0.00  0.00    +0.000 A 
ATOM      8  C   UNL     1      -2.119  11.546  18.975  0.00  0.00    +0.000 A 
ATOM      9  C   UNL     1      -2.574  12.290  20.062  0.00  0.00    +0.000 A 
ATOM     10  C   UNL     1      -1.871  12.251  21.260  0.00  0.00    +0.000 A 
ATOM     11  F   UNL     1      -2.297  12.987  22.295  0.00  0.00    +0.000 F 
ATOM     12  C   UNL     1      -0.732  11.468  21.399  0.00  0.00    +0.000 A 
ATOM     13  C   UNL     1      -0.263  10.706  20.318  0.00  0.00    +0.000 A 
ATOM     14  C   UNL     1       0.981   9.852  20.484  0.00  0.00    +0.000 C 
ENDBRANCH   1   2
BRANCH   1  15
ATOM     15  N   UNL     1       3.833   7.279  18.091  0.00  0.00    +0.000 NA
ATOM     16  H   UNL     1       4.261   6.510  18.612  0.00  0.00    +0.000 HD
ATOM     17  H   UNL     1       4.071   8.123  18.612  0.00  0.00    +0.000 HD
ENDBRANCH   1  15
BRANCH   1  18
ATOM     18  C   UNL     1       1.948   5.602  18.175  0.00  0.00    +0.000 C 
BRANCH  18  26
ATOM     19  C   UNL     1       1.130   4.156  20.546  0.00  0.00    +0.000 C 
ATOM     20  C   UNL     1       2.419   3.790  19.843  0.00  0.00    +0.000 A 
ATOM     21  C   UNL     1       3.211   2.795  20.441  0.00  0.00    +0.000 A 
ATOM     22  C   UNL     1       4.387   2.397  19.838  0.00  0.00    +0.000 A 
ATOM     23  C   UNL     1       4.758   2.933  18.617  0.00  0.00    +0.000 A 
ATOM     24  C   UNL     1       3.974   3.918  17.971  0.00  0.00    +0.000 A 
ATOM     25  C   UNL     1       4.487   4.355  16.628  0.00  0.00    +0.000 C 
ATOM     26  C   UNL     1       2.818   4.419  18.616  0.00  0.00    +0.000 A 
BRANCH  22  27
ATOM     27  O   UNL     1       5.204   1.466  20.407  0.00  0.00    +0.000 OA
ATOM     28  H   UNL     1       4.747   0.608  20.394  0.00  0.00    +0.000 HD
ENDBRANCH  22  27
ENDBRANCH  18  26
ENDBRANCH   1  18
TORSDOF 5
ENDMDL
MODEL 9
REMARK VINA RESULT:      -7.2      1.004      1.013
REMARK  Name = 
REMARK  7 active torsions:
REMARK  status: ('A' for Active; 'I' for Inactive)
REMARK    1  A    between atoms: C_1  and  C_2
REMARK    2  A    between atoms: C_4  and  O_5
REMARK    3  A    between atoms: C_7  and  C_8
REMARK    4  A    between atoms: C_9  and  C_10
REMARK    5  A    between atoms: C_10  and  C_11
REMARK    6  A    between atoms: C_11  and  N_12
REMARK    7  A    between atoms: C_11  and  C_13
REMARK                            x       y       z     vdW  Elec       q    Type
REMARK                         _______ _______ _______ _____ _____    ______ ____
ROOT
ATOM      1  C   UNL     1       1.530   9.715  18.591  0.00  0.00    +0.000 C 
ENDROOT
BRANCH   1   2
ATOM      2  C   UNL     1       2.279   8.414  18.142  0.00  0.00    +0.000 C 
ATOM      3  O   UNL     1       2.701   8.301  16.989  0.00  0.00    +0.000 OA
ATOM      4  N   UNL     1       2.565   7.453  19.106  0.00  0.00    +0.000 N 
ATOM      5  C   UNL     1       2.049   7.428  20.473  0.00  0.00    +0.000 C 
ATOM      6  C   UNL     1       1.105   6.237  20.625  0.00  0.00    +0.000 C 
ATOM      7  C   UNL     1       1.833   4.960  20.280  0.00  0.00    +0.000 A 
ATOM      8  C   UNL     1       1.415   3.743  20.837  0.00  0.00    +0.000 A 
ATOM      9  C   UNL     1       2.106   2.567  20.549  0.00  0.00    +0.000 A 
ATOM     10  C   UNL     1       3.202   2.610  19.696  0.00  0.00    +0.000 A 
ATOM     11  F   UNL     1       3.879   1.482  19.440  0.00  0.00    +0.000 F 
ATOM     12  C   UNL     1       3.611   3.802  19.110  0.00  0.00    +0.000 A 
ATOM     13  C   UNL     1       2.922   4.995  19.382  0.00  0.00    +0.000 A 
ATOM     14  C   UNL     1       3.376   6.289  18.733  0.00  0.00    +0.000 C 
ENDBRANCH   1   2
BRANCH   1  15
ATOM     15  N   UNL     1       1.930  10.776  17.641  0.00  0.00    +0.000 NA
ATOM     16  H   UNL     1       2.928  10.672  17.451  0.00  0.00    +0.000 HD
ATOM     17  H   UNL     1       1.834  11.686  18.093  0.00  0.00    +0.000 HD
ENDBRANCH   1  15
BRANCH   1  18
ATOM     18  C   UNL     1       0.009   9.441  18.589  0.00  0.00    +0.000 C 
BRANCH  18  26
ATOM     19  C   UNL     1       0.065  11.221  20.872  0.00  0.00    +0.000 C 
ATOM     20  C   UNL     1      -1.088  11.282  19.893  0.00  0.00    +0.000 A 
ATOM     21  C   UNL     1      -2.136  12.165  20.198  0.00  0.00    +0.000 A 
ATOM     22  C   UNL     1      -3.207  12.286  19.335  0.00  0.00    +0.000 A 
ATOM     23  C   UNL     1      -3.221  11.583  18.143  0.00  0.00    +0.000 A 
ATOM     24  C   UNL     1      -2.172  10.703  17.789  0.00  0.00    +0.000 A 
ATOM     25  C   UNL     1      -2.313  10.059  16.438  0.00  0.00    +0.000 C 
ATOM     26  C   UNL     1      -1.113  10.481  18.702  0.00  0.00    +0.000 A 
BRANCH  22  27
ATOM     27  O   UNL     1      -4.264  13.101  19.615  0.00  0.00    +0.000 OA
ATOM     28  H   UNL     1      -3.959  13.802  20.214  0.00  0.00    +0.000 HD
ENDBRANCH  22  27
ENDBRANCH  18  26
ENDBRANCH   1  18
TORSDOF 5
ENDMDL
