MODEL 1
REMARK VINA RESULT:      -6.5      0.000      0.000
REMARK  Name = 
REMARK  10 active torsions:
REMARK  status: ('A' for Active; 'I' for Inactive)
REMARK    1  A    between atoms: C_1  and  N_2
REMARK    2  A    between atoms: N_2  and  C_3
REMARK    3  A    between atoms: N_2  and  C_4
REMARK    4  A    between atoms: C_4  and  S_6
REMARK    5  A    between atoms: S_6  and  C_7
REMARK    6  A    between atoms: C_7  and  N_9
REMARK    7  A    between atoms: N_12  and  C_13
REMARK    8  A    between atoms: C_13  and  N_15
REMARK    9  A    between atoms: N_15  and  C_16
REMARK   10  A    between atoms: C_16  and  C_17
REMARK                            x       y       z     vdW  Elec       q    Type
REMARK                         _______ _______ _______ _____ _____    ______ ____
ROOT
ATOM      1  N   UNL     1       2.404   7.723  18.963  0.00  0.00    +0.000 N 
ATOM      2  C   UNL     1       2.765   7.693  17.531  0.00  0.00    +0.000 C 
ATOM      3  C   UNL     1       4.170   7.127  17.302  0.00  0.00    +0.000 C 
ATOM      4  N   UNL     1       4.313   5.819  17.948  0.00  0.00    +0.000 N 
ATOM      5  C   UNL     1       3.925   5.773  19.361  0.00  0.00    +0.000 C 
ATOM      6  C   UNL     1       2.551   6.408  19.625  0.00  0.00    +0.000 C 
ENDROOT
BRANCH   1   7
ATOM      7  C   UNL     1       1.626   8.747  19.518  0.00  0.00    +0.000 C 
ATOM      8  S   UNL     1       0.920   8.704  21.046  0.00  0.00    +0.000 S 
BRANCH   7   9
ATOM      9  S   UNL     1       1.350  10.140  18.470  0.00  0.00    +0.000 S 
BRANCH   9  10
ATOM     10  C   UNL     1       0.442  11.233  19.543  0.00  0.00    +0.000 C 
ATOM     11  S   UNL     1       1.209  12.308  20.601  0.00  0.00    +0.000 S 
BRANCH  10  13
ATOM     12  C   UNL     1      -1.837  12.162  20.035  0.00  0.00    +0.000 C 
ATOM     13  N   UNL     1      -0.960  11.206  19.353  0.00  0.00    +0.000 N 
ATOM     14  C   UNL     1      -1.629  10.237  18.484  0.00  0.00    +0.000 C 
ENDBRANCH  10  13
ENDBRANCH   9  10
ENDBRANCH   7   9
ENDBRANCH   1   7
BRANCH   4  15
ATOM     15  C   UNL     1       4.854   4.738  17.265  0.00  0.00    +0.000 C 
ATOM     16  S   UNL     1       5.492   4.860  15.727  0.00  0.00    +0.000 S 
BRANCH  15  17
ATOM     17  N   UNL     1       4.865   3.607  18.043  0.00  0.00    +0.000 N 
ATOM     18  H   UNL     1       5.340   3.728  18.928  0.00  0.00    +0.000 HD
BRANCH  17  19
ATOM     19  C   UNL     1       3.945   2.486  17.978  0.00  0.00    +0.000 C 
BRANCH  19  20
ATOM     20  C   UNL     1       2.954   2.593  19.109  0.00  0.00    +0.000 A 
ATOM     21  C   UNL     1       1.598   2.843  18.859  0.00  0.00    +0.000 A 
ATOM     22  C   UNL     1       0.698   2.996  19.919  0.00  0.00    +0.000 A 
ATOM     23  C   UNL     1       1.154   2.908  21.233  0.00  0.00    +0.000 A 
ATOM     24  C   UNL     1       2.501   2.667  21.498  0.00  0.00    +0.000 A 
ATOM     25  C   UNL     1       3.397   2.512  20.440  0.00  0.00    +0.000 A 
ENDBRANCH  19  20
ENDBRANCH  17  19
ENDBRANCH  15  17
ENDBRANCH   4  15
TORSDOF 8
ENDMDL
MODEL 2
REMARK VINA RESULT:      -6.4      0.845      1.271
REMARK  Name = 
REMARK  10 active torsions:
REMARK  status: ('A' for Active; 'I' for Inactive)
REMARK    1  A    between atoms: C_1  and  N_2
REMARK    2  A    between atoms: N_2  and  C_3
REMARK    3  A    between atoms: N_2  and  C_4
REMARK    4  A    between atoms: C_4  and  S_6
REMARK    5  A    between atoms: S_6  and  C_7
REMARK    6  A    between atoms: C_7  and  N_9
REMARK    7  A    between atoms: N_12  and  C_13
REMARK    8  A    between atoms: C_13  and  N_15
REMARK    9  A    between atoms: N_15  and  C_16
REMARK   10  A    between atoms: C_16  and  C_17
REMARK                            x       y       z     vdW  Elec       q    Type
REMARK                         _______ _______ _______ _____ _____    ______ ____
ROOT
ATOM      1  N   UNL     1       2.552   7.662  18.860  0.00  0.00    +0.000 N 
ATOM      2  C   UNL     1       2.894   7.581  17.425  0.00  0.00    +0.000 C 
ATOM      3  C   UNL     1       4.299   7.013  17.199  0.00  0.00    +0.000 C 
ATOM      4  N   UNL     1       4.455   5.729  17.891  0.00  0.00    +0.000 N 
ATOM      5  C   UNL     1       4.086   5.734  19.310  0.00  0.00    +0.000 C 
ATOM      6  C   UNL     1       2.713   6.373  19.568  0.00  0.00    +0.000 C 
ENDROOT
BRANCH   1   7
ATOM      7  C   UNL     1       1.776   8.704  19.386  0.00  0.00    +0.000 C 
ATOM      8  S   UNL     1       0.962   8.651  20.860  0.00  0.00    +0.000 S 
BRANCH   7   9
ATOM      9  S   UNL     1       1.631  10.132  18.362  0.00  0.00    +0.000 S 
BRANCH   9  10
ATOM     10  C   UNL     1       0.031  10.759  18.828  0.00  0.00    +0.000 C 
ATOM     11  S   UNL     1      -1.405  10.155  18.168  0.00  0.00    +0.000 S 
BRANCH  10  13
ATOM     12  C   UNL     1       1.291  12.432  20.209  0.00  0.00    +0.000 C 
ATOM     13  N   UNL     1       0.059  11.716  19.870  0.00  0.00    +0.000 N 
ATOM     14  C   UNL     1      -1.115  12.052  20.677  0.00  0.00    +0.000 C 
ENDBRANCH  10  13
ENDBRANCH   9  10
ENDBRANCH   7   9
ENDBRANCH   1   7
BRANCH   4  15
ATOM     15  C   UNL     1       4.993   4.626  17.241  0.00  0.00    +0.000 C 
ATOM     16  S   UNL     1       5.811   4.734  15.790  0.00  0.00    +0.000 S 
BRANCH  15  17
ATOM     17  N   UNL     1       4.832   3.481  17.980  0.00  0.00    +0.000 N 
ATOM     18  H   UNL     1       5.299   3.508  18.878  0.00  0.00    +0.000 HD
BRANCH  17  19
ATOM     19  C   UNL     1       3.771   2.499  17.861  0.00  0.00    +0.000 C 
BRANCH  19  20
ATOM     20  C   UNL     1       2.864   2.600  19.062  0.00  0.00    +0.000 A 
ATOM     21  C   UNL     1       1.499   2.881  18.913  0.00  0.00    +0.000 A 
ATOM     22  C   UNL     1       0.680   3.029  20.037  0.00  0.00    +0.000 A 
ATOM     23  C   UNL     1       1.225   2.906  21.313  0.00  0.00    +0.000 A 
ATOM     24  C   UNL     1       2.582   2.635  21.477  0.00  0.00    +0.000 A 
ATOM     25  C   UNL     1       3.398   2.484  20.356  0.00  0.00    +0.000 A 
ENDBRANCH  19  20
ENDBRANCH  17  19
ENDBRANCH  15  17
ENDBRANCH   4  15
TORSDOF 8
ENDMDL
MODEL 3
REMARK VINA RESULT:      -6.2      1.022      1.608
REMARK  Name = 
REMARK  10 active torsions:
REMARK  status: ('A' for Active; 'I' for Inactive)
REMARK    1  A    between atoms: C_1  and  N_2
REMARK    2  A    between atoms: N_2  and  C_3
REMARK    3  A    between atoms: N_2  and  C_4
REMARK    4  A    between atoms: C_4  and  S_6
REMARK    5  A    between atoms: S_6  and  C_7
REMARK    6  A    between atoms: C_7  and  N_9
REMARK    7  A    between atoms: N_12  and  C_13
REMARK    8  A    between atoms: C_13  and  N_15
REMARK    9  A    between atoms: N_15  and  C_16
REMARK   10  A    between atoms: C_16  and  C_17
REMARK                            x       y       z     vdW  Elec       q    Type
REMARK                         _______ _______ _______ _____ _____    ______ ____
ROOT
ATOM      1  N   UNL     1       1.893   8.115  19.347  0.00  0.00    +0.000 N 
ATOM      2  C   UNL     1       2.098   8.172  17.885  0.00  0.00    +0.000 C 
ATOM      3  C   UNL     1       3.494   7.690  17.479  0.00  0.00    +0.000 C 
ATOM      4  N   UNL     1       3.764   6.361  18.035  0.00  0.00    +0.000 N 
ATOM      5  C   UNL     1       3.534   6.227  19.477  0.00  0.00    +0.000 C 
ATOM      6  C   UNL     1       2.171   6.778  19.918  0.00  0.00    +0.000 C 
ENDROOT
BRANCH   1   7
ATOM      7  C   UNL     1       1.135   9.071  20.035  0.00  0.00    +0.000 C 
ATOM      8  S   UNL     1       1.083   9.240  21.710  0.00  0.00    +0.000 S 
BRANCH   7   9
ATOM      9  S   UNL     1       0.133  10.113  19.024  0.00  0.00    +0.000 S 
BRANCH   9  10
ATOM     10  C   UNL     1       0.518  11.729  19.666  0.00  0.00    +0.000 C 
ATOM     11  S   UNL     1       1.888  12.594  19.178  0.00  0.00    +0.000 S 
BRANCH  10  13
ATOM     12  C   UNL     1      -1.897  12.132  20.216  0.00  0.00    +0.000 C 
ATOM     13  N   UNL     1      -0.470  12.268  20.523  0.00  0.00    +0.000 N 
ATOM     14  C   UNL     1      -0.151  12.993  21.753  0.00  0.00    +0.000 C 
ENDBRANCH  10  13
ENDBRANCH   9  10
ENDBRANCH   7   9
ENDBRANCH   1   7
BRANCH   4  15
ATOM     15  C   UNL     1       4.277   5.343  17.241  0.00  0.00    +0.000 C 
ATOM     16  S   UNL     1       5.810   5.387  16.583  0.00  0.00    +0.000 S 
BRANCH  15  17
ATOM     17  N   UNL     1       3.400   4.292  17.145  0.00  0.00    +0.000 N 
ATOM     18  H   UNL     1       2.799   4.337  16.332  0.00  0.00    +0.000 HD
BRANCH  17  19
ATOM     19  C   UNL     1       3.531   2.978  17.748  0.00  0.00    +0.000 C 
BRANCH  19  20
ATOM     20  C   UNL     1       2.782   2.957  19.057  0.00  0.00    +0.000 A 
ATOM     21  C   UNL     1       3.439   2.660  20.259  0.00  0.00    +0.000 A 
ATOM     22  C   UNL     1       2.722   2.588  21.459  0.00  0.00    +0.000 A 
ATOM     23  C   UNL     1       1.345   2.803  21.457  0.00  0.00    +0.000 A 
ATOM     24  C   UNL     1       0.677   3.091  20.269  0.00  0.00    +0.000 A 
ATOM     25  C   UNL     1       1.393   3.166  19.074  0.00  0.00    +0.000 A 
ENDBRANCH  19  20
ENDBRANCH  17  19
ENDBRANCH  15  17
ENDBRANCH   4  15
TORSDOF 8
ENDMDL
MODEL 4
REMARK VINA RESULT:      -6.2      1.003      1.121
REMARK  Name = 
REMARK  10 active torsions:
REMARK  status: ('A' for Active; 'I' for Inactive)
REMARK    1  A    between atoms: C_1  and  N_2
REMARK    2  A    between atoms: N_2  and  C_3
REMARK    3  A    between atoms: N_2  and  C_4
REMARK    4  A    between atoms: C_4  and  S_6
REMARK    5  A    between atoms: S_6  and  C_7
REMARK    6  A    between atoms: C_7  and  N_9
REMARK    7  A    between atoms: N_12  and  C_13
REMARK    8  A    between atoms: C_13  and  N_15
REMARK    9  A    between atoms: N_15  and  C_16
REMARK   10  A    between atoms: C_16  and  C_17
REMARK                            x       y       z     vdW  Elec       q    Type
REMARK                         _______ _______ _______ _____ _____    ______ ____
ROOT
ATOM      1  N   UNL     1       2.058   8.079  19.084  0.00  0.00    +0.000 N 
ATOM      2  C   UNL     1       2.420   8.131  17.652  0.00  0.00    +0.000 C 
ATOM      3  C   UNL     1       3.856   7.660  17.403  0.00  0.00    +0.000 C 
ATOM      4  N   UNL     1       4.075   6.335  17.992  0.00  0.00    +0.000 N 
ATOM      5  C   UNL     1       3.691   6.206  19.402  0.00  0.00    +0.000 C 
ATOM      6  C   UNL     1       2.283   6.748  19.689  0.00  0.00    +0.000 C 
ENDROOT
BRANCH   1   7
ATOM      7  C   UNL     1       1.221   9.031  19.679  0.00  0.00    +0.000 C 
ATOM      8  S   UNL     1       1.089   9.298  21.337  0.00  0.00    +0.000 S 
BRANCH   7   9
ATOM      9  S   UNL     1       0.210   9.954  18.566  0.00  0.00    +0.000 S 
BRANCH   9  10
ATOM     10  C   UNL     1       0.814  11.611  18.808  0.00  0.00    +0.000 C 
ATOM     11  S   UNL     1       2.362  12.091  18.321  0.00  0.00    +0.000 S 
BRANCH  10  13
ATOM     12  C   UNL     1      -0.325  13.846  18.757  0.00  0.00    +0.000 C 
ATOM     13  N   UNL     1      -0.144  12.511  19.332  0.00  0.00    +0.000 N 
ATOM     14  C   UNL     1      -1.004  12.187  20.471  0.00  0.00    +0.000 C 
ENDBRANCH  10  13
ENDBRANCH   9  10
ENDBRANCH   7   9
ENDBRANCH   1   7
BRANCH   4  15
ATOM     15  C   UNL     1       4.680   5.319  17.265  0.00  0.00    +0.000 C 
ATOM     16  S   UNL     1       5.301   5.542  15.732  0.00  0.00    +0.000 S 
BRANCH  15  17
ATOM     17  N   UNL     1       4.764   4.160  17.997  0.00  0.00    +0.000 N 
ATOM     18  H   UNL     1       5.199   4.283  18.902  0.00  0.00    +0.000 HD
BRANCH  17  19
ATOM     19  C   UNL     1       3.949   2.969  17.855  0.00  0.00    +0.000 C 
BRANCH  19  20
ATOM     20  C   UNL     1       2.980   2.891  19.008  0.00  0.00    +0.000 A 
ATOM     21  C   UNL     1       1.611   3.121  18.817  0.00  0.00    +0.000 A 
ATOM     22  C   UNL     1       0.731   3.102  19.904  0.00  0.00    +0.000 A 
ATOM     23  C   UNL     1       1.219   2.862  21.187  0.00  0.00    +0.000 A 
ATOM     24  C   UNL     1       2.579   2.640  21.394  0.00  0.00    +0.000 A 
ATOM     25  C   UNL     1       3.456   2.656  20.309  0.00  0.00    +0.000 A 
ENDBRANCH  19  20
ENDBRANCH  17  19
ENDBRANCH  15  17
ENDBRANCH   4  15
TORSDOF 8
ENDMDL
MODEL 5
REMARK VINA RESULT:      -6.1      0.506      1.254
REMARK  Name = 
REMARK  10 active torsions:
REMARK  status: ('A' for Active; 'I' for Inactive)
REMARK    1  A    between atoms: C_1  and  N_2
REMARK    2  A    between atoms: N_2  and  C_3
REMARK    3  A    between atoms: N_2  and  C_4
REMARK    4  A    between atoms: C_4  and  S_6
REMARK    5  A    between atoms: S_6  and  C_7
REMARK    6  A    between atoms: C_7  and  N_9
REMARK    7  A    between atoms: N_12  and  C_13
REMARK    8  A    between atoms: C_13  and  N_15
REMARK    9  A    between atoms: N_15  and  C_16
REMARK   10  A    between atoms: C_16  and  C_17
REMARK                            x       y       z     vdW  Elec       q    Type
REMARK                         _______ _______ _______ _____ _____    ______ ____
ROOT
ATOM      1  N   UNL     1       2.599   7.628  18.784  0.00  0.00    +0.000 N 
ATOM      2  C   UNL     1       2.931   7.499  17.350  0.00  0.00    +0.000 C 
ATOM      3  C   UNL     1       4.328   6.911  17.132  0.00  0.00    +0.000 C 
ATOM      4  N   UNL     1       4.478   5.648  17.862  0.00  0.00    +0.000 N 
ATOM      5  C   UNL     1       4.119   5.700  19.283  0.00  0.00    +0.000 C 
ATOM      6  C   UNL     1       2.754   6.360  19.530  0.00  0.00    +0.000 C 
ENDROOT
BRANCH   1   7
ATOM      7  C   UNL     1       1.837   8.692  19.283  0.00  0.00    +0.000 C 
ATOM      8  S   UNL     1       1.030   8.692  20.762  0.00  0.00    +0.000 S 
BRANCH   7   9
ATOM      9  S   UNL     1       1.700  10.091  18.218  0.00  0.00    +0.000 S 
BRANCH   9  10
ATOM     10  C   UNL     1       0.651  11.174  19.164  0.00  0.00    +0.000 C 
ATOM     11  S   UNL     1       1.214  12.035  20.506  0.00  0.00    +0.000 S 
BRANCH  10  13
ATOM     12  C   UNL     1      -1.563  10.199  18.497  0.00  0.00    +0.000 C 
ATOM     13  N   UNL     1      -0.651  11.337  18.632  0.00  0.00    +0.000 N 
ATOM     14  C   UNL     1      -1.172  12.628  18.180  0.00  0.00    +0.000 C 
ENDBRANCH  10  13
ENDBRANCH   9  10
ENDBRANCH   7   9
ENDBRANCH   1   7
BRANCH   4  15
ATOM     15  C   UNL     1       5.000   4.521  17.243  0.00  0.00    +0.000 C 
ATOM     16  S   UNL     1       5.724   4.561  15.740  0.00  0.00    +0.000 S 
BRANCH  15  17
ATOM     17  N   UNL     1       4.913   3.417  18.054  0.00  0.00    +0.000 N 
ATOM     18  H   UNL     1       5.410   3.517  18.931  0.00  0.00    +0.000 HD
BRANCH  17  19
ATOM     19  C   UNL     1       3.890   2.388  18.033  0.00  0.00    +0.000 C 
BRANCH  19  20
ATOM     20  C   UNL     1       2.945   2.605  19.189  0.00  0.00    +0.000 A 
ATOM     21  C   UNL     1       3.382   2.466  20.514  0.00  0.00    +0.000 A 
ATOM     22  C   UNL     1       2.482   2.614  21.575  0.00  0.00    +0.000 A 
ATOM     23  C   UNL     1       1.142   2.893  21.314  0.00  0.00    +0.000 A 
ATOM     24  C   UNL     1       0.692   3.027  20.002  0.00  0.00    +0.000 A 
ATOM     25  C   UNL     1       1.590   2.882  18.944  0.00  0.00    +0.000 A 
ENDBRANCH  19  20
ENDBRANCH  17  19
ENDBRANCH  15  17
ENDBRANCH   4  15
TORSDOF 8
ENDMDL
MODEL 6
REMARK VINA RESULT:      -6.1      2.408      8.206
REMARK  Name = 
REMARK  10 active torsions:
REMARK  status: ('A' for Active; 'I' for Inactive)
REMARK    1  A    between atoms: C_1  and  N_2
REMARK    2  A    between atoms: N_2  and  C_3
REMARK    3  A    between atoms: N_2  and  C_4
REMARK    4  A    between atoms: C_4  and  S_6
REMARK    5  A    between atoms: S_6  and  C_7
REMARK    6  A    between atoms: C_7  and  N_9
REMARK    7  A    between atoms: N_12  and  C_13
REMARK    8  A    between atoms: C_13  and  N_15
REMARK    9  A    between atoms: N_15  and  C_16
REMARK   10  A    between atoms: C_16  and  C_17
REMARK                            x       y       z     vdW  Elec       q    Type
REMARK                         _______ _______ _______ _____ _____    ______ ____
ROOT
ATOM      1  N   UNL     1       2.391   7.279  19.137  0.00  0.00    +0.000 N 
ATOM      2  C   UNL     1       2.572   8.349  18.134  0.00  0.00    +0.000 C 
ATOM      3  C   UNL     1       1.330   9.236  18.007  0.00  0.00    +0.000 C 
ATOM      4  N   UNL     1       0.928   9.754  19.319  0.00  0.00    +0.000 N 
ATOM      5  C   UNL     1       0.777   8.744  20.371  0.00  0.00    +0.000 C 
ATOM      6  C   UNL     1       1.979   7.792  20.462  0.00  0.00    +0.000 C 
ENDROOT
BRANCH   1   7
ATOM      7  C   UNL     1       2.943   6.002  18.977  0.00  0.00    +0.000 C 
ATOM      8  S   UNL     1       4.592   5.666  18.896  0.00  0.00    +0.000 S 
BRANCH   7   9
ATOM      9  S   UNL     1       1.778   4.690  18.794  0.00  0.00    +0.000 S 
BRANCH   9  10
ATOM     10  C   UNL     1       2.423   3.466  19.916  0.00  0.00    +0.000 C 
ATOM     11  S   UNL     1       1.973   3.406  21.545  0.00  0.00    +0.000 S 
BRANCH  10  13
ATOM     12  C   UNL     1       4.443   1.979  19.979  0.00  0.00    +0.000 C 
ATOM     13  N   UNL     1       3.246   2.490  19.305  0.00  0.00    +0.000 N 
ATOM     14  C   UNL     1       2.976   1.934  17.979  0.00  0.00    +0.000 C 
ENDBRANCH  10  13
ENDBRANCH   9  10
ENDBRANCH   7   9
ENDBRANCH   1   7
BRANCH   4  15
ATOM     15  C   UNL     1       0.641  11.100  19.500  0.00  0.00    +0.000 C 
ATOM     16  S   UNL     1       1.610  12.125  20.392  0.00  0.00    +0.000 S 
BRANCH  15  17
ATOM     17  N   UNL     1      -0.476  11.474  18.796  0.00  0.00    +0.000 N 
ATOM     18  H   UNL     1      -0.287  11.709  17.829  0.00  0.00    +0.000 HD
BRANCH  17  19
ATOM     19  C   UNL     1      -1.857  11.147  19.097  0.00  0.00    +0.000 C 
BRANCH  19  20
ATOM     20  C   UNL     1      -2.596  10.880  17.809  0.00  0.00    +0.000 A 
ATOM     21  C   UNL     1      -2.044  10.056  16.819  0.00  0.00    +0.000 A 
ATOM     22  C   UNL     1      -2.712   9.862  15.605  0.00  0.00    +0.000 A 
ATOM     23  C   UNL     1      -3.930  10.499  15.376  0.00  0.00    +0.000 A 
ATOM     24  C   UNL     1      -4.488  11.327  16.348  0.00  0.00    +0.000 A 
ATOM     25  C   UNL     1      -3.822  11.518  17.559  0.00  0.00    +0.000 A 
ENDBRANCH  19  20
ENDBRANCH  17  19
ENDBRANCH  15  17
ENDBRANCH   4  15
TORSDOF 8
ENDMDL
MODEL 7
REMARK VINA RESULT:      -6.1      2.027      7.820
REMARK  Name = 
REMARK  10 active torsions:
REMARK  status: ('A' for Active; 'I' for Inactive)
REMARK    1  A    between atoms: C_1  and  N_2
REMARK    2  A    between atoms: N_2  and  C_3
REMARK    3  A    between atoms: N_2  and  C_4
REMARK    4  A    between atoms: C_4  and  S_6
REMARK    5  A    between atoms: S_6  and  C_7
REMARK    6  A    between atoms: C_7  and  N_9
REMARK    7  A    between atoms: N_12  and  C_13
REMARK    8  A    between atoms: C_13  and  N_15
REMARK    9  A    between atoms: N_15  and  C_16
REMARK   10  A    between atoms: C_16  and  C_17
REMARK                            x       y       z     vdW  Elec       q    Type
REMARK                         _______ _______ _______ _____ _____    ______ ____
ROOT
ATOM      1  N   UNL     1       2.575   5.102  19.099  0.00  0.00    +0.000 N 
ATOM      2  C   UNL     1       1.790   5.348  20.327  0.00  0.00    +0.000 C 
ATOM      3  C   UNL     1       2.068   6.733  20.920  0.00  0.00    +0.000 C 
ATOM      4  N   UNL     1       1.876   7.777  19.908  0.00  0.00    +0.000 N 
ATOM      5  C   UNL     1       2.593   7.565  18.646  0.00  0.00    +0.000 C 
ATOM      6  C   UNL     1       2.393   6.153  18.075  0.00  0.00    +0.000 C 
ENDROOT
BRANCH   1   7
ATOM      7  C   UNL     1       3.085   3.837  18.779  0.00  0.00    +0.000 C 
ATOM      8  S   UNL     1       2.174   2.550  18.186  0.00  0.00    +0.000 S 
BRANCH   7   9
ATOM      9  S   UNL     1       4.807   3.613  19.093  0.00  0.00    +0.000 S 
BRANCH   9  10
ATOM     10  C   UNL     1       5.547   4.483  17.728  0.00  0.00    +0.000 C 
ATOM     11  S   UNL     1       5.265   4.047  16.118  0.00  0.00    +0.000 S 
BRANCH  10  13
ATOM     12  C   UNL     1       6.245   6.855  17.300  0.00  0.00    +0.000 C 
ATOM     13  N   UNL     1       6.292   5.627  18.099  0.00  0.00    +0.000 N 
ATOM     14  C   UNL     1       7.153   5.670  19.281  0.00  0.00    +0.000 C 
ENDBRANCH  10  13
ENDBRANCH   9  10
ENDBRANCH   7   9
ENDBRANCH   1   7
BRANCH   4  15
ATOM     15  C   UNL     1       1.127   8.913  20.183  0.00  0.00    +0.000 C 
ATOM     16  S   UNL     1       0.728   9.386  21.733  0.00  0.00    +0.000 S 
BRANCH  15  17
ATOM     17  N   UNL     1       0.839   9.614  19.039  0.00  0.00    +0.000 N 
ATOM     18  H   UNL     1       0.735   9.029  18.219  0.00  0.00    +0.000 HD
BRANCH  17  19
ATOM     19  C   UNL     1       0.240  10.931  18.941  0.00  0.00    +0.000 C 
BRANCH  19  20
ATOM     20  C   UNL     1      -1.164  10.799  18.405  0.00  0.00    +0.000 A 
ATOM     21  C   UNL     1      -1.460   9.897  17.374  0.00  0.00    +0.000 A 
ATOM     22  C   UNL     1      -2.753   9.824  16.846  0.00  0.00    +0.000 A 
ATOM     23  C   UNL     1      -3.752  10.659  17.342  0.00  0.00    +0.000 A 
ATOM     24  C   UNL     1      -3.471  11.567  18.362  0.00  0.00    +0.000 A 
ATOM     25  C   UNL     1      -2.182  11.637  18.889  0.00  0.00    +0.000 A 
ENDBRANCH  19  20
ENDBRANCH  17  19
ENDBRANCH  15  17
ENDBRANCH   4  15
TORSDOF 8
ENDMDL
MODEL 8
REMARK VINA RESULT:      -6.1      2.357      8.249
REMARK  Name = 
REMARK  10 active torsions:
REMARK  status: ('A' for Active; 'I' for Inactive)
REMARK    1  A    between atoms: C_1  and  N_2
REMARK    2  A    between atoms: N_2  and  C_3
REMARK    3  A    between atoms: N_2  and  C_4
REMARK    4  A    between atoms: C_4  and  S_6
REMARK    5  A    between atoms: S_6  and  C_7
REMARK    6  A    between atoms: C_7  and  N_9
REMARK    7  A    between atoms: N_12  and  C_13
REMARK    8  A    between atoms: C_13  and  N_15
REMARK    9  A    between atoms: N_15  and  C_16
REMARK   10  A    between atoms: C_16  and  C_17
REMARK                            x       y       z     vdW  Elec       q    Type
REMARK                         _______ _______ _______ _____ _____    ______ ____
ROOT
ATOM      1  N   UNL     1       2.343   7.286  19.127  0.00  0.00    +0.000 N 
ATOM      2  C   UNL     1       2.554   8.346  18.120  0.00  0.00    +0.000 C 
ATOM      3  C   UNL     1       1.332   9.258  17.979  0.00  0.00    +0.000 C 
ATOM      4  N   UNL     1       0.932   9.792  19.285  0.00  0.00    +0.000 N 
ATOM      5  C   UNL     1       0.752   8.791  20.341  0.00  0.00    +0.000 C 
ATOM      6  C   UNL     1       1.933   7.814  20.446  0.00  0.00    +0.000 C 
ENDROOT
BRANCH   1   7
ATOM      7  C   UNL     1       2.870   5.996  18.977  0.00  0.00    +0.000 C 
ATOM      8  S   UNL     1       3.687   5.439  17.614  0.00  0.00    +0.000 S 
BRANCH   7   9
ATOM      9  S   UNL     1       2.576   4.897  20.326  0.00  0.00    +0.000 S 
BRANCH   9  10
ATOM     10  C   UNL     1       2.223   3.367  19.485  0.00  0.00    +0.000 C 
ATOM     11  S   UNL     1       0.727   3.058  18.759  0.00  0.00    +0.000 S 
BRANCH  10  13
ATOM     12  C   UNL     1       3.502   1.625  18.210  0.00  0.00    +0.000 C 
ATOM     13  N   UNL     1       3.329   2.490  19.380  0.00  0.00    +0.000 N 
ATOM     14  C   UNL     1       4.359   2.377  20.413  0.00  0.00    +0.000 C 
ENDBRANCH  10  13
ENDBRANCH   9  10
ENDBRANCH   7   9
ENDBRANCH   1   7
BRANCH   4  15
ATOM     15  C   UNL     1       0.673  11.145  19.457  0.00  0.00    +0.000 C 
ATOM     16  S   UNL     1       1.729  12.184  20.227  0.00  0.00    +0.000 S 
BRANCH  15  17
ATOM     17  N   UNL     1      -0.504  11.511  18.851  0.00  0.00    +0.000 N 
ATOM     18  H   UNL     1      -0.378  11.910  17.930  0.00  0.00    +0.000 HD
BRANCH  17  19
ATOM     19  C   UNL     1      -1.834  11.005  19.134  0.00  0.00    +0.000 C 
BRANCH  19  20
ATOM     20  C   UNL     1      -2.570  10.794  17.835  0.00  0.00    +0.000 A 
ATOM     21  C   UNL     1      -2.045   9.965  16.834  0.00  0.00    +0.000 A 
ATOM     22  C   UNL     1      -2.709   9.823  15.611  0.00  0.00    +0.000 A 
ATOM     23  C   UNL     1      -3.896  10.516  15.383  0.00  0.00    +0.000 A 
ATOM     24  C   UNL     1      -4.426  11.350  16.365  0.00  0.00    +0.000 A 
ATOM     25  C   UNL     1      -3.765  11.489  17.585  0.00  0.00    +0.000 A 
ENDBRANCH  19  20
ENDBRANCH  17  19
ENDBRANCH  15  17
ENDBRANCH   4  15
TORSDOF 8
ENDMDL
MODEL 9
REMARK VINA RESULT:      -6.1      2.761      4.565
REMARK  Name = 
REMARK  10 active torsions:
REMARK  status: ('A' for Active; 'I' for Inactive)
REMARK    1  A    between atoms: C_1  and  N_2
REMARK    2  A    between atoms: N_2  and  C_3
REMARK    3  A    between atoms: N_2  and  C_4
REMARK    4  A    between atoms: C_4  and  S_6
REMARK    5  A    between atoms: S_6  and  C_7
REMARK    6  A    between atoms: C_7  and  N_9
REMARK    7  A    between atoms: N_12  and  C_13
REMARK    8  A    between atoms: C_13  and  N_15
REMARK    9  A    between atoms: N_15  and  C_16
REMARK   10  A    between atoms: C_16  and  C_17
REMARK                            x       y       z     vdW  Elec       q    Type
REMARK                         _______ _______ _______ _____ _____    ______ ____
ROOT
ATOM      1  N   UNL     1       0.702  10.041  19.388  0.00  0.00    +0.000 N 
ATOM      2  C   UNL     1       1.111   9.406  18.118  0.00  0.00    +0.000 C 
ATOM      3  C   UNL     1       2.364   8.541  18.283  0.00  0.00    +0.000 C 
ATOM      4  N   UNL     1       2.184   7.571  19.367  0.00  0.00    +0.000 N 
ATOM      5  C   UNL     1       1.733   8.135  20.643  0.00  0.00    +0.000 C 
ATOM      6  C   UNL     1       0.525   9.070  20.490  0.00  0.00    +0.000 C 
ENDROOT
BRANCH   1   7
ATOM      7  C   UNL     1       0.147  11.326  19.437  0.00  0.00    +0.000 C 
ATOM      8  S   UNL     1      -1.087  11.884  18.436  0.00  0.00    +0.000 S 
BRANCH   7   9
ATOM      9  S   UNL     1       0.872  12.420  20.617  0.00  0.00    +0.000 S 
BRANCH   9  10
ATOM     10  C   UNL     1       1.388  13.780  19.591  0.00  0.00    +0.000 C 
ATOM     11  S   UNL     1       2.523  13.598  18.351  0.00  0.00    +0.000 S 
BRANCH  10  13
ATOM     12  C   UNL     1       0.630  15.581  21.166  0.00  0.00    +0.000 C 
ATOM     13  N   UNL     1       0.689  14.988  19.827  0.00  0.00    +0.000 N 
ATOM     14  C   UNL     1      -0.020  15.718  18.776  0.00  0.00    +0.000 C 
ENDBRANCH  10  13
ENDBRANCH   9  10
ENDBRANCH   7   9
ENDBRANCH   1   7
BRANCH   4  15
ATOM     15  C   UNL     1       2.502   6.231  19.189  0.00  0.00    +0.000 C 
ATOM     16  S   UNL     1       2.165   5.057  20.327  0.00  0.00    +0.000 S 
BRANCH  15  17
ATOM     17  N   UNL     1       3.043   6.004  17.948  0.00  0.00    +0.000 N 
ATOM     18  H   UNL     1       2.959   6.792  17.318  0.00  0.00    +0.000 HD
BRANCH  17  19
ATOM     19  C   UNL     1       4.063   5.034  17.597  0.00  0.00    +0.000 C 
BRANCH  19  20
ATOM     20  C   UNL     1       5.424   5.630  17.855  0.00  0.00    +0.000 A 
ATOM     21  C   UNL     1       6.233   5.158  18.898  0.00  0.00    +0.000 A 
ATOM     22  C   UNL     1       7.469   5.757  19.163  0.00  0.00    +0.000 A 
ATOM     23  C   UNL     1       7.895   6.837  18.391  0.00  0.00    +0.000 A 
ATOM     24  C   UNL     1       7.098   7.323  17.356  0.00  0.00    +0.000 A 
ATOM     25  C   UNL     1       5.867   6.722  17.091  0.00  0.00    +0.000 A 
ENDBRANCH  19  20
ENDBRANCH  17  19
ENDBRANCH  15  17
ENDBRANCH   4  15
TORSDOF 8
ENDMDL
