MODEL 1
REMARK VINA RESULT:      -9.1      0.000      0.000
REMARK  Name = 
REMARK  9 active torsions:
REMARK  status: ('A' for Active; 'I' for Inactive)
REMARK    1  A    between atoms: C_1  and  C_2
REMARK    2  A    between atoms: C_2  and  C_3
REMARK    3  A    between atoms: C_3  and  C_4
REMARK    4  A    between atoms: C_4  and  O_5
REMARK    5  A    between atoms: O_5  and  C_6
REMARK    6  A    between atoms: C_16  and  C_17
REMARK    7  A    between atoms: C_17  and  C_18
REMARK    8  A    between atoms: C_21  and  C_22
REMARK    9  A    between atoms: C_27  and  C_28
REMARK                            x       y       z     vdW  Elec       q    Type
REMARK                         _______ _______ _______ _____ _____    ______ ____
ROOT
ATOM      1  C   UNL     1       0.965   9.145  19.717  0.00  0.00    +0.000 A 
ATOM      2  C   UNL     1       1.547   8.073  20.395  0.00  0.00    +0.000 A 
ATOM      3  C   UNL     1       2.417   7.196  19.727  0.00  0.00    +0.000 A 
ATOM      4  C   UNL     1       2.715   7.338  18.356  0.00  0.00    +0.000 A 
ATOM      5  C   UNL     1       2.070   8.388  17.687  0.00  0.00    +0.000 A 
ATOM      6  C   UNL     1       1.256   9.303  18.359  0.00  0.00    +0.000 A 
ENDROOT
BRANCH   4   7
ATOM      7  C   UNL     1       3.657   6.408  17.663  0.00  0.00    +0.000 A 
ATOM      8  C   UNL     1       4.783   6.961  17.003  0.00  0.00    +0.000 A 
ATOM      9  C   UNL     1       5.717   6.175  16.322  0.00  0.00    +0.000 A 
ATOM     10  C   UNL     1       5.581   4.795  16.312  0.00  0.00    +0.000 A 
ATOM     11  C   UNL     1       4.501   4.208  16.968  0.00  0.00    +0.000 A 
ATOM     12  C   UNL     1       3.522   4.990  17.621  0.00  0.00    +0.000 A 
BRANCH  12  13
ATOM     13  C   UNL     1       2.414   4.257  18.226  0.00  0.00    +0.000 A 
ATOM     14  N   UNL     1       1.298   3.886  17.506  0.00  0.00    +0.000 NA
ATOM     15  N   UNL     1       0.549   3.144  18.310  0.00  0.00    +0.000 NA
ATOM     16  N   UNL     1       1.235   3.105  19.460  0.00  0.00    +0.000 N 
ATOM     17  N   UNL     1       2.351   3.843  19.504  0.00  0.00    +0.000 NA
ATOM     18  H   UNL     1       0.936   2.528  20.241  0.00  0.00    +0.000 HD
ENDBRANCH  12  13
ENDBRANCH   4   7
BRANCH   1  19
ATOM     19  C   UNL     1      -0.009  10.084  20.396  0.00  0.00    +0.000 C 
BRANCH  19  30
ATOM     20  C   UNL     1      -0.771  11.942  18.867  0.00  0.00    +0.000 A 
ATOM     21  N   UNL     1      -0.786  13.239  18.437  0.00  0.00    +0.000 NA
ATOM     22  C   UNL     1      -0.085  14.111  19.085  0.00  0.00    +0.000 A 
ATOM     23  C   UNL     1      -0.146  15.540  18.669  0.00  0.00    +0.000 A 
ATOM     24  C   UNL     1       0.562  16.462  19.324  0.00  0.00    +0.000 A 
ATOM     25  C   UNL     1       1.406  16.078  20.427  0.00  0.00    +0.000 A 
ATOM     26  C   UNL     1       1.480  14.790  20.789  0.00  0.00    +0.000 A 
ATOM     27  N   UNL     1       0.748  13.806  20.147  0.00  0.00    +0.000 N 
ATOM     28  C   UNL     1       0.926  12.475  20.500  0.00  0.00    +0.000 A 
ATOM     29  O   UNL     1       1.847  12.089  21.220  0.00  0.00    +0.000 OA
ATOM     30  C   UNL     1      -0.025  11.503  19.898  0.00  0.00    +0.000 A 
BRANCH  20  31
ATOM     31  O   UNL     1      -1.587  11.025  18.198  0.00  0.00    +0.000 OA
BRANCH  31  32
ATOM     32  C   UNL     1      -2.950  11.464  18.114  0.00  0.00    +0.000 C 
BRANCH  32  33
ATOM     33  C   UNL     1      -3.703  10.632  17.076  0.00  0.00    +0.000 C 
BRANCH  33  35
ATOM     34  C   UNL     1      -2.988  10.122  14.697  0.00  0.00    +0.000 C 
ATOM     35  C   UNL     1      -2.722   9.883  16.174  0.00  0.00    +0.000 C 
ENDBRANCH  33  35
ENDBRANCH  32  33
ENDBRANCH  31  32
ENDBRANCH  20  31
ENDBRANCH  19  30
ENDBRANCH   1  19
TORSDOF 8
ENDMDL
MODEL 2
REMARK VINA RESULT:      -9.1      2.711      8.737
REMARK  Name = 
REMARK  9 active torsions:
REMARK  status: ('A' for Active; 'I' for Inactive)
REMARK    1  A    between atoms: C_1  and  C_2
REMARK    2  A    between atoms: C_2  and  C_3
REMARK    3  A    between atoms: C_3  and  C_4
REMARK    4  A    between atoms: C_4  and  O_5
REMARK    5  A    between atoms: O_5  and  C_6
REMARK    6  A    between atoms: C_16  and  C_17
REMARK    7  A    between atoms: C_17  and  C_18
REMARK    8  A    between atoms: C_21  and  C_22
REMARK    9  A    between atoms: C_27  and  C_28
REMARK                            x       y       z     vdW  Elec       q    Type
REMARK                         _______ _______ _______ _____ _____    ______ ____
ROOT
ATOM      1  C   UNL     1       2.094   7.416  19.588  0.00  0.00    +0.000 A 
ATOM      2  C   UNL     1       2.279   8.063  18.365  0.00  0.00    +0.000 A 
ATOM      3  C   UNL     1       1.861   9.392  18.193  0.00  0.00    +0.000 A 
ATOM      4  C   UNL     1       1.218  10.113  19.221  0.00  0.00    +0.000 A 
ATOM      5  C   UNL     1       0.991   9.418  20.418  0.00  0.00    +0.000 A 
ATOM      6  C   UNL     1       1.464   8.118  20.619  0.00  0.00    +0.000 A 
ENDROOT
BRANCH   4   7
ATOM      7  C   UNL     1       0.794  11.533  19.029  0.00  0.00    +0.000 A 
ATOM      8  C   UNL     1       1.705  12.559  19.381  0.00  0.00    +0.000 A 
ATOM      9  C   UNL     1       1.400  13.917  19.244  0.00  0.00    +0.000 A 
ATOM     10  C   UNL     1       0.180  14.298  18.708  0.00  0.00    +0.000 A 
ATOM     11  C   UNL     1      -0.737  13.321  18.328  0.00  0.00    +0.000 A 
ATOM     12  C   UNL     1      -0.464  11.947  18.502  0.00  0.00    +0.000 A 
BRANCH  12  13
ATOM     13  C   UNL     1      -1.528  11.026  18.111  0.00  0.00    +0.000 A 
ATOM     14  N   UNL     1      -2.825  11.169  18.558  0.00  0.00    +0.000 NA
ATOM     15  N   UNL     1      -3.551  10.255  17.930  0.00  0.00    +0.000 NA
ATOM     16  N   UNL     1      -2.674   9.610  17.150  0.00  0.00    +0.000 N 
ATOM     17  N   UNL     1      -1.393   9.979  17.279  0.00  0.00    +0.000 NA
ATOM     18  H   UNL     1      -2.969   8.903  16.484  0.00  0.00    +0.000 HD
ENDBRANCH  12  13
ENDBRANCH   4   7
BRANCH   1  19
ATOM     19  C   UNL     1       2.495   5.970  19.794  0.00  0.00    +0.000 C 
BRANCH  19  30
ATOM     20  C   UNL     1       2.735   4.538  17.731  0.00  0.00    +0.000 A 
ATOM     21  N   UNL     1       3.453   3.975  16.713  0.00  0.00    +0.000 NA
ATOM     22  C   UNL     1       4.712   4.254  16.620  0.00  0.00    +0.000 A 
ATOM     23  C   UNL     1       5.492   3.701  15.476  0.00  0.00    +0.000 A 
ATOM     24  C   UNL     1       6.791   3.979  15.352  0.00  0.00    +0.000 A 
ATOM     25  C   UNL     1       7.454   4.799  16.334  0.00  0.00    +0.000 A 
ATOM     26  C   UNL     1       6.760   5.278  17.376  0.00  0.00    +0.000 A 
ATOM     27  N   UNL     1       5.407   5.029  17.531  0.00  0.00    +0.000 N 
ATOM     28  C   UNL     1       4.752   5.472  18.673  0.00  0.00    +0.000 A 
ATOM     29  O   UNL     1       5.345   5.909  19.660  0.00  0.00    +0.000 OA
ATOM     30  C   UNL     1       3.272   5.328  18.678  0.00  0.00    +0.000 A 
BRANCH  20  31
ATOM     31  O   UNL     1       1.362   4.280  17.778  0.00  0.00    +0.000 OA
BRANCH  31  32
ATOM     32  C   UNL     1       1.071   2.936  18.185  0.00  0.00    +0.000 C 
BRANCH  32  33
ATOM     33  C   UNL     1       0.700   2.909  19.668  0.00  0.00    +0.000 C 
BRANCH  33  35
ATOM     34  C   UNL     1       1.708   2.665  21.983  0.00  0.00    +0.000 C 
ATOM     35  C   UNL     1       1.861   2.363  20.501  0.00  0.00    +0.000 C 
ENDBRANCH  33  35
ENDBRANCH  32  33
ENDBRANCH  31  32
ENDBRANCH  20  31
ENDBRANCH  19  30
ENDBRANCH   1  19
TORSDOF 8
ENDMDL
MODEL 3
REMARK VINA RESULT:      -9.0      2.808      9.021
REMARK  Name = 
REMARK  9 active torsions:
REMARK  status: ('A' for Active; 'I' for Inactive)
REMARK    1  A    between atoms: C_1  and  C_2
REMARK    2  A    between atoms: C_2  and  C_3
REMARK    3  A    between atoms: C_3  and  C_4
REMARK    4  A    between atoms: C_4  and  O_5
REMARK    5  A    between atoms: O_5  and  C_6
REMARK    6  A    between atoms: C_16  and  C_17
REMARK    7  A    between atoms: C_17  and  C_18
REMARK    8  A    between atoms: C_21  and  C_22
REMARK    9  A    between atoms: C_27  and  C_28
REMARK                            x       y       z     vdW  Elec       q    Type
REMARK                         _______ _______ _______ _____ _____    ______ ____
ROOT
ATOM      1  C   UNL     1       2.592   7.286  19.354  0.00  0.00    +0.000 A 
ATOM      2  C   UNL     1       1.810   7.715  20.429  0.00  0.00    +0.000 A 
ATOM      3  C   UNL     1       0.858   8.732  20.255  0.00  0.00    +0.000 A 
ATOM      4  C   UNL     1       0.671   9.379  19.015  0.00  0.00    +0.000 A 
ATOM      5  C   UNL     1       1.512   8.969  17.970  0.00  0.00    +0.000 A 
ATOM      6  C   UNL     1       2.414   7.913  18.118  0.00  0.00    +0.000 A 
ENDROOT
BRANCH   4   7
ATOM      7  C   UNL     1      -0.358  10.448  18.842  0.00  0.00    +0.000 A 
ATOM      8  C   UNL     1      -1.636  10.076  18.356  0.00  0.00    +0.000 A 
ATOM      9  C   UNL     1      -2.664  11.003  18.155  0.00  0.00    +0.000 A 
ATOM     10  C   UNL     1      -2.460  12.337  18.472  0.00  0.00    +0.000 A 
ATOM     11  C   UNL     1      -1.225  12.742  18.973  0.00  0.00    +0.000 A 
ATOM     12  C   UNL     1      -0.162  11.827  19.139  0.00  0.00    +0.000 A 
BRANCH  12  13
ATOM     13  C   UNL     1       1.097  12.387  19.625  0.00  0.00    +0.000 A 
ATOM     14  N   UNL     1       2.014  12.975  18.778  0.00  0.00    +0.000 NA
ATOM     15  N   UNL     1       2.974  13.478  19.542  0.00  0.00    +0.000 NA
ATOM     16  N   UNL     1       2.600  13.173  20.791  0.00  0.00    +0.000 N 
ATOM     17  N   UNL     1       1.497  12.424  20.907  0.00  0.00    +0.000 NA
ATOM     18  H   UNL     1       3.112  13.512  21.600  0.00  0.00    +0.000 HD
ENDBRANCH  12  13
ENDBRANCH   4   7
BRANCH   1  19
ATOM     19  C   UNL     1       3.656   6.221  19.516  0.00  0.00    +0.000 C 
BRANCH  19  30
ATOM     20  C   UNL     1       3.342   4.621  17.591  0.00  0.00    +0.000 A 
ATOM     21  N   UNL     1       3.746   4.001  16.442  0.00  0.00    +0.000 NA
ATOM     22  C   UNL     1       4.890   4.326  15.936  0.00  0.00    +0.000 A 
ATOM     23  C   UNL     1       5.312   3.707  14.647  0.00  0.00    +0.000 A 
ATOM     24  C   UNL     1       6.485   4.029  14.099  0.00  0.00    +0.000 A 
ATOM     25  C   UNL     1       7.361   4.963  14.760  0.00  0.00    +0.000 A 
ATOM     26  C   UNL     1       6.994   5.504  15.930  0.00  0.00    +0.000 A 
ATOM     27  N   UNL     1       5.777   5.209  16.523  0.00  0.00    +0.000 N 
ATOM     28  C   UNL     1       5.481   5.725  17.778  0.00  0.00    +0.000 A 
ATOM     29  O   UNL     1       6.319   6.275  18.493  0.00  0.00    +0.000 OA
ATOM     30  C   UNL     1       4.090   5.516  18.261  0.00  0.00    +0.000 A 
BRANCH  20  31
ATOM     31  O   UNL     1       2.073   4.308  18.088  0.00  0.00    +0.000 OA
BRANCH  31  32
ATOM     32  C   UNL     1       1.929   2.911  18.382  0.00  0.00    +0.000 C 
BRANCH  32  33
ATOM     33  C   UNL     1       0.890   2.715  19.485  0.00  0.00    +0.000 C 
BRANCH  33  35
ATOM     34  C   UNL     1       2.109   3.521  21.558  0.00  0.00    +0.000 C 
ATOM     35  C   UNL     1       1.016   3.811  20.543  0.00  0.00    +0.000 C 
ENDBRANCH  33  35
ENDBRANCH  32  33
ENDBRANCH  31  32
ENDBRANCH  20  31
ENDBRANCH  19  30
ENDBRANCH   1  19
TORSDOF 8
ENDMDL
MODEL 4
REMARK VINA RESULT:      -8.9      0.719      1.299
REMARK  Name = 
REMARK  9 active torsions:
REMARK  status: ('A' for Active; 'I' for Inactive)
REMARK    1  A    between atoms: C_1  and  C_2
REMARK    2  A    between atoms: C_2  and  C_3
REMARK    3  A    between atoms: C_3  and  C_4
REMARK    4  A    between atoms: C_4  and  O_5
REMARK    5  A    between atoms: O_5  and  C_6
REMARK    6  A    between atoms: C_16  and  C_17
REMARK    7  A    between atoms: C_17  and  C_18
REMARK    8  A    between atoms: C_21  and  C_22
REMARK    9  A    between atoms: C_27  and  C_28
REMARK                            x       y       z     vdW  Elec       q    Type
REMARK                         _______ _______ _______ _____ _____    ______ ____
ROOT
ATOM      1  C   UNL     1       1.005   9.058  20.106  0.00  0.00    +0.000 A 
ATOM      2  C   UNL     1       1.408   9.275  18.787  0.00  0.00    +0.000 A 
ATOM      3  C   UNL     1       2.176   8.315  18.110  0.00  0.00    +0.000 A 
ATOM      4  C   UNL     1       2.594   7.119  18.730  0.00  0.00    +0.000 A 
ATOM      5  C   UNL     1       2.226   6.955  20.073  0.00  0.00    +0.000 A 
ATOM      6  C   UNL     1       1.406   7.875  20.732  0.00  0.00    +0.000 A 
ENDROOT
BRANCH   4   7
ATOM      7  C   UNL     1       3.396   6.097  17.991  0.00  0.00    +0.000 A 
ATOM      8  C   UNL     1       4.336   6.548  17.031  0.00  0.00    +0.000 A 
ATOM      9  C   UNL     1       5.129   5.671  16.285  0.00  0.00    +0.000 A 
ATOM     10  C   UNL     1       5.038   4.305  16.502  0.00  0.00    +0.000 A 
ATOM     11  C   UNL     1       4.142   3.820  17.452  0.00  0.00    +0.000 A 
ATOM     12  C   UNL     1       3.301   4.688  18.182  0.00  0.00    +0.000 A 
BRANCH  12  13
ATOM     13  C   UNL     1       2.371   4.051  19.111  0.00  0.00    +0.000 A 
ATOM     14  N   UNL     1       2.756   3.643  20.371  0.00  0.00    +0.000 NA
ATOM     15  N   UNL     1       1.662   3.220  20.989  0.00  0.00    +0.000 NA
ATOM     16  N   UNL     1       0.685   3.386  20.088  0.00  0.00    +0.000 N 
ATOM     17  N   UNL     1       1.069   3.813  18.878  0.00  0.00    +0.000 NA
ATOM     18  H   UNL     1      -0.290   3.222  20.320  0.00  0.00    +0.000 HD
ENDBRANCH  12  13
ENDBRANCH   4   7
BRANCH   1  19
ATOM     19  C   UNL     1       0.213  10.091  20.879  0.00  0.00    +0.000 C 
BRANCH  19  30
ATOM     20  C   UNL     1      -0.843  11.763  19.312  0.00  0.00    +0.000 A 
ATOM     21  N   UNL     1      -0.961  13.004  18.752  0.00  0.00    +0.000 NA
ATOM     22  C   UNL     1      -0.179  13.945  19.168  0.00  0.00    +0.000 A 
ATOM     23  C   UNL     1      -0.342  15.319  18.613  0.00  0.00    +0.000 A 
ATOM     24  C   UNL     1       0.447  16.310  19.030  0.00  0.00    +0.000 A 
ATOM     25  C   UNL     1       1.477  16.055  20.005  0.00  0.00    +0.000 A 
ATOM     26  C   UNL     1       1.642  14.815  20.488  0.00  0.00    +0.000 A 
ATOM     27  N   UNL     1       0.832  13.763  20.095  0.00  0.00    +0.000 N 
ATOM     28  C   UNL     1       1.098  12.481  20.555  0.00  0.00    +0.000 A 
ATOM     29  O   UNL     1       2.138  12.181  21.143  0.00  0.00    +0.000 OA
ATOM     30  C   UNL     1       0.079  11.445  20.239  0.00  0.00    +0.000 A 
BRANCH  20  31
ATOM     31  O   UNL     1      -1.741  10.774  18.900  0.00  0.00    +0.000 OA
BRANCH  31  32
ATOM     32  C   UNL     1      -1.549  10.397  17.530  0.00  0.00    +0.000 C 
BRANCH  32  33
ATOM     33  C   UNL     1      -2.880   9.966  16.915  0.00  0.00    +0.000 C 
BRANCH  33  35
ATOM     34  C   UNL     1      -3.315  10.101  14.420  0.00  0.00    +0.000 C 
ATOM     35  C   UNL     1      -3.242  10.864  15.732  0.00  0.00    +0.000 C 
ENDBRANCH  33  35
ENDBRANCH  32  33
ENDBRANCH  31  32
ENDBRANCH  20  31
ENDBRANCH  19  30
ENDBRANCH   1  19
TORSDOF 8
ENDMDL
MODEL 5
REMARK VINA RESULT:      -8.9      2.426      3.521
REMARK  Name = 
REMARK  9 active torsions:
REMARK  status: ('A' for Active; 'I' for Inactive)
REMARK    1  A    between atoms: C_1  and  C_2
REMARK    2  A    between atoms: C_2  and  C_3
REMARK    3  A    between atoms: C_3  and  C_4
REMARK    4  A    between atoms: C_4  and  O_5
REMARK    5  A    between atoms: O_5  and  C_6
REMARK    6  A    between atoms: C_16  and  C_17
REMARK    7  A    between atoms: C_17  and  C_18
REMARK    8  A    between atoms: C_21  and  C_22
REMARK    9  A    between atoms: C_27  and  C_28
REMARK                            x       y       z     vdW  Elec       q    Type
REMARK                         _______ _______ _______ _____ _____    ______ ____
ROOT
ATOM      1  C   UNL     1       1.615   9.111  19.037  0.00  0.00    +0.000 A 
ATOM      2  C   UNL     1       2.078   8.239  18.050  0.00  0.00    +0.000 A 
ATOM      3  C   UNL     1       2.295   6.883  18.343  0.00  0.00    +0.000 A 
ATOM      4  C   UNL     1       2.089   6.355  19.635  0.00  0.00    +0.000 A 
ATOM      5  C   UNL     1       1.682   7.266  20.620  0.00  0.00    +0.000 A 
ATOM      6  C   UNL     1       1.400   8.601  20.320  0.00  0.00    +0.000 A 
ENDROOT
BRANCH   4   7
ATOM      7  C   UNL     1       2.308   4.906  19.928  0.00  0.00    +0.000 A 
ATOM      8  C   UNL     1       1.282   4.194  20.597  0.00  0.00    +0.000 A 
ATOM      9  C   UNL     1       1.394   2.838  20.921  0.00  0.00    +0.000 A 
ATOM     10  C   UNL     1       2.527   2.132  20.547  0.00  0.00    +0.000 A 
ATOM     11  C   UNL     1       3.550   2.788  19.867  0.00  0.00    +0.000 A 
ATOM     12  C   UNL     1       3.474   4.167  19.573  0.00  0.00    +0.000 A 
BRANCH  12  13
ATOM     13  C   UNL     1       4.634   4.746  18.902  0.00  0.00    +0.000 A 
ATOM     14  N   UNL     1       5.645   5.377  19.596  0.00  0.00    +0.000 NA
ATOM     15  N   UNL     1       6.589   5.677  18.714  0.00  0.00    +0.000 NA
ATOM     16  N   UNL     1       6.110   5.224  17.548  0.00  0.00    +0.000 N 
ATOM     17  N   UNL     1       4.871   4.718  17.579  0.00  0.00    +0.000 NA
ATOM     18  H   UNL     1       6.666   5.243  16.698  0.00  0.00    +0.000 HD
ENDBRANCH  12  13
ENDBRANCH   4   7
BRANCH   1  19
ATOM     19  C   UNL     1       1.410  10.586  18.766  0.00  0.00    +0.000 C 
BRANCH  19  30
ATOM     20  C   UNL     1      -1.040  11.185  18.840  0.00  0.00    +0.000 A 
ATOM     21  N   UNL     1      -2.142  11.747  19.422  0.00  0.00    +0.000 NA
ATOM     22  C   UNL     1      -2.011  12.297  20.585  0.00  0.00    +0.000 A 
ATOM     23  C   UNL     1      -3.217  12.854  21.259  0.00  0.00    +0.000 A 
ATOM     24  C   UNL     1      -3.112  13.421  22.463  0.00  0.00    +0.000 A 
ATOM     25  C   UNL     1      -1.827  13.517  23.109  0.00  0.00    +0.000 A 
ATOM     26  C   UNL     1      -0.737  13.038  22.493  0.00  0.00    +0.000 A 
ATOM     27  N   UNL     1      -0.807  12.426  21.253  0.00  0.00    +0.000 N 
ATOM     28  C   UNL     1       0.361  12.026  20.617  0.00  0.00    +0.000 A 
ATOM     29  O   UNL     1       1.482  12.360  21.001  0.00  0.00    +0.000 OA
ATOM     30  C   UNL     1       0.191  11.215  19.382  0.00  0.00    +0.000 A 
BRANCH  20  31
ATOM     31  O   UNL     1      -1.212  10.535  17.614  0.00  0.00    +0.000 OA
BRANCH  31  32
ATOM     32  C   UNL     1      -2.466   9.843  17.532  0.00  0.00    +0.000 C 
BRANCH  32  33
ATOM     33  C   UNL     1      -2.929   9.774  16.077  0.00  0.00    +0.000 C 
BRANCH  33  35
ATOM     34  C   UNL     1      -4.643  11.515  16.761  0.00  0.00    +0.000 C 
ATOM     35  C   UNL     1      -3.670  11.054  15.688  0.00  0.00    +0.000 C 
ENDBRANCH  33  35
ENDBRANCH  32  33
ENDBRANCH  31  32
ENDBRANCH  20  31
ENDBRANCH  19  30
ENDBRANCH   1  19
TORSDOF 8
ENDMDL
MODEL 6
REMARK VINA RESULT:      -8.8      0.708      1.122
REMARK  Name = 
REMARK  9 active torsions:
REMARK  status: ('A' for Active; 'I' for Inactive)
REMARK    1  A    between atoms: C_1  and  C_2
REMARK    2  A    between atoms: C_2  and  C_3
REMARK    3  A    between atoms: C_3  and  C_4
REMARK    4  A    between atoms: C_4  and  O_5
REMARK    5  A    between atoms: O_5  and  C_6
REMARK    6  A    between atoms: C_16  and  C_17
REMARK    7  A    between atoms: C_17  and  C_18
REMARK    8  A    between atoms: C_21  and  C_22
REMARK    9  A    between atoms: C_27  and  C_28
REMARK                            x       y       z     vdW  Elec       q    Type
REMARK                         _______ _______ _______ _____ _____    ______ ____
ROOT
ATOM      1  C   UNL     1       1.255   8.699  19.931  0.00  0.00    +0.000 A 
ATOM      2  C   UNL     1       1.730   7.491  20.447  0.00  0.00    +0.000 A 
ATOM      3  C   UNL     1       2.553   6.660  19.671  0.00  0.00    +0.000 A 
ATOM      4  C   UNL     1       2.908   6.986  18.345  0.00  0.00    +0.000 A 
ATOM      5  C   UNL     1       2.368   8.175  17.833  0.00  0.00    +0.000 A 
ATOM      6  C   UNL     1       1.603   9.039  18.621  0.00  0.00    +0.000 A 
ENDROOT
BRANCH   4   7
ATOM      7  C   UNL     1       3.799   6.100  17.537  0.00  0.00    +0.000 A 
ATOM      8  C   UNL     1       4.872   6.694  16.827  0.00  0.00    +0.000 A 
ATOM      9  C   UNL     1       5.757   5.951  16.040  0.00  0.00    +0.000 A 
ATOM     10  C   UNL     1       5.624   4.573  15.966  0.00  0.00    +0.000 A 
ATOM     11  C   UNL     1       4.595   3.946  16.666  0.00  0.00    +0.000 A 
ATOM     12  C   UNL     1       3.665   4.685  17.429  0.00  0.00    +0.000 A 
BRANCH  12  13
ATOM     13  C   UNL     1       2.605   3.914  18.073  0.00  0.00    +0.000 A 
ATOM     14  N   UNL     1       2.817   3.204  19.236  0.00  0.00    +0.000 NA
ATOM     15  N   UNL     1       1.640   2.722  19.612  0.00  0.00    +0.000 NA
ATOM     16  N   UNL     1       0.789   3.154  18.673  0.00  0.00    +0.000 N 
ATOM     17  N   UNL     1       1.334   3.820  17.648  0.00  0.00    +0.000 NA
ATOM     18  H   UNL     1      -0.213   3.004  18.750  0.00  0.00    +0.000 HD
ENDBRANCH  12  13
ENDBRANCH   4   7
BRANCH   1  19
ATOM     19  C   UNL     1       0.333   9.598  20.726  0.00  0.00    +0.000 C 
BRANCH  19  30
ATOM     20  C   UNL     1      -0.811  11.281  19.233  0.00  0.00    +0.000 A 
ATOM     21  N   UNL     1      -1.017  12.543  18.751  0.00  0.00    +0.000 NA
ATOM     22  C   UNL     1      -0.330  13.515  19.257  0.00  0.00    +0.000 A 
ATOM     23  C   UNL     1      -0.592  14.905  18.788  0.00  0.00    +0.000 A 
ATOM     24  C   UNL     1       0.097  15.927  19.298  0.00  0.00    +0.000 A 
ATOM     25  C   UNL     1       1.114  15.692  20.292  0.00  0.00    +0.000 A 
ATOM     26  C   UNL     1       1.368  14.440  20.698  0.00  0.00    +0.000 A 
ATOM     27  N   UNL     1       0.662  13.354  20.207  0.00  0.00    +0.000 N 
ATOM     28  C   UNL     1       1.022  12.070  20.592  0.00  0.00    +0.000 A 
ATOM     29  O   UNL     1       2.064  11.817  21.197  0.00  0.00    +0.000 OA
ATOM     30  C   UNL     1       0.105  10.977  20.171  0.00  0.00    +0.000 A 
BRANCH  20  31
ATOM     31  O   UNL     1      -1.609  10.252  18.724  0.00  0.00    +0.000 OA
BRANCH  31  32
ATOM     32  C   UNL     1      -1.654  10.253  17.290  0.00  0.00    +0.000 C 
BRANCH  32  33
ATOM     33  C   UNL     1      -3.070   9.934  16.812  0.00  0.00    +0.000 C 
BRANCH  33  35
ATOM     34  C   UNL     1      -4.918  11.668  16.931  0.00  0.00    +0.000 C 
ATOM     35  C   UNL     1      -4.105  10.635  17.694  0.00  0.00    +0.000 C 
ENDBRANCH  33  35
ENDBRANCH  32  33
ENDBRANCH  31  32
ENDBRANCH  20  31
ENDBRANCH  19  30
ENDBRANCH   1  19
TORSDOF 8
ENDMDL
MODEL 7
REMARK VINA RESULT:      -8.8      2.323      3.294
REMARK  Name = 
REMARK  9 active torsions:
REMARK  status: ('A' for Active; 'I' for Inactive)
REMARK    1  A    between atoms: C_1  and  C_2
REMARK    2  A    between atoms: C_2  and  C_3
REMARK    3  A    between atoms: C_3  and  C_4
REMARK    4  A    between atoms: C_4  and  O_5
REMARK    5  A    between atoms: O_5  and  C_6
REMARK    6  A    between atoms: C_16  and  C_17
REMARK    7  A    between atoms: C_17  and  C_18
REMARK    8  A    between atoms: C_21  and  C_22
REMARK    9  A    between atoms: C_27  and  C_28
REMARK                            x       y       z     vdW  Elec       q    Type
REMARK                         _______ _______ _______ _____ _____    ______ ____
ROOT
ATOM      1  C   UNL     1       1.772   8.887  18.756  0.00  0.00    +0.000 A 
ATOM      2  C   UNL     1       1.524   8.508  20.077  0.00  0.00    +0.000 A 
ATOM      3  C   UNL     1       1.771   7.192  20.499  0.00  0.00    +0.000 A 
ATOM      4  C   UNL     1       2.246   6.200  19.615  0.00  0.00    +0.000 A 
ATOM      5  C   UNL     1       2.429   6.594  18.282  0.00  0.00    +0.000 A 
ATOM      6  C   UNL     1       2.249   7.917  17.870  0.00  0.00    +0.000 A 
ENDROOT
BRANCH   4   7
ATOM      7  C   UNL     1       2.521   4.808  20.083  0.00  0.00    +0.000 A 
ATOM      8  C   UNL     1       1.531   4.150  20.853  0.00  0.00    +0.000 A 
ATOM      9  C   UNL     1       1.697   2.850  21.341  0.00  0.00    +0.000 A 
ATOM     10  C   UNL     1       2.850   2.143  21.039  0.00  0.00    +0.000 A 
ATOM     11  C   UNL     1       3.840   2.744  20.266  0.00  0.00    +0.000 A 
ATOM     12  C   UNL     1       3.709   4.072  19.803  0.00  0.00    +0.000 A 
BRANCH  12  13
ATOM     13  C   UNL     1       4.839   4.602  19.046  0.00  0.00    +0.000 A 
ATOM     14  N   UNL     1       5.047   4.287  17.719  0.00  0.00    +0.000 NA
ATOM     15  N   UNL     1       6.074   5.017  17.306  0.00  0.00    +0.000 NA
ATOM     16  N   UNL     1       6.435   5.724  18.385  0.00  0.00    +0.000 N 
ATOM     17  N   UNL     1       5.770   5.451  19.515  0.00  0.00    +0.000 NA
ATOM     18  H   UNL     1       7.153   6.441  18.339  0.00  0.00    +0.000 HD
ENDBRANCH  12  13
ENDBRANCH   4   7
BRANCH   1  19
ATOM     19  C   UNL     1       1.477  10.286  18.258  0.00  0.00    +0.000 C 
BRANCH  19  30
ATOM     20  C   UNL     1      -0.942  10.881  18.658  0.00  0.00    +0.000 A 
ATOM     21  N   UNL     1      -1.944  11.544  19.310  0.00  0.00    +0.000 NA
ATOM     22  C   UNL     1      -1.631  12.311  20.302  0.00  0.00    +0.000 A 
ATOM     23  C   UNL     1      -2.719  12.987  21.064  0.00  0.00    +0.000 A 
ATOM     24  C   UNL     1      -2.424  13.779  22.096  0.00  0.00    +0.000 A 
ATOM     25  C   UNL     1      -1.050  14.002  22.469  0.00  0.00    +0.000 A 
ATOM     26  C   UNL     1      -0.069  13.415  21.771  0.00  0.00    +0.000 A 
ATOM     27  N   UNL     1      -0.333  12.571  20.704  0.00  0.00    +0.000 N 
ATOM     28  C   UNL     1       0.718  12.057  19.957  0.00  0.00    +0.000 A 
ATOM     29  O   UNL     1       1.876  12.463  20.060  0.00  0.00    +0.000 OA
ATOM     30  C   UNL     1       0.363  11.020  18.953  0.00  0.00    +0.000 A 
BRANCH  20  31
ATOM     31  O   UNL     1      -1.303  10.003  17.631  0.00  0.00    +0.000 OA
BRANCH  31  32
ATOM     32  C   UNL     1      -2.659  10.192  17.201  0.00  0.00    +0.000 C 
BRANCH  32  33
ATOM     33  C   UNL     1      -2.682  10.918  15.857  0.00  0.00    +0.000 C 
BRANCH  33  35
ATOM     34  C   UNL     1      -3.025   9.815  13.598  0.00  0.00    +0.000 C 
ATOM     35  C   UNL     1      -3.673  10.249  14.903  0.00  0.00    +0.000 C 
ENDBRANCH  33  35
ENDBRANCH  32  33
ENDBRANCH  31  32
ENDBRANCH  20  31
ENDBRANCH  19  30
ENDBRANCH   1  19
TORSDOF 8
ENDMDL
MODEL 8
REMARK VINA RESULT:      -8.8      2.789      9.053
REMARK  Name = 
REMARK  9 active torsions:
REMARK  status: ('A' for Active; 'I' for Inactive)
REMARK    1  A    between atoms: C_1  and  C_2
REMARK    2  A    between atoms: C_2  and  C_3
REMARK    3  A    between atoms: C_3  and  C_4
REMARK    4  A    between atoms: C_4  and  O_5
REMARK    5  A    between atoms: O_5  and  C_6
REMARK    6  A    between atoms: C_16  and  C_17
REMARK    7  A    between atoms: C_17  and  C_18
REMARK    8  A    between atoms: C_21  and  C_22
REMARK    9  A    between atoms: C_27  and  C_28
REMARK                            x       y       z     vdW  Elec       q    Type
REMARK                         _______ _______ _______ _____ _____    ______ ____
ROOT
ATOM      1  C   UNL     1       2.648   7.442  19.291  0.00  0.00    +0.000 A 
ATOM      2  C   UNL     1       2.420   8.047  18.053  0.00  0.00    +0.000 A 
ATOM      3  C   UNL     1       1.391   8.990  17.901  0.00  0.00    +0.000 A 
ATOM      4  C   UNL     1       0.535   9.342  18.966  0.00  0.00    +0.000 A 
ATOM      5  C   UNL     1       0.750   8.674  20.180  0.00  0.00    +0.000 A 
ATOM      6  C   UNL     1       1.812   7.785  20.357  0.00  0.00    +0.000 A 
ENDROOT
BRANCH   4   7
ATOM      7  C   UNL     1      -0.544  10.361  18.793  0.00  0.00    +0.000 A 
ATOM      8  C   UNL     1      -1.776   9.945  18.231  0.00  0.00    +0.000 A 
ATOM      9  C   UNL     1      -2.844  10.824  18.024  0.00  0.00    +0.000 A 
ATOM     10  C   UNL     1      -2.731  12.149  18.413  0.00  0.00    +0.000 A 
ATOM     11  C   UNL     1      -1.544  12.596  18.990  0.00  0.00    +0.000 A 
ATOM     12  C   UNL     1      -0.440  11.733  19.164  0.00  0.00    +0.000 A 
BRANCH  12  13
ATOM     13  C   UNL     1       0.762  12.335  19.735  0.00  0.00    +0.000 A 
ATOM     14  N   UNL     1       1.025  12.310  21.089  0.00  0.00    +0.000 NA
ATOM     15  N   UNL     1       2.233  12.830  21.256  0.00  0.00    +0.000 NA
ATOM     16  N   UNL     1       2.635  13.143  20.017  0.00  0.00    +0.000 N 
ATOM     17  N   UNL     1       1.739  12.945  19.041  0.00  0.00    +0.000 NA
ATOM     18  H   UNL     1       3.572  13.486  19.829  0.00  0.00    +0.000 HD
ENDBRANCH  12  13
ENDBRANCH   4   7
BRANCH   1  19
ATOM     19  C   UNL     1       3.721   6.390  19.479  0.00  0.00    +0.000 C 
BRANCH  19  30
ATOM     20  C   UNL     1       3.367   4.696  17.643  0.00  0.00    +0.000 A 
ATOM     21  N   UNL     1       3.745   4.020  16.516  0.00  0.00    +0.000 NA
ATOM     22  C   UNL     1       4.876   4.323  15.968  0.00  0.00    +0.000 A 
ATOM     23  C   UNL     1       5.269   3.642  14.702  0.00  0.00    +0.000 A 
ATOM     24  C   UNL     1       6.428   3.939  14.111  0.00  0.00    +0.000 A 
ATOM     25  C   UNL     1       7.316   4.907  14.703  0.00  0.00    +0.000 A 
ATOM     26  C   UNL     1       6.975   5.503  15.854  0.00  0.00    +0.000 A 
ATOM     27  N   UNL     1       5.774   5.236  16.490  0.00  0.00    +0.000 N 
ATOM     28  C   UNL     1       5.506   5.812  17.724  0.00  0.00    +0.000 A 
ATOM     29  O   UNL     1       6.359   6.398  18.391  0.00  0.00    +0.000 OA
ATOM     30  C   UNL     1       4.128   5.625  18.250  0.00  0.00    +0.000 A 
BRANCH  20  31
ATOM     31  O   UNL     1       2.111   4.405  18.185  0.00  0.00    +0.000 OA
BRANCH  31  32
ATOM     32  C   UNL     1       1.800   3.006  18.126  0.00  0.00    +0.000 C 
BRANCH  32  33
ATOM     33  C   UNL     1       1.078   2.579  19.404  0.00  0.00    +0.000 C 
BRANCH  33  35
ATOM     34  C   UNL     1       2.030   3.492  21.570  0.00  0.00    +0.000 C 
ATOM     35  C   UNL     1       1.063   3.720  20.420  0.00  0.00    +0.000 C 
ENDBRANCH  33  35
ENDBRANCH  32  33
ENDBRANCH  31  32
ENDBRANCH  20  31
ENDBRANCH  19  30
ENDBRANCH   1  19
TORSDOF 8
ENDMDL
MODEL 9
REMARK VINA RESULT:      -8.7      2.406      3.378
REMARK  Name = 
REMARK  9 active torsions:
REMARK  status: ('A' for Active; 'I' for Inactive)
REMARK    1  A    between atoms: C_1  and  C_2
REMARK    2  A    between atoms: C_2  and  C_3
REMARK    3  A    between atoms: C_3  and  C_4
REMARK    4  A    between atoms: C_4  and  O_5
REMARK    5  A    between atoms: O_5  and  C_6
REMARK    6  A    between atoms: C_16  and  C_17
REMARK    7  A    between atoms: C_17  and  C_18
REMARK    8  A    between atoms: C_21  and  C_22
REMARK    9  A    between atoms: C_27  and  C_28
REMARK                            x       y       z     vdW  Elec       q    Type
REMARK                         _______ _______ _______ _____ _____    ______ ____
ROOT
ATOM      1  C   UNL     1       1.458   9.389  18.917  0.00  0.00    +0.000 A 
ATOM      2  C   UNL     1       1.944   8.518  17.939  0.00  0.00    +0.000 A 
ATOM      3  C   UNL     1       2.272   7.193  18.267  0.00  0.00    +0.000 A 
ATOM      4  C   UNL     1       2.157   6.697  19.582  0.00  0.00    +0.000 A 
ATOM      5  C   UNL     1       1.724   7.611  20.554  0.00  0.00    +0.000 A 
ATOM      6  C   UNL     1       1.332   8.911  20.224  0.00  0.00    +0.000 A 
ENDROOT
BRANCH   4   7
ATOM      7  C   UNL     1       2.493   5.279  19.912  0.00  0.00    +0.000 A 
ATOM      8  C   UNL     1       1.673   4.593  20.842  0.00  0.00    +0.000 A 
ATOM      9  C   UNL     1       1.909   3.268  21.219  0.00  0.00    +0.000 A 
ATOM     10  C   UNL     1       2.956   2.564  20.646  0.00  0.00    +0.000 A 
ATOM     11  C   UNL     1       3.774   3.193  19.711  0.00  0.00    +0.000 A 
ATOM     12  C   UNL     1       3.579   4.545  19.352  0.00  0.00    +0.000 A 
BRANCH  12  13
ATOM     13  C   UNL     1       4.535   5.101  18.399  0.00  0.00    +0.000 A 
ATOM     14  N   UNL     1       4.411   4.913  17.038  0.00  0.00    +0.000 NA
ATOM     15  N   UNL     1       5.360   5.637  16.461  0.00  0.00    +0.000 NA
ATOM     16  N   UNL     1       6.004   6.216  17.483  0.00  0.00    +0.000 N 
ATOM     17  N   UNL     1       5.602   5.858  18.709  0.00  0.00    +0.000 NA
ATOM     18  H   UNL     1       6.737   6.903  17.332  0.00  0.00    +0.000 HD
ENDBRANCH  12  13
ENDBRANCH   4   7
BRANCH   1  19
ATOM     19  C   UNL     1       1.134  10.836  18.607  0.00  0.00    +0.000 C 
BRANCH  19  30
ATOM     20  C   UNL     1      -1.289  11.497  18.847  0.00  0.00    +0.000 A 
ATOM     21  N   UNL     1      -2.348  12.024  19.533  0.00  0.00    +0.000 NA
ATOM     22  C   UNL     1      -2.154  12.436  20.743  0.00  0.00    +0.000 A 
ATOM     23  C   UNL     1      -3.314  12.951  21.524  0.00  0.00    +0.000 A 
ATOM     24  C   UNL     1      -3.144  13.376  22.777  0.00  0.00    +0.000 A 
ATOM     25  C   UNL     1      -1.834  13.360  23.377  0.00  0.00    +0.000 A 
ATOM     26  C   UNL     1      -0.785  12.919  22.668  0.00  0.00    +0.000 A 
ATOM     27  N   UNL     1      -0.922  12.452  21.371  0.00  0.00    +0.000 N 
ATOM     28  C   UNL     1       0.206  12.090  20.648  0.00  0.00    +0.000 A 
ATOM     29  O   UNL     1       1.352  12.344  21.019  0.00  0.00    +0.000 OA
ATOM     30  C   UNL     1      -0.039  11.428  19.339  0.00  0.00    +0.000 A 
BRANCH  20  31
ATOM     31  O   UNL     1      -1.530  10.994  17.565  0.00  0.00    +0.000 OA
BRANCH  31  32
ATOM     32  C   UNL     1      -2.609  10.049  17.541  0.00  0.00    +0.000 C 
BRANCH  32  33
ATOM     33  C   UNL     1      -2.770   9.477  16.133  0.00  0.00    +0.000 C 
BRANCH  33  35
ATOM     34  C   UNL     1      -3.446  10.044  13.755  0.00  0.00    +0.000 C 
ATOM     35  C   UNL     1      -3.381  10.520  15.197  0.00  0.00    +0.000 C 
ENDBRANCH  33  35
ENDBRANCH  32  33
ENDBRANCH  31  32
ENDBRANCH  20  31
ENDBRANCH  19  30
ENDBRANCH   1  19
TORSDOF 8
ENDMDL
