MODEL 1
REMARK VINA RESULT:      -8.3      0.000      0.000
REMARK  Name = 
REMARK  6 active torsions:
REMARK  status: ('A' for Active; 'I' for Inactive)
REMARK    1  A    between atoms: C_1  and  O_2
REMARK    2  A    between atoms: O_2  and  C_3
REMARK    3  A    between atoms: C_3  and  C_5
REMARK    4  A    between atoms: C_15  and  C_16
REMARK    5  A    between atoms: C_19  and  C_20
REMARK    6  A    between atoms: C_24  and  C_25
REMARK                            x       y       z     vdW  Elec       q    Type
REMARK                         _______ _______ _______ _____ _____    ______ ____
ROOT
ATOM      1  C   UNL     1       0.880   9.481  19.355  0.00  0.00    +0.000 A 
ATOM      2  C   UNL     1       1.283   9.363  18.027  0.00  0.00    +0.000 A 
ATOM      3  C   UNL     1       2.102   8.310  17.621  0.00  0.00    +0.000 A 
ATOM      4  C   UNL     1       2.551   7.329  18.524  0.00  0.00    +0.000 A 
ATOM      5  C   UNL     1       2.125   7.451  19.856  0.00  0.00    +0.000 A 
ATOM      6  C   UNL     1       1.307   8.517  20.274  0.00  0.00    +0.000 A 
ENDROOT
BRANCH   1  17
ATOM      7  C   UNL     1       0.286  13.753  21.641  0.00  0.00    +0.000 C 
ATOM      8  C   UNL     1      -0.472  12.973  20.435  0.00  0.00    +0.000 C 
ATOM      9  C   UNL     1      -0.476  13.781  19.094  0.00  0.00    +0.000 C 
ATOM     10  C   UNL     1       0.853  14.540  19.127  0.00  0.00    +0.000 C 
ATOM     11  C   UNL     1       1.512  15.898  19.290  0.00  0.00    +0.000 C 
ATOM     12  C   UNL     1       2.027  15.764  20.769  0.00  0.00    +0.000 C 
ATOM     13  C   UNL     1       1.726  14.287  21.203  0.00  0.00    +0.000 C 
ATOM     14  N   UNL     1       1.912  13.740  19.857  0.00  0.00    +0.000 NA
ATOM     15  C   UNL     1       1.830  12.275  19.865  0.00  0.00    +0.000 C 
ATOM     16  C   UNL     1       0.415  11.807  20.038  0.00  0.00    +0.000 C 
ATOM     17  C   UNL     1      -0.024  10.575  19.718  0.00  0.00    +0.000 C 
BRANCH   7  18
ATOM     18  C   UNL     1      -0.564  14.828  22.283  0.00  0.00    +0.000 C 
ATOM     19  O   UNL     1      -1.442  15.459  21.708  0.00  0.00    +0.000 OA
BRANCH  18  21
ATOM     20  C   UNL     1      -1.378  15.052  24.474  0.00  0.00    +0.000 C 
ATOM     21  O   UNL     1      -0.249  14.955  23.602  0.00  0.00    +0.000 OA
ENDBRANCH  18  21
ENDBRANCH   7  18
ENDBRANCH   1  17
BRANCH   4  22
ATOM     22  C   UNL     1       3.446   6.230  18.084  0.00  0.00    +0.000 A 
ATOM     23  C   UNL     1       2.935   4.979  17.695  0.00  0.00    +0.000 A 
ATOM     24  C   UNL     1       3.774   3.931  17.304  0.00  0.00    +0.000 A 
ATOM     25  C   UNL     1       5.155   4.101  17.308  0.00  0.00    +0.000 A 
ATOM     26  C   UNL     1       5.708   5.325  17.694  0.00  0.00    +0.000 A 
ATOM     27  C   UNL     1       4.847   6.379  18.062  0.00  0.00    +0.000 A 
BRANCH  26  28
ATOM     28  C   UNL     1       7.202   5.527  17.740  0.00  0.00    +0.000 C 
ATOM     29  F   UNL     1       7.697   5.676  19.000  0.00  0.00    +0.000 F 
ATOM     30  F   UNL     1       7.888   4.487  17.190  0.00  0.00    +0.000 F 
ATOM     31  F   UNL     1       7.596   6.638  17.054  0.00  0.00    +0.000 F 
ENDBRANCH  26  28
ENDBRANCH   4  22
TORSDOF 5
ENDMDL
MODEL 2
REMARK VINA RESULT:      -8.2      1.857      2.289
REMARK  Name = 
REMARK  6 active torsions:
REMARK  status: ('A' for Active; 'I' for Inactive)
REMARK    1  A    between atoms: C_1  and  O_2
REMARK    2  A    between atoms: O_2  and  C_3
REMARK    3  A    between atoms: C_3  and  C_5
REMARK    4  A    between atoms: C_15  and  C_16
REMARK    5  A    between atoms: C_19  and  C_20
REMARK    6  A    between atoms: C_24  and  C_25
REMARK                            x       y       z     vdW  Elec       q    Type
REMARK                         _______ _______ _______ _____ _____    ______ ____
ROOT
ATOM      1  C   UNL     1       0.668   9.830  19.521  0.00  0.00    +0.000 A 
ATOM      2  C   UNL     1       1.025   9.713  18.179  0.00  0.00    +0.000 A 
ATOM      3  C   UNL     1       1.802   8.643  17.738  0.00  0.00    +0.000 A 
ATOM      4  C   UNL     1       2.255   7.643  18.618  0.00  0.00    +0.000 A 
ATOM      5  C   UNL     1       1.877   7.765  19.965  0.00  0.00    +0.000 A 
ATOM      6  C   UNL     1       1.100   8.849  20.417  0.00  0.00    +0.000 A 
ENDROOT
BRANCH   1  17
ATOM      7  C   UNL     1       0.236  14.050  21.936  0.00  0.00    +0.000 C 
ATOM      8  C   UNL     1      -0.555  13.333  20.712  0.00  0.00    +0.000 C 
ATOM      9  C   UNL     1      -0.537  14.181  19.395  0.00  0.00    +0.000 C 
ATOM     10  C   UNL     1       0.817  14.891  19.442  0.00  0.00    +0.000 C 
ATOM     11  C   UNL     1       1.525  16.220  19.642  0.00  0.00    +0.000 C 
ATOM     12  C   UNL     1       2.042  16.025  21.113  0.00  0.00    +0.000 C 
ATOM     13  C   UNL     1       1.691  14.546  21.505  0.00  0.00    +0.000 C 
ATOM     14  N   UNL     1       1.852  14.034  20.142  0.00  0.00    +0.000 NA
ATOM     15  C   UNL     1       1.718  12.573  20.107  0.00  0.00    +0.000 C 
ATOM     16  C   UNL     1       0.289  12.150  20.274  0.00  0.00    +0.000 C 
ATOM     17  C   UNL     1      -0.195  10.943  19.920  0.00  0.00    +0.000 C 
BRANCH   7  18
ATOM     18  C   UNL     1      -0.572  15.134  22.614  0.00  0.00    +0.000 C 
ATOM     19  O   UNL     1      -1.420  15.823  22.060  0.00  0.00    +0.000 OA
BRANCH  18  21
ATOM     20  C   UNL     1      -1.390  15.175  24.815  0.00  0.00    +0.000 C 
ATOM     21  O   UNL     1      -0.260  15.198  23.939  0.00  0.00    +0.000 OA
ENDBRANCH  18  21
ENDBRANCH   7  18
ENDBRANCH   1  17
BRANCH   4  22
ATOM     22  C   UNL     1       3.107   6.525  18.141  0.00  0.00    +0.000 A 
ATOM     23  C   UNL     1       4.275   6.761  17.395  0.00  0.00    +0.000 A 
ATOM     24  C   UNL     1       5.069   5.712  16.920  0.00  0.00    +0.000 A 
ATOM     25  C   UNL     1       4.704   4.392  17.165  0.00  0.00    +0.000 A 
ATOM     26  C   UNL     1       3.547   4.110  17.897  0.00  0.00    +0.000 A 
ATOM     27  C   UNL     1       2.771   5.180  18.389  0.00  0.00    +0.000 A 
BRANCH  26  28
ATOM     28  C   UNL     1       3.110   2.689  18.151  0.00  0.00    +0.000 C 
ATOM     29  F   UNL     1       3.130   2.336  19.466  0.00  0.00    +0.000 F 
ATOM     30  F   UNL     1       1.842   2.446  17.719  0.00  0.00    +0.000 F 
ATOM     31  F   UNL     1       3.902   1.782  17.512  0.00  0.00    +0.000 F 
ENDBRANCH  26  28
ENDBRANCH   4  22
TORSDOF 5
ENDMDL
MODEL 3
REMARK VINA RESULT:      -8.2      0.887      1.354
REMARK  Name = 
REMARK  6 active torsions:
REMARK  status: ('A' for Active; 'I' for Inactive)
REMARK    1  A    between atoms: C_1  and  O_2
REMARK    2  A    between atoms: O_2  and  C_3
REMARK    3  A    between atoms: C_3  and  C_5
REMARK    4  A    between atoms: C_15  and  C_16
REMARK    5  A    between atoms: C_19  and  C_20
REMARK    6  A    between atoms: C_24  and  C_25
REMARK                            x       y       z     vdW  Elec       q    Type
REMARK                         _______ _______ _______ _____ _____    ______ ____
ROOT
ATOM      1  C   UNL     1       0.950   9.396  19.648  0.00  0.00    +0.000 A 
ATOM      2  C   UNL     1       1.405   8.345  20.440  0.00  0.00    +0.000 A 
ATOM      3  C   UNL     1       2.190   7.329  19.895  0.00  0.00    +0.000 A 
ATOM      4  C   UNL     1       2.554   7.321  18.536  0.00  0.00    +0.000 A 
ATOM      5  C   UNL     1       2.100   8.394  17.752  0.00  0.00    +0.000 A 
ATOM      6  C   UNL     1       1.299   9.417  18.294  0.00  0.00    +0.000 A 
ENDROOT
BRANCH   1  17
ATOM      7  C   UNL     1       0.892  13.930  21.455  0.00  0.00    +0.000 C 
ATOM      8  C   UNL     1      -0.222  12.909  20.861  0.00  0.00    +0.000 C 
ATOM      9  C   UNL     1      -0.971  13.484  19.612  0.00  0.00    +0.000 C 
ATOM     10  C   UNL     1       0.092  14.333  18.913  0.00  0.00    +0.000 C 
ATOM     11  C   UNL     1       0.549  15.744  18.587  0.00  0.00    +0.000 C 
ATOM     12  C   UNL     1       1.710  15.893  19.635  0.00  0.00    +0.000 C 
ATOM     13  C   UNL     1       1.864  14.489  20.318  0.00  0.00    +0.000 C 
ATOM     14  N   UNL     1       1.473  13.744  19.119  0.00  0.00    +0.000 NA
ATOM     15  C   UNL     1       1.615  12.298  19.325  0.00  0.00    +0.000 C 
ATOM     16  C   UNL     1       0.531  11.762  20.212  0.00  0.00    +0.000 C 
ATOM     17  C   UNL     1       0.175  10.465  20.282  0.00  0.00    +0.000 C 
BRANCH   7  18
ATOM     18  C   UNL     1       0.299  15.030  22.307  0.00  0.00    +0.000 C 
ATOM     19  O   UNL     1      -0.881  15.360  22.299  0.00  0.00    +0.000 OA
BRANCH  18  21
ATOM     20  C   UNL     1       1.223  16.991  23.210  0.00  0.00    +0.000 C 
ATOM     21  O   UNL     1       1.252  15.564  23.121  0.00  0.00    +0.000 OA
ENDBRANCH  18  21
ENDBRANCH   7  18
ENDBRANCH   1  17
BRANCH   4  22
ATOM     22  C   UNL     1       3.365   6.218  17.962  0.00  0.00    +0.000 A 
ATOM     23  C   UNL     1       2.824   4.935  17.769  0.00  0.00    +0.000 A 
ATOM     24  C   UNL     1       3.589   3.884  17.253  0.00  0.00    +0.000 A 
ATOM     25  C   UNL     1       4.928   4.086  16.931  0.00  0.00    +0.000 A 
ATOM     26  C   UNL     1       5.510   5.344  17.114  0.00  0.00    +0.000 A 
ATOM     27  C   UNL     1       4.718   6.398  17.612  0.00  0.00    +0.000 A 
BRANCH  26  28
ATOM     28  C   UNL     1       6.967   5.582  16.804  0.00  0.00    +0.000 C 
ATOM     29  F   UNL     1       7.429   6.788  17.238  0.00  0.00    +0.000 F 
ATOM     30  F   UNL     1       7.782   4.647  17.365  0.00  0.00    +0.000 F 
ATOM     31  F   UNL     1       7.225   5.548  15.466  0.00  0.00    +0.000 F 
ENDBRANCH  26  28
ENDBRANCH   4  22
TORSDOF 5
ENDMDL
MODEL 4
REMARK VINA RESULT:      -8.1      0.931      1.310
REMARK  Name = 
REMARK  6 active torsions:
REMARK  status: ('A' for Active; 'I' for Inactive)
REMARK    1  A    between atoms: C_1  and  O_2
REMARK    2  A    between atoms: O_2  and  C_3
REMARK    3  A    between atoms: C_3  and  C_5
REMARK    4  A    between atoms: C_15  and  C_16
REMARK    5  A    between atoms: C_19  and  C_20
REMARK    6  A    between atoms: C_24  and  C_25
REMARK                            x       y       z     vdW  Elec       q    Type
REMARK                         _______ _______ _______ _____ _____    ______ ____
ROOT
ATOM      1  C   UNL     1       1.077   9.187  19.941  0.00  0.00    +0.000 A 
ATOM      2  C   UNL     1       1.355   9.263  18.578  0.00  0.00    +0.000 A 
ATOM      3  C   UNL     1       2.084   8.258  17.943  0.00  0.00    +0.000 A 
ATOM      4  C   UNL     1       2.565   7.135  18.641  0.00  0.00    +0.000 A 
ATOM      5  C   UNL     1       2.265   7.065  20.011  0.00  0.00    +0.000 A 
ATOM      6  C   UNL     1       1.538   8.080  20.660  0.00  0.00    +0.000 A 
ENDROOT
BRANCH   1  17
ATOM      7  C   UNL     1       0.795  13.812  21.479  0.00  0.00    +0.000 C 
ATOM      8  C   UNL     1      -0.273  12.686  21.001  0.00  0.00    +0.000 C 
ATOM      9  C   UNL     1      -1.114  13.133  19.757  0.00  0.00    +0.000 C 
ATOM     10  C   UNL     1      -0.142  14.003  18.959  0.00  0.00    +0.000 C 
ATOM     11  C   UNL     1       0.204  15.419  18.529  0.00  0.00    +0.000 C 
ATOM     12  C   UNL     1       1.398  15.707  19.508  0.00  0.00    +0.000 C 
ATOM     13  C   UNL     1       1.676  14.361  20.265  0.00  0.00    +0.000 C 
ATOM     14  N   UNL     1       1.283  13.519  19.133  0.00  0.00    +0.000 NA
ATOM     15  C   UNL     1       1.531  12.101  19.416  0.00  0.00    +0.000 C 
ATOM     16  C   UNL     1       0.526  11.552  20.385  0.00  0.00    +0.000 C 
ATOM     17  C   UNL     1       0.261  10.241  20.548  0.00  0.00    +0.000 C 
BRANCH   7  18
ATOM     18  C   UNL     1       0.167  14.922  22.292  0.00  0.00    +0.000 C 
ATOM     19  O   UNL     1      -1.023  15.213  22.276  0.00  0.00    +0.000 OA
BRANCH  18  21
ATOM     20  C   UNL     1       1.000  16.940  23.156  0.00  0.00    +0.000 C 
ATOM     21  O   UNL     1       1.104  15.516  23.084  0.00  0.00    +0.000 OA
ENDBRANCH  18  21
ENDBRANCH   7  18
ENDBRANCH   1  17
BRANCH   4  22
ATOM     22  C   UNL     1       3.365   6.088  17.958  0.00  0.00    +0.000 A 
ATOM     23  C   UNL     1       2.827   4.819  17.682  0.00  0.00    +0.000 A 
ATOM     24  C   UNL     1       3.583   3.819  17.062  0.00  0.00    +0.000 A 
ATOM     25  C   UNL     1       4.910   4.057  16.715  0.00  0.00    +0.000 A 
ATOM     26  C   UNL     1       5.488   5.303  16.977  0.00  0.00    +0.000 A 
ATOM     27  C   UNL     1       4.704   6.308  17.581  0.00  0.00    +0.000 A 
BRANCH  26  28
ATOM     28  C   UNL     1       6.932   5.579  16.642  0.00  0.00    +0.000 C 
ATOM     29  F   UNL     1       7.218   5.463  15.315  0.00  0.00    +0.000 F 
ATOM     30  F   UNL     1       7.322   6.834  16.999  0.00  0.00    +0.000 F 
ATOM     31  F   UNL     1       7.784   4.728  17.279  0.00  0.00    +0.000 F 
ENDBRANCH  26  28
ENDBRANCH   4  22
TORSDOF 5
ENDMDL
MODEL 5
REMARK VINA RESULT:      -8.1      1.073      1.487
REMARK  Name = 
REMARK  6 active torsions:
REMARK  status: ('A' for Active; 'I' for Inactive)
REMARK    1  A    between atoms: C_1  and  O_2
REMARK    2  A    between atoms: O_2  and  C_3
REMARK    3  A    between atoms: C_3  and  C_5
REMARK    4  A    between atoms: C_15  and  C_16
REMARK    5  A    between atoms: C_19  and  C_20
REMARK    6  A    between atoms: C_24  and  C_25
REMARK                            x       y       z     vdW  Elec       q    Type
REMARK                         _______ _______ _______ _____ _____    ______ ____
ROOT
ATOM      1  C   UNL     1       0.747   9.755  19.325  0.00  0.00    +0.000 A 
ATOM      2  C   UNL     1       1.095   8.854  20.329  0.00  0.00    +0.000 A 
ATOM      3  C   UNL     1       1.942   7.780  20.062  0.00  0.00    +0.000 A 
ATOM      4  C   UNL     1       2.480   7.561  18.780  0.00  0.00    +0.000 A 
ATOM      5  C   UNL     1       2.134   8.484  17.781  0.00  0.00    +0.000 A 
ATOM      6  C   UNL     1       1.270   9.565  18.043  0.00  0.00    +0.000 A 
ENDROOT
BRANCH   1  17
ATOM      7  C   UNL     1       0.337  14.035  21.638  0.00  0.00    +0.000 C 
ATOM      8  C   UNL     1      -0.430  13.311  20.402  0.00  0.00    +0.000 C 
ATOM      9  C   UNL     1      -0.348  14.130  19.071  0.00  0.00    +0.000 C 
ATOM     10  C   UNL     1       1.021  14.809  19.148  0.00  0.00    +0.000 C 
ATOM     11  C   UNL     1       1.753  16.125  19.345  0.00  0.00    +0.000 C 
ATOM     12  C   UNL     1       2.216  15.949  20.836  0.00  0.00    +0.000 C 
ATOM     13  C   UNL     1       1.817  14.487  21.246  0.00  0.00    +0.000 C 
ATOM     14  N   UNL     1       2.010  13.943  19.900  0.00  0.00    +0.000 NA
ATOM     15  C   UNL     1       1.843  12.485  19.890  0.00  0.00    +0.000 C 
ATOM     16  C   UNL     1       0.399  12.099  20.018  0.00  0.00    +0.000 C 
ATOM     17  C   UNL     1      -0.102  10.897  19.673  0.00  0.00    +0.000 C 
BRANCH   7  18
ATOM     18  C   UNL     1      -0.468  15.151  22.266  0.00  0.00    +0.000 C 
ATOM     19  O   UNL     1      -1.202  15.914  21.650  0.00  0.00    +0.000 OA
BRANCH  18  21
ATOM     20  C   UNL     1      -1.443  14.721  24.358  0.00  0.00    +0.000 C 
ATOM     21  O   UNL     1      -0.298  15.153  23.618  0.00  0.00    +0.000 OA
ENDBRANCH  18  21
ENDBRANCH   7  18
ENDBRANCH   1  17
BRANCH   4  22
ATOM     22  C   UNL     1       3.357   6.396  18.502  0.00  0.00    +0.000 A 
ATOM     23  C   UNL     1       3.487   5.340  19.421  0.00  0.00    +0.000 A 
ATOM     24  C   UNL     1       4.331   4.252  19.178  0.00  0.00    +0.000 A 
ATOM     25  C   UNL     1       5.086   4.199  18.009  0.00  0.00    +0.000 A 
ATOM     26  C   UNL     1       4.994   5.231  17.070  0.00  0.00    +0.000 A 
ATOM     27  C   UNL     1       4.120   6.308  17.321  0.00  0.00    +0.000 A 
BRANCH  26  28
ATOM     28  C   UNL     1       5.824   5.216  15.811  0.00  0.00    +0.000 C 
ATOM     29  F   UNL     1       7.111   5.623  15.998  0.00  0.00    +0.000 F 
ATOM     30  F   UNL     1       5.902   3.978  15.250  0.00  0.00    +0.000 F 
ATOM     31  F   UNL     1       5.315   6.032  14.845  0.00  0.00    +0.000 F 
ENDBRANCH  26  28
ENDBRANCH   4  22
TORSDOF 5
ENDMDL
MODEL 6
REMARK VINA RESULT:      -8.1      0.762      1.451
REMARK  Name = 
REMARK  6 active torsions:
REMARK  status: ('A' for Active; 'I' for Inactive)
REMARK    1  A    between atoms: C_1  and  O_2
REMARK    2  A    between atoms: O_2  and  C_3
REMARK    3  A    between atoms: C_3  and  C_5
REMARK    4  A    between atoms: C_15  and  C_16
REMARK    5  A    between atoms: C_19  and  C_20
REMARK    6  A    between atoms: C_24  and  C_25
REMARK                            x       y       z     vdW  Elec       q    Type
REMARK                         _______ _______ _______ _____ _____    ______ ____
ROOT
ATOM      1  C   UNL     1       1.004   9.326  19.618  0.00  0.00    +0.000 A 
ATOM      2  C   UNL     1       1.450   8.262  20.400  0.00  0.00    +0.000 A 
ATOM      3  C   UNL     1       2.227   7.246  19.845  0.00  0.00    +0.000 A 
ATOM      4  C   UNL     1       2.592   7.250  18.486  0.00  0.00    +0.000 A 
ATOM      5  C   UNL     1       2.148   8.335  17.713  0.00  0.00    +0.000 A 
ATOM      6  C   UNL     1       1.355   9.358  18.266  0.00  0.00    +0.000 A 
ENDROOT
BRANCH   1  17
ATOM      7  C   UNL     1       0.995  13.821  21.523  0.00  0.00    +0.000 C 
ATOM      8  C   UNL     1      -0.127  12.832  20.889  0.00  0.00    +0.000 C 
ATOM      9  C   UNL     1      -0.845  13.447  19.641  0.00  0.00    +0.000 C 
ATOM     10  C   UNL     1       0.244  14.292  18.978  0.00  0.00    +0.000 C 
ATOM     11  C   UNL     1       0.730  15.702  18.690  0.00  0.00    +0.000 C 
ATOM     12  C   UNL     1       1.877  15.808  19.759  0.00  0.00    +0.000 C 
ATOM     13  C   UNL     1       1.995  14.387  20.414  0.00  0.00    +0.000 C 
ATOM     14  N   UNL     1       1.611  13.675  19.193  0.00  0.00    +0.000 NA
ATOM     15  C   UNL     1       1.724  12.222  19.370  0.00  0.00    +0.000 C 
ATOM     16  C   UNL     1       0.617  11.686  20.228  0.00  0.00    +0.000 C 
ATOM     17  C   UNL     1       0.237  10.394  20.263  0.00  0.00    +0.000 C 
BRANCH   7  18
ATOM     18  C   UNL     1       0.407  14.912  22.389  0.00  0.00    +0.000 C 
ATOM     19  O   UNL     1       1.050  15.820  22.901  0.00  0.00    +0.000 OA
BRANCH  18  21
ATOM     20  C   UNL     1      -1.447  14.675  23.810  0.00  0.00    +0.000 C 
ATOM     21  O   UNL     1      -0.946  14.770  22.475  0.00  0.00    +0.000 OA
ENDBRANCH  18  21
ENDBRANCH   7  18
ENDBRANCH   1  17
BRANCH   4  22
ATOM     22  C   UNL     1       3.394   6.146  17.901  0.00  0.00    +0.000 A 
ATOM     23  C   UNL     1       2.846   4.867  17.703  0.00  0.00    +0.000 A 
ATOM     24  C   UNL     1       3.603   3.815  17.177  0.00  0.00    +0.000 A 
ATOM     25  C   UNL     1       4.941   4.012  16.849  0.00  0.00    +0.000 A 
ATOM     26  C   UNL     1       5.530   5.266  17.036  0.00  0.00    +0.000 A 
ATOM     27  C   UNL     1       4.746   6.321  17.545  0.00  0.00    +0.000 A 
BRANCH  26  28
ATOM     28  C   UNL     1       6.987   5.500  16.720  0.00  0.00    +0.000 C 
ATOM     29  F   UNL     1       7.276   5.435  15.390  0.00  0.00    +0.000 F 
ATOM     30  F   UNL     1       7.424   6.719  17.138  0.00  0.00    +0.000 F 
ATOM     31  F   UNL     1       7.800   4.585  17.320  0.00  0.00    +0.000 F 
ENDBRANCH  26  28
ENDBRANCH   4  22
TORSDOF 5
ENDMDL
MODEL 7
REMARK VINA RESULT:      -8.1      6.161     10.471
REMARK  Name = 
REMARK  6 active torsions:
REMARK  status: ('A' for Active; 'I' for Inactive)
REMARK    1  A    between atoms: C_1  and  O_2
REMARK    2  A    between atoms: O_2  and  C_3
REMARK    3  A    between atoms: C_3  and  C_5
REMARK    4  A    between atoms: C_15  and  C_16
REMARK    5  A    between atoms: C_19  and  C_20
REMARK    6  A    between atoms: C_24  and  C_25
REMARK                            x       y       z     vdW  Elec       q    Type
REMARK                         _______ _______ _______ _____ _____    ______ ____
ROOT
ATOM      1  C   UNL     1       1.402   9.113  19.331  0.00  0.00    +0.000 A 
ATOM      2  C   UNL     1       1.163  10.355  18.747  0.00  0.00    +0.000 A 
ATOM      3  C   UNL     1       0.610  11.398  19.490  0.00  0.00    +0.000 A 
ATOM      4  C   UNL     1       0.274  11.244  20.848  0.00  0.00    +0.000 A 
ATOM      5  C   UNL     1       0.534   9.992  21.427  0.00  0.00    +0.000 A 
ATOM      6  C   UNL     1       1.082   8.933  20.680  0.00  0.00    +0.000 A 
ENDROOT
BRANCH   1  17
ATOM      7  C   UNL     1       3.986   4.972  19.228  0.00  0.00    +0.000 C 
ATOM      8  C   UNL     1       2.967   5.724  18.211  0.00  0.00    +0.000 C 
ATOM      9  C   UNL     1       1.714   4.856  17.853  0.00  0.00    +0.000 C 
ATOM     10  C   UNL     1       1.454   4.053  19.128  0.00  0.00    +0.000 C 
ATOM     11  C   UNL     1       1.520   2.681  19.776  0.00  0.00    +0.000 C 
ATOM     12  C   UNL     1       2.815   2.863  20.647  0.00  0.00    +0.000 C 
ATOM     13  C   UNL     1       3.232   4.368  20.499  0.00  0.00    +0.000 C 
ATOM     14  N   UNL     1       1.855   4.846  20.355  0.00  0.00    +0.000 NA
ATOM     15  C   UNL     1       1.806   6.312  20.312  0.00  0.00    +0.000 C 
ATOM     16  C   UNL     1       2.300   6.838  18.997  0.00  0.00    +0.000 C 
ATOM     17  C   UNL     1       2.035   8.070  18.520  0.00  0.00    +0.000 C 
BRANCH   7  18
ATOM     18  C   UNL     1       4.874   3.959  18.540  0.00  0.00    +0.000 C 
ATOM     19  O   UNL     1       4.509   3.200  17.651  0.00  0.00    +0.000 OA
BRANCH  18  21
ATOM     20  C   UNL     1       6.684   5.374  19.025  0.00  0.00    +0.000 C 
ATOM     21  O   UNL     1       6.149   4.049  19.014  0.00  0.00    +0.000 OA
ENDBRANCH  18  21
ENDBRANCH   7  18
ENDBRANCH   1  17
BRANCH   4  22
ATOM     22  C   UNL     1      -0.341  12.353  21.619  0.00  0.00    +0.000 A 
ATOM     23  C   UNL     1       0.286  13.606  21.728  0.00  0.00    +0.000 A 
ATOM     24  C   UNL     1      -0.275  14.648  22.474  0.00  0.00    +0.000 A 
ATOM     25  C   UNL     1      -1.477  14.456  23.149  0.00  0.00    +0.000 A 
ATOM     26  C   UNL     1      -2.132  13.223  23.075  0.00  0.00    +0.000 A 
ATOM     27  C   UNL     1      -1.565  12.192  22.299  0.00  0.00    +0.000 A 
BRANCH  26  28
ATOM     28  C   UNL     1      -3.419  12.977  23.823  0.00  0.00    +0.000 C 
ATOM     29  F   UNL     1      -3.540  13.715  24.962  0.00  0.00    +0.000 F 
ATOM     30  F   UNL     1      -4.521  13.261  23.076  0.00  0.00    +0.000 F 
ATOM     31  F   UNL     1      -3.554  11.677  24.208  0.00  0.00    +0.000 F 
ENDBRANCH  26  28
ENDBRANCH   4  22
TORSDOF 5
ENDMDL
MODEL 8
REMARK VINA RESULT:      -8.1      1.965      2.573
REMARK  Name = 
REMARK  6 active torsions:
REMARK  status: ('A' for Active; 'I' for Inactive)
REMARK    1  A    between atoms: C_1  and  O_2
REMARK    2  A    between atoms: O_2  and  C_3
REMARK    3  A    between atoms: C_3  and  C_5
REMARK    4  A    between atoms: C_15  and  C_16
REMARK    5  A    between atoms: C_19  and  C_20
REMARK    6  A    between atoms: C_24  and  C_25
REMARK                            x       y       z     vdW  Elec       q    Type
REMARK                         _______ _______ _______ _____ _____    ______ ____
ROOT
ATOM      1  C   UNL     1       0.654   9.840  19.364  0.00  0.00    +0.000 A 
ATOM      2  C   UNL     1       1.095   8.919  20.312  0.00  0.00    +0.000 A 
ATOM      3  C   UNL     1       1.884   7.832  19.938  0.00  0.00    +0.000 A 
ATOM      4  C   UNL     1       2.267   7.618  18.601  0.00  0.00    +0.000 A 
ATOM      5  C   UNL     1       1.828   8.561  17.658  0.00  0.00    +0.000 A 
ATOM      6  C   UNL     1       1.023   9.656  18.028  0.00  0.00    +0.000 A 
ENDROOT
BRANCH   1  17
ATOM      7  C   UNL     1       0.635  14.182  21.593  0.00  0.00    +0.000 C 
ATOM      8  C   UNL     1      -0.328  13.427  20.525  0.00  0.00    +0.000 C 
ATOM      9  C   UNL     1      -0.474  14.209  19.177  0.00  0.00    +0.000 C 
ATOM     10  C   UNL     1       0.888  14.886  19.003  0.00  0.00    +0.000 C 
ATOM     11  C   UNL     1       1.641  16.204  19.037  0.00  0.00    +0.000 C 
ATOM     12  C   UNL     1       2.349  16.067  20.433  0.00  0.00    +0.000 C 
ATOM     13  C   UNL     1       2.027  14.619  20.945  0.00  0.00    +0.000 C 
ATOM     14  N   UNL     1       1.991  14.037  19.601  0.00  0.00    +0.000 NA
ATOM     15  C   UNL     1       1.826  12.580  19.660  0.00  0.00    +0.000 C 
ATOM     16  C   UNL     1       0.425  12.202  20.040  0.00  0.00    +0.000 C 
ATOM     17  C   UNL     1      -0.126  10.993  19.818  0.00  0.00    +0.000 C 
BRANCH   7  18
ATOM     18  C   UNL     1      -0.053  15.319  22.317  0.00  0.00    +0.000 C 
ATOM     19  O   UNL     1      -0.497  16.324  21.776  0.00  0.00    +0.000 OA
BRANCH  18  21
ATOM     20  C   UNL     1      -1.381  14.408  24.026  0.00  0.00    +0.000 C 
ATOM     21  O   UNL     1      -0.156  15.039  23.647  0.00  0.00    +0.000 OA
ENDBRANCH  18  21
ENDBRANCH   7  18
ENDBRANCH   1  17
BRANCH   4  22
ATOM     22  C   UNL     1       3.082   6.441  18.212  0.00  0.00    +0.000 A 
ATOM     23  C   UNL     1       4.306   6.587  17.536  0.00  0.00    +0.000 A 
ATOM     24  C   UNL     1       5.067   5.481  17.144  0.00  0.00    +0.000 A 
ATOM     25  C   UNL     1       4.612   4.191  17.404  0.00  0.00    +0.000 A 
ATOM     26  C   UNL     1       3.397   3.998  18.067  0.00  0.00    +0.000 A 
ATOM     27  C   UNL     1       2.654   5.124  18.476  0.00  0.00    +0.000 A 
BRANCH  26  28
ATOM     28  C   UNL     1       2.864   2.612  18.332  0.00  0.00    +0.000 C 
ATOM     29  F   UNL     1       3.598   1.623  17.749  0.00  0.00    +0.000 F 
ATOM     30  F   UNL     1       2.822   2.313  19.660  0.00  0.00    +0.000 F 
ATOM     31  F   UNL     1       1.592   2.449  17.872  0.00  0.00    +0.000 F 
ENDBRANCH  26  28
ENDBRANCH   4  22
TORSDOF 5
ENDMDL
MODEL 9
REMARK VINA RESULT:      -8.1      5.753     10.110
REMARK  Name = 
REMARK  6 active torsions:
REMARK  status: ('A' for Active; 'I' for Inactive)
REMARK    1  A    between atoms: C_1  and  O_2
REMARK    2  A    between atoms: O_2  and  C_3
REMARK    3  A    between atoms: C_3  and  C_5
REMARK    4  A    between atoms: C_15  and  C_16
REMARK    5  A    between atoms: C_19  and  C_20
REMARK    6  A    between atoms: C_24  and  C_25
REMARK                            x       y       z     vdW  Elec       q    Type
REMARK                         _______ _______ _______ _____ _____    ______ ____
ROOT
ATOM      1  C   UNL     1       1.604   9.369  18.026  0.00  0.00    +0.000 A 
ATOM      2  C   UNL     1       0.227   9.460  18.216  0.00  0.00    +0.000 A 
ATOM      3  C   UNL     1      -0.359  10.660  18.614  0.00  0.00    +0.000 A 
ATOM      4  C   UNL     1       0.404  11.821  18.839  0.00  0.00    +0.000 A 
ATOM      5  C   UNL     1       1.789  11.719  18.630  0.00  0.00    +0.000 A 
ATOM      6  C   UNL     1       2.388  10.507  18.237  0.00  0.00    +0.000 A 
ENDROOT
BRANCH   1  17
ATOM      7  C   UNL     1       3.926   5.220  19.135  0.00  0.00    +0.000 C 
ATOM      8  C   UNL     1       2.944   5.710  17.938  0.00  0.00    +0.000 C 
ATOM      9  C   UNL     1       1.636   4.856  17.835  0.00  0.00    +0.000 C 
ATOM     10  C   UNL     1       1.342   4.471  19.286  0.00  0.00    +0.000 C 
ATOM     11  C   UNL     1       1.330   3.341  20.301  0.00  0.00    +0.000 C 
ATOM     12  C   UNL     1       2.643   3.684  21.092  0.00  0.00    +0.000 C 
ATOM     13  C   UNL     1       3.151   5.054  20.521  0.00  0.00    +0.000 C 
ATOM     14  N   UNL     1       1.805   5.556  20.236  0.00  0.00    +0.000 NA
ATOM     15  C   UNL     1       1.845   6.948  19.773  0.00  0.00    +0.000 C 
ATOM     16  C   UNL     1       2.357   7.042  18.366  0.00  0.00    +0.000 C 
ATOM     17  C   UNL     1       2.163   8.099  17.554  0.00  0.00    +0.000 C 
BRANCH   7  18
ATOM     18  C   UNL     1       4.743   3.999  18.774  0.00  0.00    +0.000 C 
ATOM     19  O   UNL     1       4.343   3.071  18.081  0.00  0.00    +0.000 OA
BRANCH  18  21
ATOM     20  C   UNL     1       6.633   5.365  19.049  0.00  0.00    +0.000 C 
ATOM     21  O   UNL     1       6.002   4.104  19.285  0.00  0.00    +0.000 OA
ENDBRANCH  18  21
ENDBRANCH   7  18
ENDBRANCH   1  17
BRANCH   4  22
ATOM     22  C   UNL     1      -0.230  13.084  19.291  0.00  0.00    +0.000 A 
ATOM     23  C   UNL     1      -1.280  13.082  20.226  0.00  0.00    +0.000 A 
ATOM     24  C   UNL     1      -1.900  14.267  20.638  0.00  0.00    +0.000 A 
ATOM     25  C   UNL     1      -1.494  15.489  20.111  0.00  0.00    +0.000 A 
ATOM     26  C   UNL     1      -0.458  15.538  19.173  0.00  0.00    +0.000 A 
ATOM     27  C   UNL     1       0.171  14.337  18.787  0.00  0.00    +0.000 A 
BRANCH  26  28
ATOM     28  C   UNL     1      -0.021  16.844  18.560  0.00  0.00    +0.000 C 
ATOM     29  F   UNL     1      -0.828  17.274  17.551  0.00  0.00    +0.000 F 
ATOM     30  F   UNL     1       0.018  17.860  19.466  0.00  0.00    +0.000 F 
ATOM     31  F   UNL     1       1.232  16.773  18.027  0.00  0.00    +0.000 F 
ENDBRANCH  26  28
ENDBRANCH   4  22
TORSDOF 5
ENDMDL
