MODEL 1
REMARK VINA RESULT:      -5.6      0.000      0.000
REMARK  Name = 
REMARK  8 active torsions:
REMARK  status: ('A' for Active; 'I' for Inactive)
REMARK    1  A    between atoms: C_1  and  C_2
REMARK    2  A    between atoms: C_2  and  O_3
REMARK    3  A    between atoms: O_3  and  C_4
REMARK    4  A    between atoms: C_4  and  C_6
REMARK    5  A    between atoms: C_6  and  C_7
REMARK    6  A    between atoms: C_6  and  N_8
REMARK    7  A    between atoms: C_13  and  C_14
REMARK    8  A    between atoms: C_21  and  C_22
REMARK                            x       y       z     vdW  Elec       q    Type
REMARK                         _______ _______ _______ _____ _____    ______ ____
ROOT
ATOM      1  N   UNL     1       0.126  11.116  20.511  0.00  0.00    +0.000 N 
ATOM      2  C   UNL     1       0.218   9.823  21.035  0.00  0.00    +0.000 C 
ATOM      3  O   UNL     1       0.561   8.847  20.365  0.00  0.00    +0.000 OA
ATOM      4  C   UNL     1      -0.018   9.646  22.520  0.00  0.00    +0.000 C 
ATOM      5  C   UNL     1      -1.115  10.527  23.071  0.00  0.00    +0.000 C 
ATOM      6  C   UNL     1      -0.815  11.982  22.717  0.00  0.00    +0.000 C 
ATOM      7  C   UNL     1      -0.758  12.121  21.164  0.00  0.00    +0.000 C 
ENDROOT
BRANCH   6   8
ATOM      8  C   UNL     1      -1.816  12.924  23.375  0.00  0.00    +0.000 A 
ATOM      9  C   UNL     1      -1.366  14.136  23.927  0.00  0.00    +0.000 A 
ATOM     10  C   UNL     1      -2.265  15.052  24.474  0.00  0.00    +0.000 A 
ATOM     11  C   UNL     1      -3.631  14.774  24.477  0.00  0.00    +0.000 A 
ATOM     12  C   UNL     1      -4.087  13.570  23.949  0.00  0.00    +0.000 A 
ATOM     13 CL   UNL     1      -5.774  13.227  23.939  0.00  0.00    +0.000 Cl
ATOM     14  C   UNL     1      -3.191  12.645  23.408  0.00  0.00    +0.000 A 
ENDBRANCH   6   8
BRANCH   7  15
ATOM     15  C   UNL     1      -0.409  13.557  20.770  0.00  0.00    +0.000 A 
ATOM     16  C   UNL     1       0.877  14.080  20.977  0.00  0.00    +0.000 A 
ATOM     17  C   UNL     1       1.173  15.401  20.620  0.00  0.00    +0.000 A 
ATOM     18  C   UNL     1       0.191  16.200  20.039  0.00  0.00    +0.000 A 
ATOM     19 CL   UNL     1       0.564  17.815  19.581  0.00  0.00    +0.000 Cl
ATOM     20  C   UNL     1      -1.089  15.696  19.823  0.00  0.00    +0.000 A 
ATOM     21  C   UNL     1      -1.389  14.383  20.192  0.00  0.00    +0.000 A 
ENDBRANCH   7  15
BRANCH   1  22
ATOM     22  C   UNL     1       0.338  11.233  19.036  0.00  0.00    +0.000 C 
ATOM     23  C   UNL     1       1.646  10.597  18.548  0.00  0.00    +0.000 C 
BRANCH  22  24
ATOM     24  C   UNL     1      -0.853  10.798  18.157  0.00  0.00    +0.000 C 
ATOM     25  O   UNL     1      -0.969   9.679  17.671  0.00  0.00    +0.000 OA
BRANCH  24  26
ATOM     26  O   UNL     1      -1.698  11.838  17.902  0.00  0.00    +0.000 OA
BRANCH  26  28
ATOM     27  C   UNL     1      -3.836  11.891  19.001  0.00  0.00    +0.000 C 
ATOM     28  C   UNL     1      -3.083  11.510  17.742  0.00  0.00    +0.000 C 
ENDBRANCH  26  28
ENDBRANCH  24  26
ENDBRANCH  22  24
ENDBRANCH   1  22
TORSDOF 6
ENDMDL
MODEL 2
REMARK VINA RESULT:      -5.6      1.134      1.445
REMARK  Name = 
REMARK  8 active torsions:
REMARK  status: ('A' for Active; 'I' for Inactive)
REMARK    1  A    between atoms: C_1  and  C_2
REMARK    2  A    between atoms: C_2  and  O_3
REMARK    3  A    between atoms: O_3  and  C_4
REMARK    4  A    between atoms: C_4  and  C_6
REMARK    5  A    between atoms: C_6  and  C_7
REMARK    6  A    between atoms: C_6  and  N_8
REMARK    7  A    between atoms: C_13  and  C_14
REMARK    8  A    between atoms: C_21  and  C_22
REMARK                            x       y       z     vdW  Elec       q    Type
REMARK                         _______ _______ _______ _____ _____    ______ ____
ROOT
ATOM      1  N   UNL     1      -0.010  11.379  20.598  0.00  0.00    +0.000 N 
ATOM      2  C   UNL     1      -0.021  10.101  21.164  0.00  0.00    +0.000 C 
ATOM      3  O   UNL     1       0.254   9.081  20.530  0.00  0.00    +0.000 OA
ATOM      4  C   UNL     1      -0.285   9.991  22.650  0.00  0.00    +0.000 C 
ATOM      5  C   UNL     1      -1.318  10.970  23.159  0.00  0.00    +0.000 C 
ATOM      6  C   UNL     1      -0.905  12.385  22.762  0.00  0.00    +0.000 C 
ATOM      7  C   UNL     1      -0.822  12.469  21.207  0.00  0.00    +0.000 C 
ENDROOT
BRANCH   6   8
ATOM      8  C   UNL     1      -1.839  13.421  23.377  0.00  0.00    +0.000 A 
ATOM      9  C   UNL     1      -3.224  13.320  23.160  0.00  0.00    +0.000 A 
ATOM     10  C   UNL     1      -4.112  14.209  23.765  0.00  0.00    +0.000 A 
ATOM     11  C   UNL     1      -3.632  15.216  24.600  0.00  0.00    +0.000 A 
ATOM     12  C   UNL     1      -2.262  15.338  24.810  0.00  0.00    +0.000 A 
ATOM     13 CL   UNL     1      -1.663  16.571  25.850  0.00  0.00    +0.000 Cl
ATOM     14  C   UNL     1      -1.366  14.456  24.199  0.00  0.00    +0.000 A 
ENDBRANCH   6   8
BRANCH   7  15
ATOM     15  C   UNL     1      -0.361  13.861  20.771  0.00  0.00    +0.000 A 
ATOM     16  C   UNL     1       0.929  14.329  21.064  0.00  0.00    +0.000 A 
ATOM     17  C   UNL     1       1.327  15.611  20.668  0.00  0.00    +0.000 A 
ATOM     18  C   UNL     1       0.444  16.424  19.961  0.00  0.00    +0.000 A 
ATOM     19 CL   UNL     1       0.944  17.990  19.454  0.00  0.00    +0.000 Cl
ATOM     20  C   UNL     1      -0.838  15.975  19.658  0.00  0.00    +0.000 A 
ATOM     21  C   UNL     1      -1.241  14.701  20.066  0.00  0.00    +0.000 A 
ENDBRANCH   7  15
BRANCH   1  22
ATOM     22  C   UNL     1       0.227  11.432  19.122  0.00  0.00    +0.000 C 
ATOM     23  C   UNL     1       1.541  10.774  18.684  0.00  0.00    +0.000 C 
BRANCH  22  24
ATOM     24  C   UNL     1      -0.951  10.959  18.244  0.00  0.00    +0.000 C 
ATOM     25  O   UNL     1      -1.037   9.834  17.766  0.00  0.00    +0.000 OA
BRANCH  24  26
ATOM     26  O   UNL     1      -1.823  11.975  17.981  0.00  0.00    +0.000 OA
BRANCH  26  28
ATOM     27  C   UNL     1      -3.849  12.086  19.270  0.00  0.00    +0.000 C 
ATOM     28  C   UNL     1      -3.214  11.635  17.969  0.00  0.00    +0.000 C 
ENDBRANCH  26  28
ENDBRANCH  24  26
ENDBRANCH  22  24
ENDBRANCH   1  22
TORSDOF 6
ENDMDL
MODEL 3
REMARK VINA RESULT:      -5.5      3.645      6.456
REMARK  Name = 
REMARK  8 active torsions:
REMARK  status: ('A' for Active; 'I' for Inactive)
REMARK    1  A    between atoms: C_1  and  C_2
REMARK    2  A    between atoms: C_2  and  O_3
REMARK    3  A    between atoms: O_3  and  C_4
REMARK    4  A    between atoms: C_4  and  C_6
REMARK    5  A    between atoms: C_6  and  C_7
REMARK    6  A    between atoms: C_6  and  N_8
REMARK    7  A    between atoms: C_13  and  C_14
REMARK    8  A    between atoms: C_21  and  C_22
REMARK                            x       y       z     vdW  Elec       q    Type
REMARK                         _______ _______ _______ _____ _____    ______ ____
ROOT
ATOM      1  N   UNL     1      -1.899  11.879  21.158  0.00  0.00    +0.000 N 
ATOM      2  C   UNL     1      -1.589  11.837  22.521  0.00  0.00    +0.000 C 
ATOM      3  O   UNL     1      -2.016  12.658  23.334  0.00  0.00    +0.000 OA
ATOM      4  C   UNL     1      -0.771  10.666  23.021  0.00  0.00    +0.000 C 
ATOM      5  C   UNL     1       0.311  10.225  22.063  0.00  0.00    +0.000 C 
ATOM      6  C   UNL     1      -0.315   9.935  20.700  0.00  0.00    +0.000 C 
ATOM      7  C   UNL     1      -0.991  11.236  20.169  0.00  0.00    +0.000 C 
ENDROOT
BRANCH   6   8
ATOM      8  C   UNL     1       0.712   9.347  19.740  0.00  0.00    +0.000 A 
ATOM      9  C   UNL     1       1.129  10.099  18.627  0.00  0.00    +0.000 A 
ATOM     10  C   UNL     1       2.118   9.620  17.769  0.00  0.00    +0.000 A 
ATOM     11  C   UNL     1       2.710   8.381  18.006  0.00  0.00    +0.000 A 
ATOM     12  C   UNL     1       2.295   7.620  19.095  0.00  0.00    +0.000 A 
ATOM     13 CL   UNL     1       3.031   6.095  19.401  0.00  0.00    +0.000 Cl
ATOM     14  C   UNL     1       1.298   8.090  19.953  0.00  0.00    +0.000 A 
ENDBRANCH   6   8
BRANCH   7  15
ATOM     15  C   UNL     1      -1.673  10.973  18.826  0.00  0.00    +0.000 A 
ATOM     16  C   UNL     1      -1.514  11.849  17.741  0.00  0.00    +0.000 A 
ATOM     17  C   UNL     1      -2.157  11.597  16.523  0.00  0.00    +0.000 A 
ATOM     18  C   UNL     1      -2.948  10.459  16.378  0.00  0.00    +0.000 A 
ATOM     19 CL   UNL     1      -3.718  10.140  14.874  0.00  0.00    +0.000 Cl
ATOM     20  C   UNL     1      -3.114   9.577  17.443  0.00  0.00    +0.000 A 
ATOM     21  C   UNL     1      -2.484   9.835  18.662  0.00  0.00    +0.000 A 
ENDBRANCH   7  15
BRANCH   1  22
ATOM     22  C   UNL     1      -2.683  13.071  20.709  0.00  0.00    +0.000 C 
ATOM     23  C   UNL     1      -4.094  13.142  21.304  0.00  0.00    +0.000 C 
BRANCH  22  24
ATOM     24  C   UNL     1      -1.959  14.428  20.834  0.00  0.00    +0.000 C 
ATOM     25  O   UNL     1      -2.260  15.289  21.653  0.00  0.00    +0.000 OA
BRANCH  24  26
ATOM     26  O   UNL     1      -1.019  14.590  19.859  0.00  0.00    +0.000 OA
BRANCH  26  28
ATOM     27  C   UNL     1       1.241  14.045  19.246  0.00  0.00    +0.000 C 
ATOM     28  C   UNL     1       0.343  14.676  20.292  0.00  0.00    +0.000 C 
ENDBRANCH  26  28
ENDBRANCH  24  26
ENDBRANCH  22  24
ENDBRANCH   1  22
TORSDOF 6
ENDMDL
MODEL 4
REMARK VINA RESULT:      -5.5      1.465      1.910
REMARK  Name = 
REMARK  8 active torsions:
REMARK  status: ('A' for Active; 'I' for Inactive)
REMARK    1  A    between atoms: C_1  and  C_2
REMARK    2  A    between atoms: C_2  and  O_3
REMARK    3  A    between atoms: O_3  and  C_4
REMARK    4  A    between atoms: C_4  and  C_6
REMARK    5  A    between atoms: C_6  and  C_7
REMARK    6  A    between atoms: C_6  and  N_8
REMARK    7  A    between atoms: C_13  and  C_14
REMARK    8  A    between atoms: C_21  and  C_22
REMARK                            x       y       z     vdW  Elec       q    Type
REMARK                         _______ _______ _______ _____ _____    ______ ____
ROOT
ATOM      1  N   UNL     1      -0.346  11.566  20.640  0.00  0.00    +0.000 N 
ATOM      2  C   UNL     1      -0.404  10.284  21.195  0.00  0.00    +0.000 C 
ATOM      3  O   UNL     1      -0.232   9.257  20.536  0.00  0.00    +0.000 OA
ATOM      4  C   UNL     1      -0.587  10.172  22.693  0.00  0.00    +0.000 C 
ATOM      5  C   UNL     1      -1.525  11.207  23.270  0.00  0.00    +0.000 C 
ATOM      6  C   UNL     1      -1.048  12.599  22.863  0.00  0.00    +0.000 C 
ATOM      7  C   UNL     1      -1.050  12.696  21.306  0.00  0.00    +0.000 C 
ENDROOT
BRANCH   6   8
ATOM      8  C   UNL     1      -1.877  13.683  23.541  0.00  0.00    +0.000 A 
ATOM      9  C   UNL     1      -3.273  13.687  23.384  0.00  0.00    +0.000 A 
ATOM     10  C   UNL     1      -4.067  14.622  24.048  0.00  0.00    +0.000 A 
ATOM     11  C   UNL     1      -3.479  15.571  24.882  0.00  0.00    +0.000 A 
ATOM     12  C   UNL     1      -2.096  15.588  25.033  0.00  0.00    +0.000 A 
ATOM     13 CL   UNL     1      -1.365  16.749  26.073  0.00  0.00    +0.000 Cl
ATOM     14  C   UNL     1      -1.295  14.660  24.364  0.00  0.00    +0.000 A 
ENDBRANCH   6   8
BRANCH   7  15
ATOM     15  C   UNL     1      -0.529  14.062  20.856  0.00  0.00    +0.000 A 
ATOM     16  C   UNL     1       0.792  14.461  21.111  0.00  0.00    +0.000 A 
ATOM     17  C   UNL     1       1.247  15.720  20.702  0.00  0.00    +0.000 A 
ATOM     18  C   UNL     1       0.388  16.580  20.021  0.00  0.00    +0.000 A 
ATOM     19 CL   UNL     1       0.956  18.117  19.500  0.00  0.00    +0.000 Cl
ATOM     20  C   UNL     1      -0.924  16.200  19.756  0.00  0.00    +0.000 A 
ATOM     21  C   UNL     1      -1.383  14.949  20.176  0.00  0.00    +0.000 A 
ENDBRANCH   7  15
BRANCH   1  22
ATOM     22  C   UNL     1      -0.194  11.622  19.154  0.00  0.00    +0.000 C 
ATOM     23  C   UNL     1       0.967  10.774  18.619  0.00  0.00    +0.000 C 
BRANCH  22  24
ATOM     24  C   UNL     1      -1.483  11.371  18.344  0.00  0.00    +0.000 C 
ATOM     25  O   UNL     1      -2.527  11.991  18.513  0.00  0.00    +0.000 OA
BRANCH  24  26
ATOM     26  O   UNL     1      -1.349  10.309  17.499  0.00  0.00    +0.000 OA
BRANCH  26  28
ATOM     27  C   UNL     1      -2.699  10.188  15.513  0.00  0.00    +0.000 C 
ATOM     28  C   UNL     1      -2.560   9.763  16.962  0.00  0.00    +0.000 C 
ENDBRANCH  26  28
ENDBRANCH  24  26
ENDBRANCH  22  24
ENDBRANCH   1  22
TORSDOF 6
ENDMDL
MODEL 5
REMARK VINA RESULT:      -5.5      2.626      5.156
REMARK  Name = 
REMARK  8 active torsions:
REMARK  status: ('A' for Active; 'I' for Inactive)
REMARK    1  A    between atoms: C_1  and  C_2
REMARK    2  A    between atoms: C_2  and  O_3
REMARK    3  A    between atoms: O_3  and  C_4
REMARK    4  A    between atoms: C_4  and  C_6
REMARK    5  A    between atoms: C_6  and  C_7
REMARK    6  A    between atoms: C_6  and  N_8
REMARK    7  A    between atoms: C_13  and  C_14
REMARK    8  A    between atoms: C_21  and  C_22
REMARK                            x       y       z     vdW  Elec       q    Type
REMARK                         _______ _______ _______ _____ _____    ______ ____
ROOT
ATOM      1  N   UNL     1      -1.414  11.656  19.411  0.00  0.00    +0.000 N 
ATOM      2  C   UNL     1      -1.129  10.643  18.491  0.00  0.00    +0.000 C 
ATOM      3  O   UNL     1       0.016  10.355  18.139  0.00  0.00    +0.000 OA
ATOM      4  C   UNL     1      -2.283   9.802  17.989  0.00  0.00    +0.000 C 
ATOM      5  C   UNL     1      -3.555  10.587  17.765  0.00  0.00    +0.000 C 
ATOM      6  C   UNL     1      -3.916  11.332  19.048  0.00  0.00    +0.000 C 
ATOM      7  C   UNL     1      -2.753  12.307  19.409  0.00  0.00    +0.000 C 
ENDROOT
BRANCH   6   8
ATOM      8  C   UNL     1      -5.269  12.022  18.919  0.00  0.00    +0.000 A 
ATOM      9  C   UNL     1      -6.199  11.924  19.969  0.00  0.00    +0.000 A 
ATOM     10  C   UNL     1      -7.417  12.601  19.913  0.00  0.00    +0.000 A 
ATOM     11  C   UNL     1      -7.729  13.389  18.806  0.00  0.00    +0.000 A 
ATOM     12  C   UNL     1      -6.824  13.481  17.754  0.00  0.00    +0.000 A 
ATOM     13 CL   UNL     1      -7.197  14.463  16.390  0.00  0.00    +0.000 Cl
ATOM     14  C   UNL     1      -5.606  12.798  17.799  0.00  0.00    +0.000 A 
ENDBRANCH   6   8
BRANCH   7  15
ATOM     15  C   UNL     1      -3.056  13.037  20.718  0.00  0.00    +0.000 A 
ATOM     16  C   UNL     1      -3.219  14.431  20.757  0.00  0.00    +0.000 A 
ATOM     17  C   UNL     1      -3.483  15.082  21.967  0.00  0.00    +0.000 A 
ATOM     18  C   UNL     1      -3.604  14.343  23.142  0.00  0.00    +0.000 A 
ATOM     19 CL   UNL     1      -3.951  15.143  24.623  0.00  0.00    +0.000 Cl
ATOM     20  C   UNL     1      -3.449  12.959  23.121  0.00  0.00    +0.000 A 
ATOM     21  C   UNL     1      -3.171  12.310  21.916  0.00  0.00    +0.000 A 
ENDBRANCH   7  15
BRANCH   1  22
ATOM     22  C   UNL     1      -0.244  12.477  19.853  0.00  0.00    +0.000 C 
ATOM     23  C   UNL     1      -0.339  13.953  19.450  0.00  0.00    +0.000 C 
BRANCH  22  24
ATOM     24  C   UNL     1       0.145  12.330  21.339  0.00  0.00    +0.000 C 
ATOM     25  O   UNL     1       0.104  13.249  22.149  0.00  0.00    +0.000 OA
BRANCH  24  26
ATOM     26  O   UNL     1       0.639  11.088  21.611  0.00  0.00    +0.000 OA
BRANCH  26  28
ATOM     27  C   UNL     1      -0.362   8.908  21.768  0.00  0.00    +0.000 C 
ATOM     28  C   UNL     1      -0.168  10.249  22.446  0.00  0.00    +0.000 C 
ENDBRANCH  26  28
ENDBRANCH  24  26
ENDBRANCH  22  24
ENDBRANCH   1  22
TORSDOF 6
ENDMDL
MODEL 6
REMARK VINA RESULT:      -5.5      2.941      5.864
REMARK  Name = 
REMARK  8 active torsions:
REMARK  status: ('A' for Active; 'I' for Inactive)
REMARK    1  A    between atoms: C_1  and  C_2
REMARK    2  A    between atoms: C_2  and  O_3
REMARK    3  A    between atoms: O_3  and  C_4
REMARK    4  A    between atoms: C_4  and  C_6
REMARK    5  A    between atoms: C_6  and  C_7
REMARK    6  A    between atoms: C_6  and  N_8
REMARK    7  A    between atoms: C_13  and  C_14
REMARK    8  A    between atoms: C_21  and  C_22
REMARK                            x       y       z     vdW  Elec       q    Type
REMARK                         _______ _______ _______ _____ _____    ______ ____
ROOT
ATOM      1  N   UNL     1      -3.843  12.509  19.621  0.00  0.00    +0.000 N 
ATOM      2  C   UNL     1      -4.807  11.915  18.801  0.00  0.00    +0.000 C 
ATOM      3  O   UNL     1      -6.012  12.154  18.896  0.00  0.00    +0.000 OA
ATOM      4  C   UNL     1      -4.324  11.017  17.683  0.00  0.00    +0.000 C 
ATOM      5  C   UNL     1      -3.132  10.167  18.058  0.00  0.00    +0.000 C 
ATOM      6  C   UNL     1      -2.016  11.070  18.577  0.00  0.00    +0.000 C 
ATOM      7  C   UNL     1      -2.532  11.836  19.834  0.00  0.00    +0.000 C 
ENDROOT
BRANCH   6   8
ATOM      8  C   UNL     1      -0.741  10.275  18.831  0.00  0.00    +0.000 A 
ATOM      9  C   UNL     1       0.136  10.014  17.764  0.00  0.00    +0.000 A 
ATOM     10  C   UNL     1       1.345   9.351  17.975  0.00  0.00    +0.000 A 
ATOM     11  C   UNL     1       1.701   8.938  19.258  0.00  0.00    +0.000 A 
ATOM     12  C   UNL     1       0.834   9.176  20.320  0.00  0.00    +0.000 A 
ATOM     13 CL   UNL     1       1.273   8.681  21.909  0.00  0.00    +0.000 Cl
ATOM     14  C   UNL     1      -0.382   9.832  20.114  0.00  0.00    +0.000 A 
ENDBRANCH   6   8
BRANCH   7  15
ATOM     15  C   UNL     1      -1.457  12.791  20.356  0.00  0.00    +0.000 A 
ATOM     16  C   UNL     1      -0.839  13.727  19.512  0.00  0.00    +0.000 A 
ATOM     17  C   UNL     1       0.151  14.584  20.005  0.00  0.00    +0.000 A 
ATOM     18  C   UNL     1       0.516  14.523  21.349  0.00  0.00    +0.000 A 
ATOM     19 CL   UNL     1       1.716  15.593  21.957  0.00  0.00    +0.000 Cl
ATOM     20  C   UNL     1      -0.089  13.604  22.201  0.00  0.00    +0.000 A 
ATOM     21  C   UNL     1      -1.068  12.738  21.706  0.00  0.00    +0.000 A 
ENDBRANCH   7  15
BRANCH   1  22
ATOM     22  C   UNL     1      -4.373  13.364  20.728  0.00  0.00    +0.000 C 
ATOM     23  C   UNL     1      -5.293  14.494  20.250  0.00  0.00    +0.000 C 
BRANCH  22  24
ATOM     24  C   UNL     1      -5.001  12.601  21.914  0.00  0.00    +0.000 C 
ATOM     25  O   UNL     1      -6.204  12.410  22.041  0.00  0.00    +0.000 OA
BRANCH  24  26
ATOM     26  O   UNL     1      -4.066  12.263  22.847  0.00  0.00    +0.000 OA
BRANCH  26  28
ATOM     27  C   UNL     1      -3.532  14.037  24.380  0.00  0.00    +0.000 C 
ATOM     28  C   UNL     1      -4.291  12.740  24.179  0.00  0.00    +0.000 C 
ENDBRANCH  26  28
ENDBRANCH  24  26
ENDBRANCH  22  24
ENDBRANCH   1  22
TORSDOF 6
ENDMDL
MODEL 7
REMARK VINA RESULT:      -5.5      0.991      1.298
REMARK  Name = 
REMARK  8 active torsions:
REMARK  status: ('A' for Active; 'I' for Inactive)
REMARK    1  A    between atoms: C_1  and  C_2
REMARK    2  A    between atoms: C_2  and  O_3
REMARK    3  A    between atoms: O_3  and  C_4
REMARK    4  A    between atoms: C_4  and  C_6
REMARK    5  A    between atoms: C_6  and  C_7
REMARK    6  A    between atoms: C_6  and  N_8
REMARK    7  A    between atoms: C_13  and  C_14
REMARK    8  A    between atoms: C_21  and  C_22
REMARK                            x       y       z     vdW  Elec       q    Type
REMARK                         _______ _______ _______ _____ _____    ______ ____
ROOT
ATOM      1  N   UNL     1      -0.381  11.485  20.628  0.00  0.00    +0.000 N 
ATOM      2  C   UNL     1      -0.458  10.220  21.218  0.00  0.00    +0.000 C 
ATOM      3  O   UNL     1      -0.318   9.172  20.586  0.00  0.00    +0.000 OA
ATOM      4  C   UNL     1      -0.622  10.153  22.721  0.00  0.00    +0.000 C 
ATOM      5  C   UNL     1      -1.530  11.223  23.283  0.00  0.00    +0.000 C 
ATOM      6  C   UNL     1      -1.028  12.593  22.831  0.00  0.00    +0.000 C 
ATOM      7  C   UNL     1      -1.051  12.648  21.272  0.00  0.00    +0.000 C 
ENDROOT
BRANCH   6   8
ATOM      8  C   UNL     1      -1.824  13.713  23.490  0.00  0.00    +0.000 A 
ATOM      9  C   UNL     1      -1.143  14.748  24.155  0.00  0.00    +0.000 A 
ATOM     10  C   UNL     1      -1.837  15.824  24.707  0.00  0.00    +0.000 A 
ATOM     11  C   UNL     1      -3.226  15.887  24.606  0.00  0.00    +0.000 A 
ATOM     12  C   UNL     1      -3.913  14.860  23.965  0.00  0.00    +0.000 A 
ATOM     13 CL   UNL     1      -5.627  14.938  23.824  0.00  0.00    +0.000 Cl
ATOM     14  C   UNL     1      -3.225  13.775  23.417  0.00  0.00    +0.000 A 
ENDBRANCH   6   8
BRANCH   7  15
ATOM     15  C   UNL     1      -0.507  13.990  20.778  0.00  0.00    +0.000 A 
ATOM     16  C   UNL     1       0.829  14.362  20.993  0.00  0.00    +0.000 A 
ATOM     17  C   UNL     1       1.304  15.599  20.544  0.00  0.00    +0.000 A 
ATOM     18  C   UNL     1       0.451  16.464  19.862  0.00  0.00    +0.000 A 
ATOM     19 CL   UNL     1       1.044  17.974  19.291  0.00  0.00    +0.000 Cl
ATOM     20  C   UNL     1      -0.876  16.110  19.636  0.00  0.00    +0.000 A 
ATOM     21  C   UNL     1      -1.355  14.881  20.096  0.00  0.00    +0.000 A 
ENDBRANCH   7  15
BRANCH   1  22
ATOM     22  C   UNL     1      -0.249  11.498  19.138  0.00  0.00    +0.000 C 
ATOM     23  C   UNL     1       0.910  10.641  18.614  0.00  0.00    +0.000 C 
BRANCH  22  24
ATOM     24  C   UNL     1      -1.547  11.215  18.354  0.00  0.00    +0.000 C 
ATOM     25  O   UNL     1      -2.639  11.689  18.649  0.00  0.00    +0.000 OA
BRANCH  24  26
ATOM     26  O   UNL     1      -1.350  10.296  17.366  0.00  0.00    +0.000 OA
BRANCH  26  28
ATOM     27  C   UNL     1      -2.738  10.558  15.420  0.00  0.00    +0.000 C 
ATOM     28  C   UNL     1      -2.524   9.797  16.714  0.00  0.00    +0.000 C 
ENDBRANCH  26  28
ENDBRANCH  24  26
ENDBRANCH  22  24
ENDBRANCH   1  22
TORSDOF 6
ENDMDL
MODEL 8
REMARK VINA RESULT:      -5.4      2.714      4.877
REMARK  Name = 
REMARK  8 active torsions:
REMARK  status: ('A' for Active; 'I' for Inactive)
REMARK    1  A    between atoms: C_1  and  C_2
REMARK    2  A    between atoms: C_2  and  O_3
REMARK    3  A    between atoms: O_3  and  C_4
REMARK    4  A    between atoms: C_4  and  C_6
REMARK    5  A    between atoms: C_6  and  C_7
REMARK    6  A    between atoms: C_6  and  N_8
REMARK    7  A    between atoms: C_13  and  C_14
REMARK    8  A    between atoms: C_21  and  C_22
REMARK                            x       y       z     vdW  Elec       q    Type
REMARK                         _______ _______ _______ _____ _____    ______ ____
ROOT
ATOM      1  N   UNL     1      -2.146  11.432  18.942  0.00  0.00    +0.000 N 
ATOM      2  C   UNL     1      -2.379  10.511  17.916  0.00  0.00    +0.000 C 
ATOM      3  O   UNL     1      -1.477  10.018  17.236  0.00  0.00    +0.000 OA
ATOM      4  C   UNL     1      -3.799  10.030  17.709  0.00  0.00    +0.000 C 
ATOM      5  C   UNL     1      -4.841  11.107  17.906  0.00  0.00    +0.000 C 
ATOM      6  C   UNL     1      -4.654  11.739  19.284  0.00  0.00    +0.000 C 
ATOM      7  C   UNL     1      -3.228  12.366  19.361  0.00  0.00    +0.000 C 
ENDROOT
BRANCH   6   8
ATOM      8  C   UNL     1      -5.771  12.730  19.588  0.00  0.00    +0.000 A 
ATOM      9  C   UNL     1      -6.535  12.574  20.758  0.00  0.00    +0.000 A 
ATOM     10  C   UNL     1      -7.517  13.503  21.102  0.00  0.00    +0.000 A 
ATOM     11  C   UNL     1      -7.753  14.607  20.284  0.00  0.00    +0.000 A 
ATOM     12  C   UNL     1      -7.014  14.764  19.115  0.00  0.00    +0.000 A 
ATOM     13 CL   UNL     1      -7.291  16.132  18.107  0.00  0.00    +0.000 Cl
ATOM     14  C   UNL     1      -6.035  13.832  18.760  0.00  0.00    +0.000 A 
ENDBRANCH   6   8
BRANCH   7  15
ATOM     15  C   UNL     1      -2.983  12.966  20.746  0.00  0.00    +0.000 A 
ATOM     16  C   UNL     1      -3.001  12.170  21.902  0.00  0.00    +0.000 A 
ATOM     17  C   UNL     1      -2.787  12.741  23.162  0.00  0.00    +0.000 A 
ATOM     18  C   UNL     1      -2.537  14.107  23.272  0.00  0.00    +0.000 A 
ATOM     19 CL   UNL     1      -2.251  14.801  24.819  0.00  0.00    +0.000 Cl
ATOM     20  C   UNL     1      -2.511  14.911  22.136  0.00  0.00    +0.000 A 
ATOM     21  C   UNL     1      -2.739  14.345  20.880  0.00  0.00    +0.000 A 
ENDBRANCH   7  15
BRANCH   1  22
ATOM     22  C   UNL     1      -0.733  11.897  19.085  0.00  0.00    +0.000 C 
ATOM     23  C   UNL     1      -0.508  13.342  18.622  0.00  0.00    +0.000 C 
BRANCH  22  24
ATOM     24  C   UNL     1      -0.090  11.651  20.466  0.00  0.00    +0.000 C 
ATOM     25  O   UNL     1       0.560  12.493  21.076  0.00  0.00    +0.000 OA
BRANCH  24  26
ATOM     26  O   UNL     1      -0.244  10.358  20.871  0.00  0.00    +0.000 OA
BRANCH  26  28
ATOM     27  C   UNL     1      -0.243   9.660  23.172  0.00  0.00    +0.000 C 
ATOM     28  C   UNL     1       0.602   9.918  21.940  0.00  0.00    +0.000 C 
ENDBRANCH  26  28
ENDBRANCH  24  26
ENDBRANCH  22  24
ENDBRANCH   1  22
TORSDOF 6
ENDMDL
MODEL 9
REMARK VINA RESULT:      -5.4      3.483      6.081
REMARK  Name = 
REMARK  8 active torsions:
REMARK  status: ('A' for Active; 'I' for Inactive)
REMARK    1  A    between atoms: C_1  and  C_2
REMARK    2  A    between atoms: C_2  and  O_3
REMARK    3  A    between atoms: O_3  and  C_4
REMARK    4  A    between atoms: C_4  and  C_6
REMARK    5  A    between atoms: C_6  and  C_7
REMARK    6  A    between atoms: C_6  and  N_8
REMARK    7  A    between atoms: C_13  and  C_14
REMARK    8  A    between atoms: C_21  and  C_22
REMARK                            x       y       z     vdW  Elec       q    Type
REMARK                         _______ _______ _______ _____ _____    ______ ____
ROOT
ATOM      1  N   UNL     1      -5.366  12.490  19.368  0.00  0.00    +0.000 N 
ATOM      2  C   UNL     1      -5.712  11.974  18.116  0.00  0.00    +0.000 C 
ATOM      3  O   UNL     1      -6.878  11.793  17.761  0.00  0.00    +0.000 OA
ATOM      4  C   UNL     1      -4.597  11.728  17.123  0.00  0.00    +0.000 C 
ATOM      5  C   UNL     1      -3.329  11.196  17.751  0.00  0.00    +0.000 C 
ATOM      6  C   UNL     1      -2.891  12.140  18.869  0.00  0.00    +0.000 C 
ATOM      7  C   UNL     1      -4.021  12.209  19.941  0.00  0.00    +0.000 C 
ENDROOT
BRANCH   6   8
ATOM      8  C   UNL     1      -1.538  11.725  19.436  0.00  0.00    +0.000 A 
ATOM      9  C   UNL     1      -0.475  12.645  19.432  0.00  0.00    +0.000 A 
ATOM     10  C   UNL     1       0.754  12.322  20.008  0.00  0.00    +0.000 A 
ATOM     11  C   UNL     1       0.943  11.074  20.599  0.00  0.00    +0.000 A 
ATOM     12  C   UNL     1      -0.097  10.149  20.595  0.00  0.00    +0.000 A 
ATOM     13 CL   UNL     1       0.125   8.611  21.335  0.00  0.00    +0.000 Cl
ATOM     14  C   UNL     1      -1.327  10.463  20.012  0.00  0.00    +0.000 A 
ENDBRANCH   6   8
BRANCH   7  15
ATOM     15  C   UNL     1      -3.640  13.185  21.056  0.00  0.00    +0.000 A 
ATOM     16  C   UNL     1      -3.586  14.569  20.829  0.00  0.00    +0.000 A 
ATOM     17  C   UNL     1      -3.223  15.445  21.859  0.00  0.00    +0.000 A 
ATOM     18  C   UNL     1      -2.929  14.943  23.125  0.00  0.00    +0.000 A 
ATOM     19 CL   UNL     1      -2.505  16.024  24.394  0.00  0.00    +0.000 Cl
ATOM     20  C   UNL     1      -2.980  13.574  23.369  0.00  0.00    +0.000 A 
ATOM     21  C   UNL     1      -3.329  12.698  22.338  0.00  0.00    +0.000 A 
ENDBRANCH   7  15
BRANCH   1  22
ATOM     22  C   UNL     1      -6.500  12.688  20.323  0.00  0.00    +0.000 C 
ATOM     23  C   UNL     1      -7.702  13.417  19.711  0.00  0.00    +0.000 C 
BRANCH  22  24
ATOM     24  C   UNL     1      -6.948  11.428  21.092  0.00  0.00    +0.000 C 
ATOM     25  O   UNL     1      -7.079  10.324  20.576  0.00  0.00    +0.000 OA
BRANCH  24  26
ATOM     26  O   UNL     1      -7.280  11.716  22.383  0.00  0.00    +0.000 OA
BRANCH  26  28
ATOM     27  C   UNL     1      -7.526  13.320  24.158  0.00  0.00    +0.000 C 
ATOM     28  C   UNL     1      -6.732  12.922  22.929  0.00  0.00    +0.000 C 
ENDBRANCH  26  28
ENDBRANCH  24  26
ENDBRANCH  22  24
ENDBRANCH   1  22
TORSDOF 6
ENDMDL
