MODEL 1
REMARK VINA RESULT:      -8.1      0.000      0.000
REMARK  Name = 
REMARK  5 active torsions:
REMARK  status: ('A' for Active; 'I' for Inactive)
REMARK    1  A    between atoms: C_2  and  C_12
REMARK    2  A    between atoms: N_3  and  C_4
REMARK    3  A    between atoms: C_4  and  C_5
REMARK    4  A    between atoms: C_5  and  C_6
REMARK    5  A    between atoms: C_14  and  C_15
REMARK                            x       y       z     vdW  Elec       q    Type
REMARK                         _______ _______ _______ _____ _____    ______ ____
ROOT
ATOM      1  O   UNL     1       7.240   5.925  15.753  0.00  0.00    +0.000 OA
ATOM      2  C   UNL     1       6.790   6.365  16.808  0.00  0.00    +0.000 C 
ATOM      3  N   UNL     1       5.512   6.082  17.248  0.00  0.00    +0.000 N 
ATOM      4  H   UNL     1       5.216   6.481  18.133  0.00  0.00    +0.000 HD
ENDROOT
BRANCH   2   5
ATOM      5  C   UNL     1       7.586   7.231  17.676  0.00  0.00    +0.000 A 
ATOM      6  C   UNL     1       7.816   8.614  17.471  0.00  0.00    +0.000 A 
ATOM      7  C   UNL     1       8.614   9.010  18.517  0.00  0.00    +0.000 A 
ATOM      8  O   UNL     1       8.847   7.925  19.313  0.00  0.00    +0.000 OA
ATOM      9  N   UNL     1       8.204   6.807  18.792  0.00  0.00    +0.000 NA
BRANCH   7  10
ATOM     10  C   UNL     1       9.219  10.283  18.900  0.00  0.00    +0.000 A 
ATOM     11  C   UNL     1       9.376  10.659  20.242  0.00  0.00    +0.000 A 
ATOM     12  C   UNL     1       9.975  11.879  20.581  0.00  0.00    +0.000 A 
ATOM     13  C   UNL     1      10.424  12.740  19.581  0.00  0.00    +0.000 A 
ATOM     14  C   UNL     1      10.268  12.381  18.247  0.00  0.00    +0.000 A 
ATOM     15 CL   UNL     1      10.819  13.437  17.005  0.00  0.00    +0.000 Cl
ATOM     16  C   UNL     1       9.672  11.166  17.905  0.00  0.00    +0.000 A 
ENDBRANCH   7  10
ENDBRANCH   2   5
BRANCH   3  17
ATOM     17  C   UNL     1       4.641   5.243  16.450  0.00  0.00    +0.000 C 
BRANCH  17  18
ATOM     18  C   UNL     1       4.669   3.774  16.865  0.00  0.00    +0.000 C 
BRANCH  18  19
ATOM     19  C   UNL     1       3.551   3.454  17.829  0.00  0.00    +0.000 A 
ATOM     20  C   UNL     1       3.810   2.732  19.003  0.00  0.00    +0.000 A 
ATOM     21  C   UNL     1       2.770   2.401  19.873  0.00  0.00    +0.000 A 
ATOM     22  C   UNL     1       1.462   2.783  19.579  0.00  0.00    +0.000 A 
ATOM     23  C   UNL     1       1.194   3.499  18.414  0.00  0.00    +0.000 A 
ATOM     24  C   UNL     1       2.233   3.832  17.541  0.00  0.00    +0.000 A 
ENDBRANCH  18  19
ENDBRANCH  17  18
ENDBRANCH   3  17
TORSDOF 5
ENDMDL
MODEL 2
REMARK VINA RESULT:      -8.1      1.296      1.344
REMARK  Name = 
REMARK  5 active torsions:
REMARK  status: ('A' for Active; 'I' for Inactive)
REMARK    1  A    between atoms: C_2  and  C_12
REMARK    2  A    between atoms: N_3  and  C_4
REMARK    3  A    between atoms: C_4  and  C_5
REMARK    4  A    between atoms: C_5  and  C_6
REMARK    5  A    between atoms: C_14  and  C_15
REMARK                            x       y       z     vdW  Elec       q    Type
REMARK                         _______ _______ _______ _____ _____    ______ ____
ROOT
ATOM      1  O   UNL     1       7.638   5.207  19.111  0.00  0.00    +0.000 OA
ATOM      2  C   UNL     1       7.229   5.944  18.217  0.00  0.00    +0.000 C 
ATOM      3  N   UNL     1       6.337   5.520  17.252  0.00  0.00    +0.000 N 
ATOM      4  H   UNL     1       6.043   6.192  16.550  0.00  0.00    +0.000 HD
ENDROOT
BRANCH   2   5
ATOM      5  C   UNL     1       7.667   7.335  18.113  0.00  0.00    +0.000 A 
ATOM      6  C   UNL     1       8.599   7.970  18.971  0.00  0.00    +0.000 A 
ATOM      7  C   UNL     1       8.699   9.260  18.509  0.00  0.00    +0.000 A 
ATOM      8  O   UNL     1       7.877   9.393  17.427  0.00  0.00    +0.000 OA
ATOM      9  N   UNL     1       7.228   8.189  17.173  0.00  0.00    +0.000 NA
BRANCH   7  10
ATOM     10  C   UNL     1       9.463  10.429  18.937  0.00  0.00    +0.000 A 
ATOM     11  C   UNL     1       9.544  10.814  20.284  0.00  0.00    +0.000 A 
ATOM     12  C   UNL     1      10.297  11.930  20.667  0.00  0.00    +0.000 A 
ATOM     13  C   UNL     1      10.979  12.678  19.710  0.00  0.00    +0.000 A 
ATOM     14  C   UNL     1      10.901  12.311  18.371  0.00  0.00    +0.000 A 
ATOM     15 CL   UNL     1      11.739  13.227  17.179  0.00  0.00    +0.000 Cl
ATOM     16  C   UNL     1      10.151  11.199  17.984  0.00  0.00    +0.000 A 
ENDBRANCH   7  10
ENDBRANCH   2   5
BRANCH   3  17
ATOM     17  C   UNL     1       5.854   4.154  17.262  0.00  0.00    +0.000 C 
BRANCH  17  18
ATOM     18  C   UNL     1       4.552   3.966  16.488  0.00  0.00    +0.000 C 
BRANCH  18  19
ATOM     19  C   UNL     1       3.428   3.536  17.401  0.00  0.00    +0.000 A 
ATOM     20  C   UNL     1       3.373   2.225  17.893  0.00  0.00    +0.000 A 
ATOM     21  C   UNL     1       2.312   1.817  18.703  0.00  0.00    +0.000 A 
ATOM     22  C   UNL     1       1.293   2.712  19.026  0.00  0.00    +0.000 A 
ATOM     23  C   UNL     1       1.337   4.017  18.540  0.00  0.00    +0.000 A 
ATOM     24  C   UNL     1       2.397   4.428  17.730  0.00  0.00    +0.000 A 
ENDBRANCH  18  19
ENDBRANCH  17  18
ENDBRANCH   3  17
TORSDOF 5
ENDMDL
MODEL 3
REMARK VINA RESULT:      -8.0      1.749      2.094
REMARK  Name = 
REMARK  5 active torsions:
REMARK  status: ('A' for Active; 'I' for Inactive)
REMARK    1  A    between atoms: C_2  and  C_12
REMARK    2  A    between atoms: N_3  and  C_4
REMARK    3  A    between atoms: C_4  and  C_5
REMARK    4  A    between atoms: C_5  and  C_6
REMARK    5  A    between atoms: C_14  and  C_15
REMARK                            x       y       z     vdW  Elec       q    Type
REMARK                         _______ _______ _______ _____ _____    ______ ____
ROOT
ATOM      1  O   UNL     1       8.144   4.664  18.434  0.00  0.00    +0.000 OA
ATOM      2  C   UNL     1       7.312   5.567  18.380  0.00  0.00    +0.000 C 
ATOM      3  N   UNL     1       5.959   5.343  18.539  0.00  0.00    +0.000 N 
ATOM      4  H   UNL     1       5.337   6.143  18.485  0.00  0.00    +0.000 HD
ENDROOT
BRANCH   2   5
ATOM      5  C   UNL     1       7.705   6.954  18.137  0.00  0.00    +0.000 A 
ATOM      6  C   UNL     1       8.495   7.749  19.004  0.00  0.00    +0.000 A 
ATOM      7  C   UNL     1       8.602   8.969  18.382  0.00  0.00    +0.000 A 
ATOM      8  O   UNL     1       7.920   8.910  17.201  0.00  0.00    +0.000 OA
ATOM      9  N   UNL     1       7.356   7.649  17.041  0.00  0.00    +0.000 NA
BRANCH   7  10
ATOM     10  C   UNL     1       9.259  10.226  18.731  0.00  0.00    +0.000 A 
ATOM     11  C   UNL     1       9.985  10.974  17.792  0.00  0.00    +0.000 A 
ATOM     12  C   UNL     1      10.591  12.184  18.151  0.00  0.00    +0.000 A 
ATOM     13  C   UNL     1      10.480  12.663  19.455  0.00  0.00    +0.000 A 
ATOM     14  C   UNL     1       9.768  11.928  20.397  0.00  0.00    +0.000 A 
ATOM     15 CL   UNL     1       9.625  12.510  22.010  0.00  0.00    +0.000 Cl
ATOM     16  C   UNL     1       9.163  10.721  20.043  0.00  0.00    +0.000 A 
ENDBRANCH   7  10
ENDBRANCH   2   5
BRANCH   3  17
ATOM     17  C   UNL     1       5.470   3.999  18.771  0.00  0.00    +0.000 C 
BRANCH  17  18
ATOM     18  C   UNL     1       4.321   3.604  17.847  0.00  0.00    +0.000 C 
BRANCH  18  19
ATOM     19  C   UNL     1       3.025   3.467  18.610  0.00  0.00    +0.000 A 
ATOM     20  C   UNL     1       2.893   4.018  19.892  0.00  0.00    +0.000 A 
ATOM     21  C   UNL     1       1.709   3.856  20.614  0.00  0.00    +0.000 A 
ATOM     22  C   UNL     1       0.647   3.138  20.065  0.00  0.00    +0.000 A 
ATOM     23  C   UNL     1       0.769   2.585  18.792  0.00  0.00    +0.000 A 
ATOM     24  C   UNL     1       1.952   2.746  18.067  0.00  0.00    +0.000 A 
ENDBRANCH  18  19
ENDBRANCH  17  18
ENDBRANCH   3  17
TORSDOF 5
ENDMDL
MODEL 4
REMARK VINA RESULT:      -8.0      0.850      1.040
REMARK  Name = 
REMARK  5 active torsions:
REMARK  status: ('A' for Active; 'I' for Inactive)
REMARK    1  A    between atoms: C_2  and  C_12
REMARK    2  A    between atoms: N_3  and  C_4
REMARK    3  A    between atoms: C_4  and  C_5
REMARK    4  A    between atoms: C_5  and  C_6
REMARK    5  A    between atoms: C_14  and  C_15
REMARK                            x       y       z     vdW  Elec       q    Type
REMARK                         _______ _______ _______ _____ _____    ______ ____
ROOT
ATOM      1  O   UNL     1       6.150   6.646  15.736  0.00  0.00    +0.000 OA
ATOM      2  C   UNL     1       6.113   6.767  16.959  0.00  0.00    +0.000 C 
ATOM      3  N   UNL     1       5.086   6.256  17.727  0.00  0.00    +0.000 N 
ATOM      4  H   UNL     1       5.131   6.394  18.731  0.00  0.00    +0.000 HD
ENDROOT
BRANCH   2   5
ATOM      5  C   UNL     1       7.167   7.471  17.689  0.00  0.00    +0.000 A 
ATOM      6  C   UNL     1       7.449   8.856  17.596  0.00  0.00    +0.000 A 
ATOM      7  C   UNL     1       8.510   9.070  18.441  0.00  0.00    +0.000 A 
ATOM      8  O   UNL     1       8.845   7.878  19.018  0.00  0.00    +0.000 OA
ATOM      9  N   UNL     1       8.006   6.872  18.552  0.00  0.00    +0.000 NA
BRANCH   7  10
ATOM     10  C   UNL     1       9.291  10.250  18.802  0.00  0.00    +0.000 A 
ATOM     11  C   UNL     1       9.488  10.632  20.137  0.00  0.00    +0.000 A 
ATOM     12  C   UNL     1      10.256  11.760  20.456  0.00  0.00    +0.000 A 
ATOM     13  C   UNL     1      10.835  12.521  19.443  0.00  0.00    +0.000 A 
ATOM     14  C   UNL     1      10.642  12.156  18.115  0.00  0.00    +0.000 A 
ATOM     15 CL   UNL     1      11.352  13.089  16.856  0.00  0.00    +0.000 Cl
ATOM     16  C   UNL     1       9.877  11.033  17.794  0.00  0.00    +0.000 A 
ENDBRANCH   7  10
ENDBRANCH   2   5
BRANCH   3  17
ATOM     17  C   UNL     1       3.989   5.554  17.093  0.00  0.00    +0.000 C 
BRANCH  17  18
ATOM     18  C   UNL     1       3.973   4.057  17.394  0.00  0.00    +0.000 C 
BRANCH  18  19
ATOM     19  C   UNL     1       2.819   3.691  18.297  0.00  0.00    +0.000 A 
ATOM     20  C   UNL     1       2.302   4.625  19.204  0.00  0.00    +0.000 A 
ATOM     21  C   UNL     1       1.263   4.273  20.068  0.00  0.00    +0.000 A 
ATOM     22  C   UNL     1       0.734   2.984  20.037  0.00  0.00    +0.000 A 
ATOM     23  C   UNL     1       1.243   2.047  19.140  0.00  0.00    +0.000 A 
ATOM     24  C   UNL     1       2.282   2.396  18.275  0.00  0.00    +0.000 A 
ENDBRANCH  18  19
ENDBRANCH  17  18
ENDBRANCH   3  17
TORSDOF 5
ENDMDL
MODEL 5
REMARK VINA RESULT:      -8.0      3.464      9.467
REMARK  Name = 
REMARK  5 active torsions:
REMARK  status: ('A' for Active; 'I' for Inactive)
REMARK    1  A    between atoms: C_2  and  C_12
REMARK    2  A    between atoms: N_3  and  C_4
REMARK    3  A    between atoms: C_4  and  C_5
REMARK    4  A    between atoms: C_5  and  C_6
REMARK    5  A    between atoms: C_14  and  C_15
REMARK                            x       y       z     vdW  Elec       q    Type
REMARK                         _______ _______ _______ _____ _____    ______ ____
ROOT
ATOM      1  O   UNL     1       7.987   6.899  16.414  0.00  0.00    +0.000 OA
ATOM      2  C   UNL     1       7.317   7.034  17.435  0.00  0.00    +0.000 C 
ATOM      3  N   UNL     1       7.324   8.196  18.181  0.00  0.00    +0.000 N 
ATOM      4  H   UNL     1       6.738   8.230  19.010  0.00  0.00    +0.000 HD
ENDROOT
BRANCH   2   5
ATOM      5  C   UNL     1       6.460   5.960  17.934  0.00  0.00    +0.000 A 
ATOM      6  C   UNL     1       5.043   5.960  17.914  0.00  0.00    +0.000 A 
ATOM      7  C   UNL     1       4.671   4.768  18.484  0.00  0.00    +0.000 A 
ATOM      8  O   UNL     1       5.802   4.083  18.825  0.00  0.00    +0.000 OA
ATOM      9  N   UNL     1       6.927   4.824  18.481  0.00  0.00    +0.000 NA
BRANCH   7  10
ATOM     10  C   UNL     1       3.381   4.149  18.778  0.00  0.00    +0.000 A 
ATOM     11  C   UNL     1       2.388   3.995  17.799  0.00  0.00    +0.000 A 
ATOM     12  C   UNL     1       1.166   3.383  18.105  0.00  0.00    +0.000 A 
ATOM     13  C   UNL     1       0.920   2.917  19.394  0.00  0.00    +0.000 A 
ATOM     14  C   UNL     1       1.893   3.068  20.375  0.00  0.00    +0.000 A 
ATOM     15 CL   UNL     1       1.600   2.497  21.972  0.00  0.00    +0.000 Cl
ATOM     16  C   UNL     1       3.112   3.678  20.075  0.00  0.00    +0.000 A 
ENDBRANCH   7  10
ENDBRANCH   2   5
BRANCH   3  17
ATOM     17  C   UNL     1       8.152   9.313  17.774  0.00  0.00    +0.000 C 
BRANCH  17  18
ATOM     18  C   UNL     1       9.234   9.667  18.791  0.00  0.00    +0.000 C 
BRANCH  18  19
ATOM     19  C   UNL     1       9.560  11.141  18.755  0.00  0.00    +0.000 A 
ATOM     20  C   UNL     1      10.529  11.676  19.615  0.00  0.00    +0.000 A 
ATOM     21  C   UNL     1      10.800  13.046  19.612  0.00  0.00    +0.000 A 
ATOM     22  C   UNL     1      10.103  13.895  18.753  0.00  0.00    +0.000 A 
ATOM     23  C   UNL     1       9.136  13.373  17.896  0.00  0.00    +0.000 A 
ATOM     24  C   UNL     1       8.863  12.003  17.898  0.00  0.00    +0.000 A 
ENDBRANCH  18  19
ENDBRANCH  17  18
ENDBRANCH   3  17
TORSDOF 5
ENDMDL
MODEL 6
REMARK VINA RESULT:      -7.9      1.337      1.741
REMARK  Name = 
REMARK  5 active torsions:
REMARK  status: ('A' for Active; 'I' for Inactive)
REMARK    1  A    between atoms: C_2  and  C_12
REMARK    2  A    between atoms: N_3  and  C_4
REMARK    3  A    between atoms: C_4  and  C_5
REMARK    4  A    between atoms: C_5  and  C_6
REMARK    5  A    between atoms: C_14  and  C_15
REMARK                            x       y       z     vdW  Elec       q    Type
REMARK                         _______ _______ _______ _____ _____    ______ ____
ROOT
ATOM      1  O   UNL     1       6.854   5.232  15.927  0.00  0.00    +0.000 OA
ATOM      2  C   UNL     1       6.612   5.595  17.076  0.00  0.00    +0.000 C 
ATOM      3  N   UNL     1       5.617   5.023  17.843  0.00  0.00    +0.000 N 
ATOM      4  H   UNL     1       5.482   5.376  18.785  0.00  0.00    +0.000 HD
ENDROOT
BRANCH   2   5
ATOM      5  C   UNL     1       7.368   6.672  17.712  0.00  0.00    +0.000 A 
ATOM      6  C   UNL     1       7.388   8.025  17.291  0.00  0.00    +0.000 A 
ATOM      7  C   UNL     1       8.228   8.667  18.168  0.00  0.00    +0.000 A 
ATOM      8  O   UNL     1       8.684   7.753  19.073  0.00  0.00    +0.000 OA
ATOM      9  N   UNL     1       8.147   6.500  18.794  0.00  0.00    +0.000 NA
BRANCH   7  10
ATOM     10  C   UNL     1       8.692  10.046  18.294  0.00  0.00    +0.000 A 
ATOM     11  C   UNL     1       8.163  11.085  17.513  0.00  0.00    +0.000 A 
ATOM     12  C   UNL     1       8.616  12.401  17.666  0.00  0.00    +0.000 A 
ATOM     13  C   UNL     1       9.604  12.697  18.602  0.00  0.00    +0.000 A 
ATOM     14  C   UNL     1      10.141  11.676  19.378  0.00  0.00    +0.000 A 
ATOM     15 CL   UNL     1      11.363  12.029  20.537  0.00  0.00    +0.000 Cl
ATOM     16  C   UNL     1       9.693  10.362  19.228  0.00  0.00    +0.000 A 
ENDBRANCH   7  10
ENDBRANCH   2   5
BRANCH   3  17
ATOM     17  C   UNL     1       4.803   3.956  17.295  0.00  0.00    +0.000 C 
BRANCH  17  18
ATOM     18  C   UNL     1       3.340   4.346  17.104  0.00  0.00    +0.000 C 
BRANCH  18  19
ATOM     19  C   UNL     1       2.520   4.017  18.328  0.00  0.00    +0.000 A 
ATOM     20  C   UNL     1       1.944   2.748  18.478  0.00  0.00    +0.000 A 
ATOM     21  C   UNL     1       1.151   2.457  19.590  0.00  0.00    +0.000 A 
ATOM     22  C   UNL     1       0.921   3.431  20.560  0.00  0.00    +0.000 A 
ATOM     23  C   UNL     1       1.487   4.697  20.419  0.00  0.00    +0.000 A 
ATOM     24  C   UNL     1       2.281   4.990  19.308  0.00  0.00    +0.000 A 
ENDBRANCH  18  19
ENDBRANCH  17  18
ENDBRANCH   3  17
TORSDOF 5
ENDMDL
MODEL 7
REMARK VINA RESULT:      -7.9      3.490      9.461
REMARK  Name = 
REMARK  5 active torsions:
REMARK  status: ('A' for Active; 'I' for Inactive)
REMARK    1  A    between atoms: C_2  and  C_12
REMARK    2  A    between atoms: N_3  and  C_4
REMARK    3  A    between atoms: C_4  and  C_5
REMARK    4  A    between atoms: C_5  and  C_6
REMARK    5  A    between atoms: C_14  and  C_15
REMARK                            x       y       z     vdW  Elec       q    Type
REMARK                         _______ _______ _______ _____ _____    ______ ____
ROOT
ATOM      1  O   UNL     1       7.819   6.799  16.365  0.00  0.00    +0.000 OA
ATOM      2  C   UNL     1       7.276   6.913  17.462  0.00  0.00    +0.000 C 
ATOM      3  N   UNL     1       7.437   8.028  18.260  0.00  0.00    +0.000 N 
ATOM      4  H   UNL     1       6.951   8.048  19.151  0.00  0.00    +0.000 HD
ENDROOT
BRANCH   2   5
ATOM      5  C   UNL     1       6.417   5.861  18.002  0.00  0.00    +0.000 A 
ATOM      6  C   UNL     1       5.004   5.816  17.897  0.00  0.00    +0.000 A 
ATOM      7  C   UNL     1       4.626   4.667  18.547  0.00  0.00    +0.000 A 
ATOM      8  O   UNL     1       5.751   4.049  19.014  0.00  0.00    +0.000 OA
ATOM      9  N   UNL     1       6.876   4.791  18.674  0.00  0.00    +0.000 NA
BRANCH   7  10
ATOM     10  C   UNL     1       3.336   4.038  18.817  0.00  0.00    +0.000 A 
ATOM     11  C   UNL     1       2.369   3.862  17.816  0.00  0.00    +0.000 A 
ATOM     12  C   UNL     1       1.147   3.240  18.099  0.00  0.00    +0.000 A 
ATOM     13  C   UNL     1       0.874   2.786  19.388  0.00  0.00    +0.000 A 
ATOM     14  C   UNL     1       1.822   2.960  20.390  0.00  0.00    +0.000 A 
ATOM     15 CL   UNL     1       1.496   2.403  21.986  0.00  0.00    +0.000 Cl
ATOM     16  C   UNL     1       3.041   3.579  20.112  0.00  0.00    +0.000 A 
ENDBRANCH   7  10
ENDBRANCH   2   5
BRANCH   3  17
ATOM     17  C   UNL     1       8.280   9.120  17.817  0.00  0.00    +0.000 C 
BRANCH  17  18
ATOM     18  C   UNL     1       9.270   9.591  18.880  0.00  0.00    +0.000 C 
BRANCH  18  19
ATOM     19  C   UNL     1       9.294  11.098  18.978  0.00  0.00    +0.000 A 
ATOM     20  C   UNL     1       9.223  11.887  17.822  0.00  0.00    +0.000 A 
ATOM     21  C   UNL     1       9.287  13.279  17.910  0.00  0.00    +0.000 A 
ATOM     22  C   UNL     1       9.427  13.896  19.152  0.00  0.00    +0.000 A 
ATOM     23  C   UNL     1       9.501  13.120  20.307  0.00  0.00    +0.000 A 
ATOM     24  C   UNL     1       9.437  11.728  20.222  0.00  0.00    +0.000 A 
ENDBRANCH  18  19
ENDBRANCH  17  18
ENDBRANCH   3  17
TORSDOF 5
ENDMDL
MODEL 8
REMARK VINA RESULT:      -7.9      1.243      1.525
REMARK  Name = 
REMARK  5 active torsions:
REMARK  status: ('A' for Active; 'I' for Inactive)
REMARK    1  A    between atoms: C_2  and  C_12
REMARK    2  A    between atoms: N_3  and  C_4
REMARK    3  A    between atoms: C_4  and  C_5
REMARK    4  A    between atoms: C_5  and  C_6
REMARK    5  A    between atoms: C_14  and  C_15
REMARK                            x       y       z     vdW  Elec       q    Type
REMARK                         _______ _______ _______ _____ _____    ______ ____
ROOT
ATOM      1  O   UNL     1       6.716   5.771  15.977  0.00  0.00    +0.000 OA
ATOM      2  C   UNL     1       6.440   6.289  17.056  0.00  0.00    +0.000 C 
ATOM      3  N   UNL     1       5.291   5.983  17.757  0.00  0.00    +0.000 N 
ATOM      4  H   UNL     1       5.137   6.451  18.644  0.00  0.00    +0.000 HD
ENDROOT
BRANCH   2   5
ATOM      5  C   UNL     1       7.320   7.279  17.676  0.00  0.00    +0.000 A 
ATOM      6  C   UNL     1       7.435   8.637  17.288  0.00  0.00    +0.000 A 
ATOM      7  C   UNL     1       8.372   9.179  18.132  0.00  0.00    +0.000 A 
ATOM      8  O   UNL     1       8.796   8.203  18.987  0.00  0.00    +0.000 OA
ATOM      9  N   UNL     1       8.139   7.009  18.708  0.00  0.00    +0.000 NA
BRANCH   7  10
ATOM     10  C   UNL     1       8.960  10.509  18.266  0.00  0.00    +0.000 A 
ATOM     11  C   UNL     1       8.368  11.647  17.698  0.00  0.00    +0.000 A 
ATOM     12  C   UNL     1       8.945  12.913  17.856  0.00  0.00    +0.000 A 
ATOM     13  C   UNL     1      10.124  13.059  18.585  0.00  0.00    +0.000 A 
ATOM     14  C   UNL     1      10.724  11.938  19.148  0.00  0.00    +0.000 A 
ATOM     15 CL   UNL     1      12.180  12.107  20.049  0.00  0.00    +0.000 Cl
ATOM     16  C   UNL     1      10.152  10.675  18.992  0.00  0.00    +0.000 A 
ENDBRANCH   7  10
ENDBRANCH   2   5
BRANCH   3  17
ATOM     17  C   UNL     1       4.349   5.023  17.218  0.00  0.00    +0.000 C 
BRANCH  17  18
ATOM     18  C   UNL     1       4.369   3.680  17.944  0.00  0.00    +0.000 C 
BRANCH  18  19
ATOM     19  C   UNL     1       3.382   3.660  19.087  0.00  0.00    +0.000 A 
ATOM     20  C   UNL     1       3.580   2.806  20.181  0.00  0.00    +0.000 A 
ATOM     21  C   UNL     1       2.647   2.756  21.218  0.00  0.00    +0.000 A 
ATOM     22  C   UNL     1       1.505   3.555  21.171  0.00  0.00    +0.000 A 
ATOM     23  C   UNL     1       1.298   4.405  20.086  0.00  0.00    +0.000 A 
ATOM     24  C   UNL     1       2.230   4.456  19.048  0.00  0.00    +0.000 A 
ENDBRANCH  18  19
ENDBRANCH  17  18
ENDBRANCH   3  17
TORSDOF 5
ENDMDL
MODEL 9
REMARK VINA RESULT:      -7.7      5.854      6.948
REMARK  Name = 
REMARK  5 active torsions:
REMARK  status: ('A' for Active; 'I' for Inactive)
REMARK    1  A    between atoms: C_2  and  C_12
REMARK    2  A    between atoms: N_3  and  C_4
REMARK    3  A    between atoms: C_4  and  C_5
REMARK    4  A    between atoms: C_5  and  C_6
REMARK    5  A    between atoms: C_14  and  C_15
REMARK                            x       y       z     vdW  Elec       q    Type
REMARK                         _______ _______ _______ _____ _____    ______ ____
ROOT
ATOM      1  O   UNL     1       4.555   5.644  19.257  0.00  0.00    +0.000 OA
ATOM      2  C   UNL     1       3.523   5.913  18.645  0.00  0.00    +0.000 C 
ATOM      3  N   UNL     1       3.055   5.141  17.601  0.00  0.00    +0.000 N 
ATOM      4  H   UNL     1       2.192   5.427  17.150  0.00  0.00    +0.000 HD
ENDROOT
BRANCH   2   5
ATOM      5  C   UNL     1       2.717   7.084  18.985  0.00  0.00    +0.000 A 
ATOM      6  C   UNL     1       2.083   7.314  20.231  0.00  0.00    +0.000 A 
ATOM      7  C   UNL     1       1.440   8.520  20.095  0.00  0.00    +0.000 A 
ATOM      8  O   UNL     1       1.678   8.994  18.837  0.00  0.00    +0.000 OA
ATOM      9  N   UNL     1       2.479   8.099  18.136  0.00  0.00    +0.000 NA
BRANCH   7  10
ATOM     10  C   UNL     1       0.604   9.323  20.983  0.00  0.00    +0.000 A 
ATOM     11  C   UNL     1       0.445   9.012  22.342  0.00  0.00    +0.000 A 
ATOM     12  C   UNL     1      -0.350   9.809  23.174  0.00  0.00    +0.000 A 
ATOM     13  C   UNL     1      -0.999  10.929  22.658  0.00  0.00    +0.000 A 
ATOM     14  C   UNL     1      -0.856  11.245  21.312  0.00  0.00    +0.000 A 
ATOM     15 CL   UNL     1      -1.653  12.626  20.664  0.00  0.00    +0.000 Cl
ATOM     16  C   UNL     1      -0.064  10.453  20.479  0.00  0.00    +0.000 A 
ENDBRANCH   7  10
ENDBRANCH   2   5
BRANCH   3  17
ATOM     17  C   UNL     1       3.792   3.966  17.182  0.00  0.00    +0.000 C 
BRANCH  17  18
ATOM     18  C   UNL     1       3.135   2.655  17.605  0.00  0.00    +0.000 C 
BRANCH  18  19
ATOM     19  C   UNL     1       2.556   2.754  18.996  0.00  0.00    +0.000 A 
ATOM     20  C   UNL     1       3.363   2.531  20.120  0.00  0.00    +0.000 A 
ATOM     21  C   UNL     1       2.818   2.583  21.404  0.00  0.00    +0.000 A 
ATOM     22  C   UNL     1       1.462   2.851  21.579  0.00  0.00    +0.000 A 
ATOM     23  C   UNL     1       0.650   3.071  20.468  0.00  0.00    +0.000 A 
ATOM     24  C   UNL     1       1.193   3.021  19.182  0.00  0.00    +0.000 A 
ENDBRANCH  18  19
ENDBRANCH  17  18
ENDBRANCH   3  17
TORSDOF 5
ENDMDL
