MODEL 1
REMARK VINA RESULT:      -7.3      0.000      0.000
REMARK  Name = 
REMARK  4 active torsions:
REMARK  status: ('A' for Active; 'I' for Inactive)
REMARK    1  A    between atoms: O_1  and  C_2
REMARK    2  A    between atoms: C_5  and  C_6
REMARK    3  A    between atoms: C_7  and  C_8
REMARK    4  A    between atoms: C_14  and  O_15
REMARK                            x       y       z     vdW  Elec       q    Type
REMARK                         _______ _______ _______ _____ _____    ______ ____
ROOT
ATOM      1  C   UNL     1       6.273   4.739  17.479  0.00  0.00    +0.000 A 
ATOM      2  N   UNL     1       6.421   5.767  16.644  0.00  0.00    +0.000 NA
ATOM      3  C   UNL     1       7.189   6.772  17.116  0.00  0.00    +0.000 A 
ATOM      4  C   UNL     1       7.789   6.788  18.366  0.00  0.00    +0.000 A 
ATOM      5  C   UNL     1       7.520   5.652  19.115  0.00  0.00    +0.000 A 
ATOM      6  N   UNL     1       6.780   4.613  18.702  0.00  0.00    +0.000 NA
ENDROOT
BRANCH   1   7
ATOM      7  O   UNL     1       5.483   3.740  17.013  0.00  0.00    +0.000 OA
ATOM      8  H   UNL     1       4.618   4.168  17.119  0.00  0.00    +0.000 HD
ENDBRANCH   1   7
BRANCH   4   9
ATOM      9  C   UNL     1       8.556   7.975  18.768  0.00  0.00    +0.000 C 
ATOM     10  C   UNL     1       8.435   9.212  18.250  0.00  0.00    +0.000 C 
BRANCH  10  11
ATOM     11  C   UNL     1       9.215  10.375  18.710  0.00  0.00    +0.000 A 
ATOM     12  C   UNL     1       9.352  10.591  20.088  0.00  0.00    +0.000 A 
ATOM     13  C   UNL     1      10.109  11.662  20.574  0.00  0.00    +0.000 A 
ATOM     14  C   UNL     1      10.742  12.527  19.688  0.00  0.00    +0.000 A 
ATOM     15  C   UNL     1      10.626  12.321  18.316  0.00  0.00    +0.000 A 
ATOM     16  C   UNL     1       9.873  11.248  17.830  0.00  0.00    +0.000 A 
ENDBRANCH  10  11
ENDBRANCH   4   9
BRANCH   5  17
ATOM     17  O   UNL     1       7.962   5.515  20.402  0.00  0.00    +0.000 OA
ATOM     18  H   UNL     1       8.913   5.327  20.335  0.00  0.00    +0.000 HD
ENDBRANCH   5  17
TORSDOF 4
ENDMDL
MODEL 2
REMARK VINA RESULT:      -7.2      5.492      7.888
REMARK  Name = 
REMARK  4 active torsions:
REMARK  status: ('A' for Active; 'I' for Inactive)
REMARK    1  A    between atoms: O_1  and  C_2
REMARK    2  A    between atoms: C_5  and  C_6
REMARK    3  A    between atoms: C_7  and  C_8
REMARK    4  A    between atoms: C_14  and  O_15
REMARK                            x       y       z     vdW  Elec       q    Type
REMARK                         _______ _______ _______ _____ _____    ______ ____
ROOT
ATOM      1  C   UNL     1       7.002   5.059  14.646  0.00  0.00    +0.000 A 
ATOM      2  N   UNL     1       5.674   5.006  14.538  0.00  0.00    +0.000 NA
ATOM      3  C   UNL     1       5.029   4.683  15.679  0.00  0.00    +0.000 A 
ATOM      4  C   UNL     1       5.649   4.408  16.888  0.00  0.00    +0.000 A 
ATOM      5  C   UNL     1       7.032   4.489  16.823  0.00  0.00    +0.000 A 
ATOM      6  N   UNL     1       7.735   4.819  15.729  0.00  0.00    +0.000 NA
ENDROOT
BRANCH   1   7
ATOM      7  O   UNL     1       7.652   5.362  13.494  0.00  0.00    +0.000 OA
ATOM      8  H   UNL     1       7.029   6.015  13.136  0.00  0.00    +0.000 HD
ENDBRANCH   1   7
BRANCH   4   9
ATOM      9  C   UNL     1       4.820   4.017  18.037  0.00  0.00    +0.000 C 
ATOM     10  C   UNL     1       3.477   3.925  18.052  0.00  0.00    +0.000 C 
BRANCH  10  11
ATOM     11  C   UNL     1       2.697   3.504  19.230  0.00  0.00    +0.000 A 
ATOM     12  C   UNL     1       3.378   2.974  20.334  0.00  0.00    +0.000 A 
ATOM     13  C   UNL     1       2.685   2.589  21.486  0.00  0.00    +0.000 A 
ATOM     14  C   UNL     1       1.303   2.734  21.551  0.00  0.00    +0.000 A 
ATOM     15  C   UNL     1       0.611   3.269  20.467  0.00  0.00    +0.000 A 
ATOM     16  C   UNL     1       1.305   3.658  19.317  0.00  0.00    +0.000 A 
ENDBRANCH  10  11
ENDBRANCH   4   9
BRANCH   5  17
ATOM     17  O   UNL     1       7.825   4.181  17.893  0.00  0.00    +0.000 OA
ATOM     18  H   UNL     1       8.339   3.400  17.625  0.00  0.00    +0.000 HD
ENDBRANCH   5  17
TORSDOF 4
ENDMDL
MODEL 3
REMARK VINA RESULT:      -7.1      5.464      7.908
REMARK  Name = 
REMARK  4 active torsions:
REMARK  status: ('A' for Active; 'I' for Inactive)
REMARK    1  A    between atoms: O_1  and  C_2
REMARK    2  A    between atoms: C_5  and  C_6
REMARK    3  A    between atoms: C_7  and  C_8
REMARK    4  A    between atoms: C_14  and  O_15
REMARK                            x       y       z     vdW  Elec       q    Type
REMARK                         _______ _______ _______ _____ _____    ______ ____
ROOT
ATOM      1  C   UNL     1       7.018   5.032  14.618  0.00  0.00    +0.000 A 
ATOM      2  N   UNL     1       5.689   5.091  14.534  0.00  0.00    +0.000 NA
ATOM      3  C   UNL     1       5.040   4.865  15.695  0.00  0.00    +0.000 A 
ATOM      4  C   UNL     1       5.656   4.580  16.904  0.00  0.00    +0.000 A 
ATOM      5  C   UNL     1       7.040   4.538  16.814  0.00  0.00    +0.000 A 
ATOM      6  N   UNL     1       7.747   4.767  15.699  0.00  0.00    +0.000 NA
ENDROOT
BRANCH   1   7
ATOM      7  O   UNL     1       7.670   5.237  13.447  0.00  0.00    +0.000 OA
ATOM      8  H   UNL     1       6.904   5.398  12.873  0.00  0.00    +0.000 HD
ENDBRANCH   1   7
BRANCH   4   9
ATOM      9  C   UNL     1       4.818   4.303  18.079  0.00  0.00    +0.000 C 
ATOM     10  C   UNL     1       3.674   3.593  18.089  0.00  0.00    +0.000 C 
BRANCH  10  11
ATOM     11  C   UNL     1       2.885   3.326  19.305  0.00  0.00    +0.000 A 
ATOM     12  C   UNL     1       1.521   3.647  19.305  0.00  0.00    +0.000 A 
ATOM     13  C   UNL     1       0.723   3.384  20.424  0.00  0.00    +0.000 A 
ATOM     14  C   UNL     1       1.279   2.792  21.554  0.00  0.00    +0.000 A 
ATOM     15  C   UNL     1       2.631   2.457  21.566  0.00  0.00    +0.000 A 
ATOM     16  C   UNL     1       3.427   2.716  20.447  0.00  0.00    +0.000 A 
ENDBRANCH  10  11
ENDBRANCH   4   9
BRANCH   5  17
ATOM     17  O   UNL     1       7.823   4.199  17.883  0.00  0.00    +0.000 OA
ATOM     18  H   UNL     1       7.293   3.578  18.411  0.00  0.00    +0.000 HD
ENDBRANCH   5  17
TORSDOF 4
ENDMDL
MODEL 4
REMARK VINA RESULT:      -7.1      5.236      7.875
REMARK  Name = 
REMARK  4 active torsions:
REMARK  status: ('A' for Active; 'I' for Inactive)
REMARK    1  A    between atoms: O_1  and  C_2
REMARK    2  A    between atoms: C_5  and  C_6
REMARK    3  A    between atoms: C_7  and  C_8
REMARK    4  A    between atoms: C_14  and  O_15
REMARK                            x       y       z     vdW  Elec       q    Type
REMARK                         _______ _______ _______ _____ _____    ______ ____
ROOT
ATOM      1  C   UNL     1       7.442   5.220  14.194  0.00  0.00    +0.000 A 
ATOM      2  N   UNL     1       6.508   4.347  13.815  0.00  0.00    +0.000 NA
ATOM      3  C   UNL     1       5.619   4.020  14.777  0.00  0.00    +0.000 A 
ATOM      4  C   UNL     1       5.638   4.514  16.073  0.00  0.00    +0.000 A 
ATOM      5  C   UNL     1       6.684   5.394  16.306  0.00  0.00    +0.000 A 
ATOM      6  N   UNL     1       7.591   5.773  15.394  0.00  0.00    +0.000 NA
ENDROOT
BRANCH   1   7
ATOM      7  O   UNL     1       8.348   5.531  13.234  0.00  0.00    +0.000 OA
ATOM      8  H   UNL     1       8.592   4.633  12.958  0.00  0.00    +0.000 HD
ENDBRANCH   1   7
BRANCH   4   9
ATOM      9  C   UNL     1       4.636   4.027  17.031  0.00  0.00    +0.000 C 
ATOM     10  C   UNL     1       3.576   4.719  17.491  0.00  0.00    +0.000 C 
BRANCH  10  11
ATOM     11  C   UNL     1       2.587   4.172  18.437  0.00  0.00    +0.000 A 
ATOM     12  C   UNL     1       2.395   4.824  19.662  0.00  0.00    +0.000 A 
ATOM     13  C   UNL     1       1.446   4.361  20.580  0.00  0.00    +0.000 A 
ATOM     14  C   UNL     1       0.673   3.243  20.280  0.00  0.00    +0.000 A 
ATOM     15  C   UNL     1       0.843   2.589  19.062  0.00  0.00    +0.000 A 
ATOM     16  C   UNL     1       1.789   3.055  18.143  0.00  0.00    +0.000 A 
ENDBRANCH  10  11
ENDBRANCH   4   9
BRANCH   5  17
ATOM     17  O   UNL     1       6.915   5.930  17.543  0.00  0.00    +0.000 OA
ATOM     18  H   UNL     1       6.146   6.494  17.733  0.00  0.00    +0.000 HD
ENDBRANCH   5  17
TORSDOF 4
ENDMDL
MODEL 5
REMARK VINA RESULT:      -6.9      5.390      7.729
REMARK  Name = 
REMARK  4 active torsions:
REMARK  status: ('A' for Active; 'I' for Inactive)
REMARK    1  A    between atoms: O_1  and  C_2
REMARK    2  A    between atoms: C_5  and  C_6
REMARK    3  A    between atoms: C_7  and  C_8
REMARK    4  A    between atoms: C_14  and  O_15
REMARK                            x       y       z     vdW  Elec       q    Type
REMARK                         _______ _______ _______ _____ _____    ______ ____
ROOT
ATOM      1  C   UNL     1       7.121   4.853  13.804  0.00  0.00    +0.000 A 
ATOM      2  N   UNL     1       5.991   4.151  13.713  0.00  0.00    +0.000 NA
ATOM      3  C   UNL     1       5.298   4.045  14.866  0.00  0.00    +0.000 A 
ATOM      4  C   UNL     1       5.690   4.593  16.078  0.00  0.00    +0.000 A 
ATOM      5  C   UNL     1       6.896   5.275  16.004  0.00  0.00    +0.000 A 
ATOM      6  N   UNL     1       7.626   5.431  14.890  0.00  0.00    +0.000 NA
ENDROOT
BRANCH   1   7
ATOM      7  O   UNL     1       7.828   4.941  12.651  0.00  0.00    +0.000 OA
ATOM      8  H   UNL     1       8.726   4.919  13.021  0.00  0.00    +0.000 HD
ENDBRANCH   1   7
BRANCH   4   9
ATOM      9  C   UNL     1       4.861   4.351  17.267  0.00  0.00    +0.000 C 
ATOM     10  C   UNL     1       3.522   4.479  17.339  0.00  0.00    +0.000 C 
BRANCH  10  11
ATOM     11  C   UNL     1       2.736   4.200  18.555  0.00  0.00    +0.000 A 
ATOM     12  C   UNL     1       1.634   3.339  18.461  0.00  0.00    +0.000 A 
ATOM     13  C   UNL     1       0.876   3.019  19.592  0.00  0.00    +0.000 A 
ATOM     14  C   UNL     1       1.214   3.552  20.832  0.00  0.00    +0.000 A 
ATOM     15  C   UNL     1       2.313   4.400  20.946  0.00  0.00    +0.000 A 
ATOM     16  C   UNL     1       3.073   4.716  19.816  0.00  0.00    +0.000 A 
ENDBRANCH  10  11
ENDBRANCH   4   9
BRANCH   5  17
ATOM     17  O   UNL     1       7.485   5.821  17.110  0.00  0.00    +0.000 OA
ATOM     18  H   UNL     1       6.785   6.323  17.561  0.00  0.00    +0.000 HD
ENDBRANCH   5  17
TORSDOF 4
ENDMDL
MODEL 6
REMARK VINA RESULT:      -6.9      0.543      1.317
REMARK  Name = 
REMARK  4 active torsions:
REMARK  status: ('A' for Active; 'I' for Inactive)
REMARK    1  A    between atoms: O_1  and  C_2
REMARK    2  A    between atoms: C_5  and  C_6
REMARK    3  A    between atoms: C_7  and  C_8
REMARK    4  A    between atoms: C_14  and  O_15
REMARK                            x       y       z     vdW  Elec       q    Type
REMARK                         _______ _______ _______ _____ _____    ______ ____
ROOT
ATOM      1  C   UNL     1       6.008   5.339  17.139  0.00  0.00    +0.000 A 
ATOM      2  N   UNL     1       6.060   6.514  16.512  0.00  0.00    +0.000 NA
ATOM      3  C   UNL     1       6.941   7.393  17.034  0.00  0.00    +0.000 A 
ATOM      4  C   UNL     1       7.742   7.149  18.139  0.00  0.00    +0.000 A 
ATOM      5  C   UNL     1       7.551   5.887  18.683  0.00  0.00    +0.000 A 
ATOM      6  N   UNL     1       6.706   4.962  18.206  0.00  0.00    +0.000 NA
ENDROOT
BRANCH   1   7
ATOM      7  O   UNL     1       5.107   4.464  16.628  0.00  0.00    +0.000 OA
ATOM      8  H   UNL     1       5.501   3.636  16.948  0.00  0.00    +0.000 HD
ENDBRANCH   1   7
BRANCH   4   9
ATOM      9  C   UNL     1       8.619   8.221  18.630  0.00  0.00    +0.000 C 
ATOM     10  C   UNL     1       8.533   9.526  18.310  0.00  0.00    +0.000 C 
BRANCH  10  11
ATOM     11  C   UNL     1       9.426  10.565  18.852  0.00  0.00    +0.000 A 
ATOM     12  C   UNL     1      10.205  11.316  17.961  0.00  0.00    +0.000 A 
ATOM     13  C   UNL     1      11.046  12.333  18.425  0.00  0.00    +0.000 A 
ATOM     14  C   UNL     1      11.113  12.616  19.786  0.00  0.00    +0.000 A 
ATOM     15  C   UNL     1      10.338  11.887  20.684  0.00  0.00    +0.000 A 
ATOM     16  C   UNL     1       9.495  10.873  20.220  0.00  0.00    +0.000 A 
ENDBRANCH  10  11
ENDBRANCH   4   9
BRANCH   5  17
ATOM     17  O   UNL     1       8.195   5.487  19.820  0.00  0.00    +0.000 OA
ATOM     18  H   UNL     1       8.100   6.221  20.450  0.00  0.00    +0.000 HD
ENDBRANCH   5  17
TORSDOF 4
ENDMDL
MODEL 7
REMARK VINA RESULT:      -6.7      1.487      2.243
REMARK  Name = 
REMARK  4 active torsions:
REMARK  status: ('A' for Active; 'I' for Inactive)
REMARK    1  A    between atoms: O_1  and  C_2
REMARK    2  A    between atoms: C_5  and  C_6
REMARK    3  A    between atoms: C_7  and  C_8
REMARK    4  A    between atoms: C_14  and  O_15
REMARK                            x       y       z     vdW  Elec       q    Type
REMARK                         _______ _______ _______ _____ _____    ______ ____
ROOT
ATOM      1  C   UNL     1       6.459   4.808  18.458  0.00  0.00    +0.000 A 
ATOM      2  N   UNL     1       7.470   5.235  19.215  0.00  0.00    +0.000 NA
ATOM      3  C   UNL     1       7.935   6.461  18.896  0.00  0.00    +0.000 A 
ATOM      4  C   UNL     1       7.446   7.249  17.865  0.00  0.00    +0.000 A 
ATOM      5  C   UNL     1       6.409   6.650  17.165  0.00  0.00    +0.000 A 
ATOM      6  N   UNL     1       5.889   5.444  17.439  0.00  0.00    +0.000 NA
ENDROOT
BRANCH   1   7
ATOM      7  O   UNL     1       6.006   3.567  18.765  0.00  0.00    +0.000 OA
ATOM      8  H   UNL     1       5.164   3.589  18.283  0.00  0.00    +0.000 HD
ENDBRANCH   1   7
BRANCH   4   9
ATOM      9  C   UNL     1       8.086   8.544  17.597  0.00  0.00    +0.000 C 
ATOM     10  C   UNL     1       8.572   9.396  18.520  0.00  0.00    +0.000 C 
BRANCH  10  11
ATOM     11  C   UNL     1       9.228  10.674  18.193  0.00  0.00    +0.000 A 
ATOM     12  C   UNL     1       8.430  11.761  17.809  0.00  0.00    +0.000 A 
ATOM     13  C   UNL     1       9.004  13.003  17.518  0.00  0.00    +0.000 A 
ATOM     14  C   UNL     1      10.381  13.175  17.612  0.00  0.00    +0.000 A 
ATOM     15  C   UNL     1      11.188  12.109  18.002  0.00  0.00    +0.000 A 
ATOM     16  C   UNL     1      10.614  10.868  18.297  0.00  0.00    +0.000 A 
ENDBRANCH  10  11
ENDBRANCH   4   9
BRANCH   5  17
ATOM     17  O   UNL     1       5.844   7.238  16.068  0.00  0.00    +0.000 OA
ATOM     18  H   UNL     1       5.426   6.516  15.567  0.00  0.00    +0.000 HD
ENDBRANCH   5  17
TORSDOF 4
ENDMDL
MODEL 8
REMARK VINA RESULT:      -6.6      6.183      7.297
REMARK  Name = 
REMARK  4 active torsions:
REMARK  status: ('A' for Active; 'I' for Inactive)
REMARK    1  A    between atoms: O_1  and  C_2
REMARK    2  A    between atoms: C_5  and  C_6
REMARK    3  A    between atoms: C_7  and  C_8
REMARK    4  A    between atoms: C_14  and  O_15
REMARK                            x       y       z     vdW  Elec       q    Type
REMARK                         _______ _______ _______ _____ _____    ______ ____
ROOT
ATOM      1  C   UNL     1       2.995   4.808  20.164  0.00  0.00    +0.000 A 
ATOM      2  N   UNL     1       3.221   5.814  19.318  0.00  0.00    +0.000 NA
ATOM      3  C   UNL     1       3.834   5.457  18.170  0.00  0.00    +0.000 A 
ATOM      4  C   UNL     1       4.228   4.167  17.850  0.00  0.00    +0.000 A 
ATOM      5  C   UNL     1       3.936   3.245  18.845  0.00  0.00    +0.000 A 
ATOM      6  N   UNL     1       3.317   3.528  20.000  0.00  0.00    +0.000 NA
ENDROOT
BRANCH   1   7
ATOM      7  O   UNL     1       2.399   5.170  21.327  0.00  0.00    +0.000 OA
ATOM      8  H   UNL     1       1.965   5.985  21.029  0.00  0.00    +0.000 HD
ENDBRANCH   1   7
BRANCH   4   9
ATOM      9  C   UNL     1       4.935   3.934  16.583  0.00  0.00    +0.000 C 
ATOM     10  C   UNL     1       5.201   4.859  15.642  0.00  0.00    +0.000 C 
BRANCH  10  11
ATOM     11  C   UNL     1       5.937   4.574  14.397  0.00  0.00    +0.000 A 
ATOM     12  C   UNL     1       5.370   3.692  13.467  0.00  0.00    +0.000 A 
ATOM     13  C   UNL     1       6.014   3.413  12.257  0.00  0.00    +0.000 A 
ATOM     14  C   UNL     1       7.232   4.018  11.960  0.00  0.00    +0.000 A 
ATOM     15  C   UNL     1       7.804   4.905  12.868  0.00  0.00    +0.000 A 
ATOM     16  C   UNL     1       7.158   5.187  14.075  0.00  0.00    +0.000 A 
ENDBRANCH  10  11
ENDBRANCH   4   9
BRANCH   5  17
ATOM     17  O   UNL     1       4.312   1.934  18.748  0.00  0.00    +0.000 OA
ATOM     18  H   UNL     1       3.800   1.567  18.008  0.00  0.00    +0.000 HD
ENDBRANCH   5  17
TORSDOF 4
ENDMDL
MODEL 9
REMARK VINA RESULT:      -6.5      6.216      7.302
REMARK  Name = 
REMARK  4 active torsions:
REMARK  status: ('A' for Active; 'I' for Inactive)
REMARK    1  A    between atoms: O_1  and  C_2
REMARK    2  A    between atoms: C_5  and  C_6
REMARK    3  A    between atoms: C_7  and  C_8
REMARK    4  A    between atoms: C_14  and  O_15
REMARK                            x       y       z     vdW  Elec       q    Type
REMARK                         _______ _______ _______ _____ _____    ______ ____
ROOT
ATOM      1  C   UNL     1       2.887   4.894  20.052  0.00  0.00    +0.000 A 
ATOM      2  N   UNL     1       2.881   5.847  19.120  0.00  0.00    +0.000 NA
ATOM      3  C   UNL     1       3.439   5.490  17.944  0.00  0.00    +0.000 A 
ATOM      4  C   UNL     1       3.999   4.250  17.678  0.00  0.00    +0.000 A 
ATOM      5  C   UNL     1       3.940   3.382  18.759  0.00  0.00    +0.000 A 
ATOM      6  N   UNL     1       3.387   3.666  19.947  0.00  0.00    +0.000 NA
ENDROOT
BRANCH   1   7
ATOM      7  O   UNL     1       2.345   5.260  21.240  0.00  0.00    +0.000 OA
ATOM      8  H   UNL     1       3.163   5.453  21.727  0.00  0.00    +0.000 HD
ENDBRANCH   1   7
BRANCH   4   9
ATOM      9  C   UNL     1       4.621   4.019  16.367  0.00  0.00    +0.000 C 
ATOM     10  C   UNL     1       5.359   4.905  15.672  0.00  0.00    +0.000 C 
BRANCH  10  11
ATOM     11  C   UNL     1       5.981   4.610  14.368  0.00  0.00    +0.000 A 
ATOM     12  C   UNL     1       7.190   5.238  14.042  0.00  0.00    +0.000 A 
ATOM     13  C   UNL     1       7.835   4.968  12.830  0.00  0.00    +0.000 A 
ATOM     14  C   UNL     1       7.279   4.062  11.932  0.00  0.00    +0.000 A 
ATOM     15  C   UNL     1       6.083   3.421  12.245  0.00  0.00    +0.000 A 
ATOM     16  C   UNL     1       5.442   3.688  13.458  0.00  0.00    +0.000 A 
ENDBRANCH  10  11
ENDBRANCH   4   9
BRANCH   5  17
ATOM     17  O   UNL     1       4.505   2.138  18.717  0.00  0.00    +0.000 OA
ATOM     18  H   UNL     1       4.797   1.950  19.625  0.00  0.00    +0.000 HD
ENDBRANCH   5  17
TORSDOF 4
ENDMDL
