MODEL 1
REMARK VINA RESULT:      -7.0      0.000      0.000
REMARK  Name = 
REMARK  11 active torsions:
REMARK  status: ('A' for Active; 'I' for Inactive)
REMARK    1  A    between atoms: N_5  and  C_6
REMARK    2  A    between atoms: C_8  and  C_9
REMARK    3  A    between atoms: C_9  and  O_10
REMARK    4  A    between atoms: O_10  and  P_11
REMARK    5  A    between atoms: P_11  and  O_13
REMARK    6  A    between atoms: P_11  and  C_14
REMARK    7  A    between atoms: C_14  and  P_17
REMARK    8  A    between atoms: P_17  and  O_19
REMARK    9  A    between atoms: P_17  and  O_20
REMARK   10  A    between atoms: C_21  and  O_22
REMARK   11  A    between atoms: C_23  and  O_24
REMARK                            x       y       z     vdW  Elec       q    Type
REMARK                         _______ _______ _______ _____ _____    ______ ____
ROOT
ATOM      1  C   UNL     1       1.815   5.051  19.499  0.00  0.00    +0.000 C 
ATOM      2  O   UNL     1       2.669   4.652  20.590  0.00  0.00    +0.000 OA
ATOM      3  C   UNL     1       3.209   3.339  20.318  0.00  0.00    +0.000 C 
ATOM      4  C   UNL     1       2.447   2.797  19.110  0.00  0.00    +0.000 C 
ATOM      5  C   UNL     1       2.061   4.057  18.352  0.00  0.00    +0.000 C 
ENDROOT
BRANCH   1  10
ATOM      6  O   UNL     1       2.272  10.267  17.962  0.00  0.00    +0.000 OA
ATOM      7  C   UNL     1       2.259   9.102  18.336  0.00  0.00    +0.000 A 
ATOM      8  C   UNL     1       2.785   8.018  17.496  0.00  0.00    +0.000 A 
ATOM      9  C   UNL     1       2.664   6.760  17.911  0.00  0.00    +0.000 A 
ATOM     10  N   UNL     1       2.071   6.436  19.118  0.00  0.00    +0.000 N 
ATOM     11  C   UNL     1       1.588   7.425  19.978  0.00  0.00    +0.000 A 
ATOM     12  O   UNL     1       1.056   7.197  21.054  0.00  0.00    +0.000 OA
ATOM     13  N   UNL     1       1.745   8.714  19.543  0.00  0.00    +0.000 N 
ATOM     14  H   UNL     1       1.373   9.438  20.137  0.00  0.00    +0.000 HD
ENDBRANCH   1  10
BRANCH   4  15
ATOM     15  O   UNL     1       1.254   2.106  19.509  0.00  0.00    +0.000 OA
ATOM     16  H   UNL     1       0.688   1.965  18.726  0.00  0.00    +0.000 HD
ENDBRANCH   4  15
BRANCH   5  17
ATOM     17  O   UNL     1       0.938   3.829  17.509  0.00  0.00    +0.000 OA
ATOM     18  H   UNL     1       0.687   2.890  17.619  0.00  0.00    +0.000 HD
ENDBRANCH   5  17
BRANCH   3  19
ATOM     19  C   UNL     1       4.713   3.442  20.062  0.00  0.00    +0.000 C 
BRANCH  19  20
ATOM     20  O   UNL     1       5.114   4.816  19.979  0.00  0.00    +0.000 OA
BRANCH  20  21
ATOM     21  P   UNL     1       6.118   5.110  18.602  0.00  0.00    +0.000 P 
ATOM     22  O   UNL     1       7.312   5.167  19.569  0.00  0.00    +0.000 OA
BRANCH  21  23
ATOM     23  C   UNL     1       7.181   5.421  17.145  0.00  0.00    +0.000 C 
ATOM     24  F   UNL     1       7.834   6.600  17.268  0.00  0.00    +0.000 F 
ATOM     25  F   UNL     1       8.115   4.428  17.176  0.00  0.00    +0.000 F 
BRANCH  23  26
ATOM     26  P   UNL     1       6.665   5.312  15.473  0.00  0.00    +0.000 P 
ATOM     27  O   UNL     1       7.662   5.394  14.353  0.00  0.00    +0.000 OA
BRANCH  26  28
ATOM     28  O   UNL     1       5.942   3.869  15.378  0.00  0.00    +0.000 OA
ATOM     29  H   UNL     1       6.532   3.178  15.745  0.00  0.00    +0.000 HD
ENDBRANCH  26  28
BRANCH  26  30
ATOM     30  O   UNL     1       5.403   6.255  15.150  0.00  0.00    +0.000 OA
ATOM     31  H   UNL     1       5.428   6.569  14.220  0.00  0.00    +0.000 HD
ENDBRANCH  26  30
ENDBRANCH  23  26
ENDBRANCH  21  23
BRANCH  21  32
ATOM     32  O   UNL     1       5.827   3.535  18.217  0.00  0.00    +0.000 OA
ATOM     33  H   UNL     1       4.871   3.339  18.269  0.00  0.00    +0.000 HD
ENDBRANCH  21  32
ENDBRANCH  20  21
ENDBRANCH  19  20
ENDBRANCH   3  19
TORSDOF 11
ENDMDL
MODEL 2
REMARK VINA RESULT:      -6.9      3.818      6.878
REMARK  Name = 
REMARK  11 active torsions:
REMARK  status: ('A' for Active; 'I' for Inactive)
REMARK    1  A    between atoms: N_5  and  C_6
REMARK    2  A    between atoms: C_8  and  C_9
REMARK    3  A    between atoms: C_9  and  O_10
REMARK    4  A    between atoms: O_10  and  P_11
REMARK    5  A    between atoms: P_11  and  O_13
REMARK    6  A    between atoms: P_11  and  C_14
REMARK    7  A    between atoms: C_14  and  P_17
REMARK    8  A    between atoms: P_17  and  O_19
REMARK    9  A    between atoms: P_17  and  O_20
REMARK   10  A    between atoms: C_21  and  O_22
REMARK   11  A    between atoms: C_23  and  O_24
REMARK                            x       y       z     vdW  Elec       q    Type
REMARK                         _______ _______ _______ _____ _____    ______ ____
ROOT
ATOM      1  C   UNL     1       6.946   5.709  15.414  0.00  0.00    +0.000 C 
ATOM      2  O   UNL     1       7.765   5.093  16.429  0.00  0.00    +0.000 OA
ATOM      3  C   UNL     1       7.238   5.425  17.734  0.00  0.00    +0.000 C 
ATOM      4  C   UNL     1       6.184   6.509  17.514  0.00  0.00    +0.000 C 
ATOM      5  C   UNL     1       5.673   6.215  16.113  0.00  0.00    +0.000 C 
ENDROOT
BRANCH   1  10
ATOM      6  O   UNL     1       5.699   2.596  11.110  0.00  0.00    +0.000 OA
ATOM      7  C   UNL     1       6.025   3.220  12.110  0.00  0.00    +0.000 A 
ATOM      8  C   UNL     1       5.270   3.112  13.365  0.00  0.00    +0.000 A 
ATOM      9  C   UNL     1       5.612   3.881  14.395  0.00  0.00    +0.000 A 
ATOM     10  N   UNL     1       6.668   4.771  14.332  0.00  0.00    +0.000 N 
ATOM     11  C   UNL     1       7.449   4.889  13.180  0.00  0.00    +0.000 A 
ATOM     12  O   UNL     1       8.393   5.657  13.068  0.00  0.00    +0.000 OA
ATOM     13  N   UNL     1       7.095   4.072  12.140  0.00  0.00    +0.000 N 
ATOM     14  H   UNL     1       7.629   4.167  11.291  0.00  0.00    +0.000 HD
ENDBRANCH   1  10
BRANCH   4  15
ATOM     15  O   UNL     1       6.767   7.821  17.535  0.00  0.00    +0.000 OA
ATOM     16  H   UNL     1       6.637   8.215  18.419  0.00  0.00    +0.000 HD
ENDBRANCH   4  15
BRANCH   5  17
ATOM     17  O   UNL     1       5.088   7.369  15.523  0.00  0.00    +0.000 OA
ATOM     18  H   UNL     1       4.185   7.118  15.244  0.00  0.00    +0.000 HD
ENDBRANCH   5  17
BRANCH   3  19
ATOM     19  C   UNL     1       6.659   4.172  18.391  0.00  0.00    +0.000 C 
BRANCH  19  20
ATOM     20  O   UNL     1       5.697   4.531  19.392  0.00  0.00    +0.000 OA
BRANCH  20  21
ATOM     21  P   UNL     1       4.280   3.543  19.306  0.00  0.00    +0.000 P 
ATOM     22  O   UNL     1       4.512   3.461  17.788  0.00  0.00    +0.000 OA
BRANCH  21  23
ATOM     23  C   UNL     1       2.781   2.497  19.214  0.00  0.00    +0.000 C 
ATOM     24  F   UNL     1       3.019   1.376  18.495  0.00  0.00    +0.000 F 
ATOM     25  F   UNL     1       2.541   2.117  20.502  0.00  0.00    +0.000 F 
BRANCH  23  26
ATOM     26  P   UNL     1       1.184   3.054  18.751  0.00  0.00    +0.000 P 
ATOM     27  O   UNL     1       1.003   4.002  17.601  0.00  0.00    +0.000 OA
BRANCH  26  28
ATOM     28  O   UNL     1       0.382   1.696  18.396  0.00  0.00    +0.000 OA
ATOM     29  H   UNL     1       1.015   0.953  18.297  0.00  0.00    +0.000 HD
ENDBRANCH  26  28
BRANCH  26  30
ATOM     30  O   UNL     1       0.311   3.549  20.008  0.00  0.00    +0.000 OA
ATOM     31  H   UNL     1       0.881   3.967  20.689  0.00  0.00    +0.000 HD
ENDBRANCH  26  30
ENDBRANCH  23  26
ENDBRANCH  21  23
BRANCH  21  32
ATOM     32  O   UNL     1       5.199   2.390  20.042  0.00  0.00    +0.000 OA
ATOM     33  H   UNL     1       6.090   2.735  20.240  0.00  0.00    +0.000 HD
ENDBRANCH  21  32
ENDBRANCH  20  21
ENDBRANCH  19  20
ENDBRANCH   3  19
TORSDOF 11
ENDMDL
MODEL 3
REMARK VINA RESULT:      -6.9      4.226      7.304
REMARK  Name = 
REMARK  11 active torsions:
REMARK  status: ('A' for Active; 'I' for Inactive)
REMARK    1  A    between atoms: N_5  and  C_6
REMARK    2  A    between atoms: C_8  and  C_9
REMARK    3  A    between atoms: C_9  and  O_10
REMARK    4  A    between atoms: O_10  and  P_11
REMARK    5  A    between atoms: P_11  and  O_13
REMARK    6  A    between atoms: P_11  and  C_14
REMARK    7  A    between atoms: C_14  and  P_17
REMARK    8  A    between atoms: P_17  and  O_19
REMARK    9  A    between atoms: P_17  and  O_20
REMARK   10  A    between atoms: C_21  and  O_22
REMARK   11  A    between atoms: C_23  and  O_24
REMARK                            x       y       z     vdW  Elec       q    Type
REMARK                         _______ _______ _______ _____ _____    ______ ____
ROOT
ATOM      1  C   UNL     1       4.437   5.144  18.784  0.00  0.00    +0.000 C 
ATOM      2  O   UNL     1       4.323   6.575  18.926  0.00  0.00    +0.000 OA
ATOM      3  C   UNL     1       4.161   7.172  17.619  0.00  0.00    +0.000 C 
ATOM      4  C   UNL     1       4.440   6.070  16.599  0.00  0.00    +0.000 C 
ATOM      5  C   UNL     1       4.036   4.805  17.339  0.00  0.00    +0.000 C 
ENDROOT
BRANCH   1  10
ATOM      6  O   UNL     1       1.209   2.277  22.122  0.00  0.00    +0.000 OA
ATOM      7  C   UNL     1       1.968   2.963  21.450  0.00  0.00    +0.000 A 
ATOM      8  C   UNL     1       1.624   4.337  21.064  0.00  0.00    +0.000 A 
ATOM      9  C   UNL     1       2.443   5.007  20.256  0.00  0.00    +0.000 A 
ATOM     10  N   UNL     1       3.619   4.458  19.779  0.00  0.00    +0.000 N 
ATOM     11  C   UNL     1       4.019   3.171  20.144  0.00  0.00    +0.000 A 
ATOM     12  O   UNL     1       5.046   2.636  19.753  0.00  0.00    +0.000 OA
ATOM     13  N   UNL     1       3.175   2.509  20.994  0.00  0.00    +0.000 N 
ATOM     14  H   UNL     1       3.433   1.567  21.242  0.00  0.00    +0.000 HD
ENDBRANCH   1  10
BRANCH   4  15
ATOM     15  O   UNL     1       5.836   5.997  16.273  0.00  0.00    +0.000 OA
ATOM     16  H   UNL     1       6.058   6.715  15.651  0.00  0.00    +0.000 HD
ENDBRANCH   4  15
BRANCH   5  17
ATOM     17  O   UNL     1       4.680   3.660  16.795  0.00  0.00    +0.000 OA
ATOM     18  H   UNL     1       4.865   3.057  17.542  0.00  0.00    +0.000 HD
ENDBRANCH   5  17
BRANCH   3  19
ATOM     19  C   UNL     1       2.751   7.748  17.486  0.00  0.00    +0.000 C 
BRANCH  19  20
ATOM     20  O   UNL     1       2.696   9.071  18.035  0.00  0.00    +0.000 OA
BRANCH  20  21
ATOM     21  P   UNL     1       1.069   9.641  18.179  0.00  0.00    +0.000 P 
ATOM     22  O   UNL     1       1.214   9.466  19.700  0.00  0.00    +0.000 OA
BRANCH  21  23
ATOM     23  C   UNL     1      -0.652  10.243  18.332  0.00  0.00    +0.000 C 
ATOM     24  F   UNL     1      -1.398   9.843  17.277  0.00  0.00    +0.000 F 
ATOM     25  F   UNL     1      -1.142   9.621  19.443  0.00  0.00    +0.000 F 
BRANCH  23  26
ATOM     26  P   UNL     1      -1.119  11.899  18.671  0.00  0.00    +0.000 P 
ATOM     27  O   UNL     1      -2.434  12.208  19.327  0.00  0.00    +0.000 OA
BRANCH  26  28
ATOM     28  O   UNL     1       0.051  12.448  19.641  0.00  0.00    +0.000 OA
ATOM     29  H   UNL     1       0.556  13.154  19.184  0.00  0.00    +0.000 HD
ENDBRANCH  26  28
BRANCH  26  30
ATOM     30  O   UNL     1      -0.893  12.877  17.414  0.00  0.00    +0.000 OA
ATOM     31  H   UNL     1      -1.486  12.636  16.670  0.00  0.00    +0.000 HD
ENDBRANCH  26  30
ENDBRANCH  23  26
ENDBRANCH  21  23
BRANCH  21  32
ATOM     32  O   UNL     1       1.685  11.110  17.757  0.00  0.00    +0.000 OA
ATOM     33  H   UNL     1       0.970  11.766  17.656  0.00  0.00    +0.000 HD
ENDBRANCH  21  32
ENDBRANCH  20  21
ENDBRANCH  19  20
ENDBRANCH   3  19
TORSDOF 11
ENDMDL
MODEL 4
REMARK VINA RESULT:      -6.8      3.798      6.904
REMARK  Name = 
REMARK  11 active torsions:
REMARK  status: ('A' for Active; 'I' for Inactive)
REMARK    1  A    between atoms: N_5  and  C_6
REMARK    2  A    between atoms: C_8  and  C_9
REMARK    3  A    between atoms: C_9  and  O_10
REMARK    4  A    between atoms: O_10  and  P_11
REMARK    5  A    between atoms: P_11  and  O_13
REMARK    6  A    between atoms: P_11  and  C_14
REMARK    7  A    between atoms: C_14  and  P_17
REMARK    8  A    between atoms: P_17  and  O_19
REMARK    9  A    between atoms: P_17  and  O_20
REMARK   10  A    between atoms: C_21  and  O_22
REMARK   11  A    between atoms: C_23  and  O_24
REMARK                            x       y       z     vdW  Elec       q    Type
REMARK                         _______ _______ _______ _____ _____    ______ ____
ROOT
ATOM      1  C   UNL     1       6.904   5.734  15.243  0.00  0.00    +0.000 C 
ATOM      2  O   UNL     1       7.749   5.175  16.269  0.00  0.00    +0.000 OA
ATOM      3  C   UNL     1       7.245   5.563  17.567  0.00  0.00    +0.000 C 
ATOM      4  C   UNL     1       6.176   6.625  17.318  0.00  0.00    +0.000 C 
ATOM      5  C   UNL     1       5.641   6.260  15.943  0.00  0.00    +0.000 C 
ENDROOT
BRANCH   1  10
ATOM      6  O   UNL     1       5.595   2.406  11.121  0.00  0.00    +0.000 OA
ATOM      7  C   UNL     1       5.938   3.081  12.082  0.00  0.00    +0.000 A 
ATOM      8  C   UNL     1       5.227   3.010  13.365  0.00  0.00    +0.000 A 
ATOM      9  C   UNL     1       5.583   3.832  14.350  0.00  0.00    +0.000 A 
ATOM     10  N   UNL     1       6.615   4.743  14.212  0.00  0.00    +0.000 N 
ATOM     11  C   UNL     1       7.354   4.829  13.030  0.00  0.00    +0.000 A 
ATOM     12  O   UNL     1       8.274   5.614  12.853  0.00  0.00    +0.000 OA
ATOM     13  N   UNL     1       6.986   3.959  12.039  0.00  0.00    +0.000 N 
ATOM     14  H   UNL     1       7.489   4.029  11.169  0.00  0.00    +0.000 HD
ENDBRANCH   1  10
BRANCH   4  15
ATOM     15  O   UNL     1       6.746   7.942  17.265  0.00  0.00    +0.000 OA
ATOM     16  H   UNL     1       6.834   8.215  16.333  0.00  0.00    +0.000 HD
ENDBRANCH   4  15
BRANCH   5  17
ATOM     17  O   UNL     1       5.032   7.380  15.311  0.00  0.00    +0.000 OA
ATOM     18  H   UNL     1       5.570   8.163  15.543  0.00  0.00    +0.000 HD
ENDBRANCH   5  17
BRANCH   3  19
ATOM     19  C   UNL     1       6.692   4.337  18.295  0.00  0.00    +0.000 C 
BRANCH  19  20
ATOM     20  O   UNL     1       5.812   4.738  19.353  0.00  0.00    +0.000 OA
BRANCH  20  21
ATOM     21  P   UNL     1       4.162   4.372  18.989  0.00  0.00    +0.000 P 
ATOM     22  O   UNL     1       4.315   3.122  19.871  0.00  0.00    +0.000 OA
BRANCH  21  23
ATOM     23  C   UNL     1       2.415   3.985  18.605  0.00  0.00    +0.000 C 
ATOM     24  F   UNL     1       1.602   4.996  18.988  0.00  0.00    +0.000 F 
ATOM     25  F   UNL     1       2.365   3.910  17.244  0.00  0.00    +0.000 F 
BRANCH  23  26
ATOM     26  P   UNL     1       1.590   2.496  19.029  0.00  0.00    +0.000 P 
ATOM     27  O   UNL     1       0.238   2.177  18.459  0.00  0.00    +0.000 OA
BRANCH  26  28
ATOM     28  O   UNL     1       2.607   1.333  18.554  0.00  0.00    +0.000 OA
ATOM     29  H   UNL     1       2.454   1.126  17.607  0.00  0.00    +0.000 HD
ENDBRANCH  26  28
BRANCH  26  30
ATOM     30  O   UNL     1       1.595   2.213  20.613  0.00  0.00    +0.000 OA
ATOM     31  H   UNL     1       0.824   1.665  20.874  0.00  0.00    +0.000 HD
ENDBRANCH  26  30
ENDBRANCH  23  26
ENDBRANCH  21  23
BRANCH  21  32
ATOM     32  O   UNL     1       3.801   5.657  19.955  0.00  0.00    +0.000 OA
ATOM     33  H   UNL     1       4.321   6.441  19.693  0.00  0.00    +0.000 HD
ENDBRANCH  21  32
ENDBRANCH  20  21
ENDBRANCH  19  20
ENDBRANCH   3  19
TORSDOF 11
ENDMDL
MODEL 5
REMARK VINA RESULT:      -6.8      3.746      6.862
REMARK  Name = 
REMARK  11 active torsions:
REMARK  status: ('A' for Active; 'I' for Inactive)
REMARK    1  A    between atoms: N_5  and  C_6
REMARK    2  A    between atoms: C_8  and  C_9
REMARK    3  A    between atoms: C_9  and  O_10
REMARK    4  A    between atoms: O_10  and  P_11
REMARK    5  A    between atoms: P_11  and  O_13
REMARK    6  A    between atoms: P_11  and  C_14
REMARK    7  A    between atoms: C_14  and  P_17
REMARK    8  A    between atoms: P_17  and  O_19
REMARK    9  A    between atoms: P_17  and  O_20
REMARK   10  A    between atoms: C_21  and  O_22
REMARK   11  A    between atoms: C_23  and  O_24
REMARK                            x       y       z     vdW  Elec       q    Type
REMARK                         _______ _______ _______ _____ _____    ______ ____
ROOT
ATOM      1  C   UNL     1       6.872   5.840  15.326  0.00  0.00    +0.000 C 
ATOM      2  O   UNL     1       7.767   5.310  16.324  0.00  0.00    +0.000 OA
ATOM      3  C   UNL     1       7.283   5.670  17.638  0.00  0.00    +0.000 C 
ATOM      4  C   UNL     1       6.165   6.689  17.426  0.00  0.00    +0.000 C 
ATOM      5  C   UNL     1       5.608   6.310  16.063  0.00  0.00    +0.000 C 
ENDROOT
BRANCH   1  10
ATOM      6  O   UNL     1       5.651   2.498  11.189  0.00  0.00    +0.000 OA
ATOM      7  C   UNL     1       5.967   3.175  12.158  0.00  0.00    +0.000 A 
ATOM      8  C   UNL     1       5.165   3.177  13.388  0.00  0.00    +0.000 A 
ATOM      9  C   UNL     1       5.502   3.999  14.379  0.00  0.00    +0.000 A 
ATOM     10  N   UNL     1       6.594   4.843  14.297  0.00  0.00    +0.000 N 
ATOM     11  C   UNL     1       7.418   4.856  13.169  0.00  0.00    +0.000 A 
ATOM     12  O   UNL     1       8.394   5.580  13.042  0.00  0.00    +0.000 OA
ATOM     13  N   UNL     1       7.068   3.986  12.172  0.00  0.00    +0.000 N 
ATOM     14  H   UNL     1       7.633   4.006  11.338  0.00  0.00    +0.000 HD
ENDBRANCH   1  10
BRANCH   4  15
ATOM     15  O   UNL     1       6.680   8.029  17.366  0.00  0.00    +0.000 OA
ATOM     16  H   UNL     1       6.965   8.222  16.453  0.00  0.00    +0.000 HD
ENDBRANCH   4  15
BRANCH   5  17
ATOM     17  O   UNL     1       4.936   7.408  15.456  0.00  0.00    +0.000 OA
ATOM     18  H   UNL     1       5.244   8.216  15.913  0.00  0.00    +0.000 HD
ENDBRANCH   5  17
BRANCH   3  19
ATOM     19  C   UNL     1       6.801   4.419  18.373  0.00  0.00    +0.000 C 
BRANCH  19  20
ATOM     20  O   UNL     1       5.747   4.750  19.287  0.00  0.00    +0.000 OA
BRANCH  20  21
ATOM     21  P   UNL     1       4.393   3.687  19.118  0.00  0.00    +0.000 P 
ATOM     22  O   UNL     1       3.543   4.928  18.804  0.00  0.00    +0.000 OA
BRANCH  21  23
ATOM     23  C   UNL     1       2.961   2.562  18.940  0.00  0.00    +0.000 C 
ATOM     24  F   UNL     1       3.152   1.698  17.917  0.00  0.00    +0.000 F 
ATOM     25  F   UNL     1       2.942   1.834  20.094  0.00  0.00    +0.000 F 
BRANCH  23  26
ATOM     26  P   UNL     1       1.283   3.063  18.861  0.00  0.00    +0.000 P 
ATOM     27  O   UNL     1       0.656   3.836  19.985  0.00  0.00    +0.000 OA
BRANCH  26  28
ATOM     28  O   UNL     1       1.209   3.984  17.535  0.00  0.00    +0.000 OA
ATOM     29  H   UNL     1       2.099   4.052  17.129  0.00  0.00    +0.000 HD
ENDBRANCH  26  28
BRANCH  26  30
ATOM     30  O   UNL     1       0.301   1.873  18.404  0.00  0.00    +0.000 OA
ATOM     31  H   UNL     1       0.805   1.050  18.228  0.00  0.00    +0.000 HD
ENDBRANCH  26  30
ENDBRANCH  23  26
ENDBRANCH  21  23
BRANCH  21  32
ATOM     32  O   UNL     1       5.127   3.185  17.731  0.00  0.00    +0.000 OA
ATOM     33  H   UNL     1       4.463   2.910  17.071  0.00  0.00    +0.000 HD
ENDBRANCH  21  32
ENDBRANCH  20  21
ENDBRANCH  19  20
ENDBRANCH   3  19
TORSDOF 11
ENDMDL
MODEL 6
REMARK VINA RESULT:      -6.8      3.087      5.497
REMARK  Name = 
REMARK  11 active torsions:
REMARK  status: ('A' for Active; 'I' for Inactive)
REMARK    1  A    between atoms: N_5  and  C_6
REMARK    2  A    between atoms: C_8  and  C_9
REMARK    3  A    between atoms: C_9  and  O_10
REMARK    4  A    between atoms: O_10  and  P_11
REMARK    5  A    between atoms: P_11  and  O_13
REMARK    6  A    between atoms: P_11  and  C_14
REMARK    7  A    between atoms: C_14  and  P_17
REMARK    8  A    between atoms: P_17  and  O_19
REMARK    9  A    between atoms: P_17  and  O_20
REMARK   10  A    between atoms: C_21  and  O_22
REMARK   11  A    between atoms: C_23  and  O_24
REMARK                            x       y       z     vdW  Elec       q    Type
REMARK                         _______ _______ _______ _____ _____    ______ ____
ROOT
ATOM      1  C   UNL     1       4.935   6.734  17.022  0.00  0.00    +0.000 C 
ATOM      2  O   UNL     1       4.392   5.707  16.168  0.00  0.00    +0.000 OA
ATOM      3  C   UNL     1       5.366   4.650  16.012  0.00  0.00    +0.000 C 
ATOM      4  C   UNL     1       6.674   5.174  16.602  0.00  0.00    +0.000 C 
ATOM      5  C   UNL     1       6.205   6.153  17.666  0.00  0.00    +0.000 C 
ENDROOT
BRANCH   1  10
ATOM      6  O   UNL     1       0.959   7.953  20.554  0.00  0.00    +0.000 OA
ATOM      7  C   UNL     1       1.901   7.749  19.801  0.00  0.00    +0.000 A 
ATOM      8  C   UNL     1       2.083   8.530  18.570  0.00  0.00    +0.000 A 
ATOM      9  C   UNL     1       3.072   8.208  17.739  0.00  0.00    +0.000 A 
ATOM     10  N   UNL     1       3.947   7.170  18.003  0.00  0.00    +0.000 N 
ATOM     11  C   UNL     1       3.849   6.418  19.176  0.00  0.00    +0.000 A 
ATOM     12  O   UNL     1       4.593   5.492  19.460  0.00  0.00    +0.000 OA
ATOM     13  N   UNL     1       2.841   6.782  20.027  0.00  0.00    +0.000 N 
ATOM     14  H   UNL     1       2.737   6.229  20.864  0.00  0.00    +0.000 HD
ENDBRANCH   1  10
BRANCH   4  15
ATOM     15  O   UNL     1       7.446   5.883  15.620  0.00  0.00    +0.000 OA
ATOM     16  H   UNL     1       8.395   5.729  15.787  0.00  0.00    +0.000 HD
ENDBRANCH   4  15
BRANCH   5  17
ATOM     17  O   UNL     1       7.213   7.111  17.968  0.00  0.00    +0.000 OA
ATOM     18  H   UNL     1       8.020   6.832  17.492  0.00  0.00    +0.000 HD
ENDBRANCH   5  17
BRANCH   3  19
ATOM     19  C   UNL     1       4.873   3.385  16.716  0.00  0.00    +0.000 C 
BRANCH  19  20
ATOM     20  O   UNL     1       3.512   3.112  16.360  0.00  0.00    +0.000 OA
BRANCH  20  21
ATOM     21  P   UNL     1       2.546   2.747  17.748  0.00  0.00    +0.000 P 
ATOM     22  O   UNL     1       3.852   2.419  18.488  0.00  0.00    +0.000 OA
BRANCH  21  23
ATOM     23  C   UNL     1       1.524   2.362  19.216  0.00  0.00    +0.000 C 
ATOM     24  F   UNL     1       0.219   2.243  18.877  0.00  0.00    +0.000 F 
ATOM     25  F   UNL     1       1.955   1.135  19.630  0.00  0.00    +0.000 F 
BRANCH  23  26
ATOM     26  P   UNL     1       1.565   3.235  20.736  0.00  0.00    +0.000 P 
ATOM     27  O   UNL     1       1.180   2.560  22.022  0.00  0.00    +0.000 OA
BRANCH  26  28
ATOM     28  O   UNL     1       3.103   3.711  20.876  0.00  0.00    +0.000 OA
ATOM     29  H   UNL     1       3.389   3.635  21.811  0.00  0.00    +0.000 HD
ENDBRANCH  26  28
BRANCH  26  30
ATOM     30  O   UNL     1       0.856   4.676  20.644  0.00  0.00    +0.000 OA
ATOM     31  H   UNL     1       1.250   5.216  19.926  0.00  0.00    +0.000 HD
ENDBRANCH  26  30
ENDBRANCH  23  26
ENDBRANCH  21  23
BRANCH  21  32
ATOM     32  O   UNL     1       2.287   4.373  17.832  0.00  0.00    +0.000 OA
ATOM     33  H   UNL     1       1.332   4.571  17.805  0.00  0.00    +0.000 HD
ENDBRANCH  21  32
ENDBRANCH  20  21
ENDBRANCH  19  20
ENDBRANCH   3  19
TORSDOF 11
ENDMDL
MODEL 7
REMARK VINA RESULT:      -6.8      2.954      5.509
REMARK  Name = 
REMARK  11 active torsions:
REMARK  status: ('A' for Active; 'I' for Inactive)
REMARK    1  A    between atoms: N_5  and  C_6
REMARK    2  A    between atoms: C_8  and  C_9
REMARK    3  A    between atoms: C_9  and  O_10
REMARK    4  A    between atoms: O_10  and  P_11
REMARK    5  A    between atoms: P_11  and  O_13
REMARK    6  A    between atoms: P_11  and  C_14
REMARK    7  A    between atoms: C_14  and  P_17
REMARK    8  A    between atoms: P_17  and  O_19
REMARK    9  A    between atoms: P_17  and  O_20
REMARK   10  A    between atoms: C_21  and  O_22
REMARK   11  A    between atoms: C_23  and  O_24
REMARK                            x       y       z     vdW  Elec       q    Type
REMARK                         _______ _______ _______ _____ _____    ______ ____
ROOT
ATOM      1  C   UNL     1       4.853   6.557  16.813  0.00  0.00    +0.000 C 
ATOM      2  O   UNL     1       4.397   5.302  16.267  0.00  0.00    +0.000 OA
ATOM      3  C   UNL     1       5.516   4.393  16.160  0.00  0.00    +0.000 C 
ATOM      4  C   UNL     1       6.774   5.220  16.422  0.00  0.00    +0.000 C 
ATOM      5  C   UNL     1       6.277   6.322  17.343  0.00  0.00    +0.000 C 
ENDROOT
BRANCH   1  10
ATOM      6  O   UNL     1       1.144   7.935  20.570  0.00  0.00    +0.000 OA
ATOM      7  C   UNL     1       2.026   7.700  19.756  0.00  0.00    +0.000 A 
ATOM      8  C   UNL     1       2.077   8.385  18.458  0.00  0.00    +0.000 A 
ATOM      9  C   UNL     1       3.004   8.028  17.573  0.00  0.00    +0.000 A 
ATOM     10  N   UNL     1       3.935   7.040  17.838  0.00  0.00    +0.000 N 
ATOM     11  C   UNL     1       3.962   6.381  19.070  0.00  0.00    +0.000 A 
ATOM     12  O   UNL     1       4.760   5.502  19.359  0.00  0.00    +0.000 OA
ATOM     13  N   UNL     1       3.016   6.781  19.974  0.00  0.00    +0.000 N 
ATOM     14  H   UNL     1       3.002   6.294  20.856  0.00  0.00    +0.000 HD
ENDBRANCH   1  10
BRANCH   4  15
ATOM     15  O   UNL     1       7.277   5.810  15.213  0.00  0.00    +0.000 OA
ATOM     16  H   UNL     1       6.708   5.543  14.467  0.00  0.00    +0.000 HD
ENDBRANCH   4  15
BRANCH   5  17
ATOM     17  O   UNL     1       7.127   7.461  17.292  0.00  0.00    +0.000 OA
ATOM     18  H   UNL     1       7.467   7.601  18.199  0.00  0.00    +0.000 HD
ENDBRANCH   5  17
BRANCH   3  19
ATOM     19  C   UNL     1       5.350   3.249  17.160  0.00  0.00    +0.000 C 
BRANCH  19  20
ATOM     20  O   UNL     1       4.117   2.555  16.928  0.00  0.00    +0.000 OA
BRANCH  20  21
ATOM     21  P   UNL     1       2.972   2.839  18.192  0.00  0.00    +0.000 P 
ATOM     22  O   UNL     1       1.929   3.110  17.096  0.00  0.00    +0.000 OA
BRANCH  21  23
ATOM     23  C   UNL     1       1.761   3.138  19.531  0.00  0.00    +0.000 C 
ATOM     24  F   UNL     1       1.048   4.263  19.293  0.00  0.00    +0.000 F 
ATOM     25  F   UNL     1       0.898   2.083  19.463  0.00  0.00    +0.000 F 
BRANCH  23  26
ATOM     26  P   UNL     1       2.123   3.134  21.246  0.00  0.00    +0.000 P 
ATOM     27  O   UNL     1       1.205   2.460  22.225  0.00  0.00    +0.000 OA
BRANCH  26  28
ATOM     28  O   UNL     1       3.561   2.401  21.342  0.00  0.00    +0.000 OA
ATOM     29  H   UNL     1       3.906   2.468  22.259  0.00  0.00    +0.000 HD
ENDBRANCH  26  28
BRANCH  26  30
ATOM     30  O   UNL     1       2.536   4.587  21.797  0.00  0.00    +0.000 OA
ATOM     31  H   UNL     1       2.187   4.732  22.703  0.00  0.00    +0.000 HD
ENDBRANCH  26  30
ENDBRANCH  23  26
ENDBRANCH  21  23
BRANCH  21  32
ATOM     32  O   UNL     1       3.054   1.213  18.451  0.00  0.00    +0.000 OA
ATOM     33  H   UNL     1       2.532   0.732  17.781  0.00  0.00    +0.000 HD
ENDBRANCH  21  32
ENDBRANCH  20  21
ENDBRANCH  19  20
ENDBRANCH   3  19
TORSDOF 11
ENDMDL
MODEL 8
REMARK VINA RESULT:      -6.7      4.015      7.112
REMARK  Name = 
REMARK  11 active torsions:
REMARK  status: ('A' for Active; 'I' for Inactive)
REMARK    1  A    between atoms: N_5  and  C_6
REMARK    2  A    between atoms: C_8  and  C_9
REMARK    3  A    between atoms: C_9  and  O_10
REMARK    4  A    between atoms: O_10  and  P_11
REMARK    5  A    between atoms: P_11  and  O_13
REMARK    6  A    between atoms: P_11  and  C_14
REMARK    7  A    between atoms: C_14  and  P_17
REMARK    8  A    between atoms: P_17  and  O_19
REMARK    9  A    between atoms: P_17  and  O_20
REMARK   10  A    between atoms: C_21  and  O_22
REMARK   11  A    between atoms: C_23  and  O_24
REMARK                            x       y       z     vdW  Elec       q    Type
REMARK                         _______ _______ _______ _____ _____    ______ ____
ROOT
ATOM      1  C   UNL     1       4.381   5.441  18.780  0.00  0.00    +0.000 C 
ATOM      2  O   UNL     1       4.077   6.840  18.953  0.00  0.00    +0.000 OA
ATOM      3  C   UNL     1       3.846   7.441  17.659  0.00  0.00    +0.000 C 
ATOM      4  C   UNL     1       4.276   6.410  16.617  0.00  0.00    +0.000 C 
ATOM      5  C   UNL     1       4.039   5.086  17.324  0.00  0.00    +0.000 C 
ENDROOT
BRANCH   1  10
ATOM      6  O   UNL     1       1.508   2.114  22.013  0.00  0.00    +0.000 OA
ATOM      7  C   UNL     1       2.186   2.900  21.366  0.00  0.00    +0.000 A 
ATOM      8  C   UNL     1       1.721   4.264  21.081  0.00  0.00    +0.000 A 
ATOM      9  C   UNL     1       2.455   5.048  20.296  0.00  0.00    +0.000 A 
ATOM     10  N   UNL     1       3.655   4.629  19.751  0.00  0.00    +0.000 N 
ATOM     11  C   UNL     1       4.169   3.358  20.019  0.00  0.00    +0.000 A 
ATOM     12  O   UNL     1       5.222   2.936  19.565  0.00  0.00    +0.000 OA
ATOM     13  N   UNL     1       3.410   2.577  20.847  0.00  0.00    +0.000 N 
ATOM     14  H   UNL     1       3.751   1.646  21.026  0.00  0.00    +0.000 HD
ENDBRANCH   1  10
BRANCH   4  15
ATOM     15  O   UNL     1       5.672   6.532  16.304  0.00  0.00    +0.000 OA
ATOM     16  H   UNL     1       5.813   6.286  15.370  0.00  0.00    +0.000 HD
ENDBRANCH   4  15
BRANCH   5  17
ATOM     17  O   UNL     1       4.834   4.049  16.760  0.00  0.00    +0.000 OA
ATOM     18  H   UNL     1       4.256   3.265  16.672  0.00  0.00    +0.000 HD
ENDBRANCH   5  17
BRANCH   3  19
ATOM     19  C   UNL     1       2.372   7.827  17.524  0.00  0.00    +0.000 C 
BRANCH  19  20
ATOM     20  O   UNL     1       2.229   9.254  17.497  0.00  0.00    +0.000 OA
BRANCH  20  21
ATOM     21  P   UNL     1       1.386   9.841  18.888  0.00  0.00    +0.000 P 
ATOM     22  O   UNL     1       0.109   9.839  18.032  0.00  0.00    +0.000 OA
BRANCH  21  23
ATOM     23  C   UNL     1       0.493  10.462  20.360  0.00  0.00    +0.000 C 
ATOM     24  F   UNL     1       0.800  11.758  20.598  0.00  0.00    +0.000 F 
ATOM     25  F   UNL     1      -0.826  10.408  20.017  0.00  0.00    +0.000 F 
BRANCH  23  26
ATOM     26  P   UNL     1       0.440   9.669  21.922  0.00  0.00    +0.000 P 
ATOM     27  O   UNL     1      -0.060  10.395  23.138  0.00  0.00    +0.000 OA
BRANCH  26  28
ATOM     28  O   UNL     1      -0.524   8.393  21.684  0.00  0.00    +0.000 OA
ATOM     29  H   UNL     1      -0.023   7.565  21.843  0.00  0.00    +0.000 HD
ENDBRANCH  26  28
BRANCH  26  30
ATOM     30  O   UNL     1       1.808   8.897  22.273  0.00  0.00    +0.000 OA
ATOM     31  H   UNL     1       2.209   8.510  21.466  0.00  0.00    +0.000 HD
ENDBRANCH  26  30
ENDBRANCH  23  26
ENDBRANCH  21  23
BRANCH  21  32
ATOM     32  O   UNL     1       1.612   8.328  19.501  0.00  0.00    +0.000 OA
ATOM     33  H   UNL     1       1.309   7.651  18.865  0.00  0.00    +0.000 HD
ENDBRANCH  21  32
ENDBRANCH  20  21
ENDBRANCH  19  20
ENDBRANCH   3  19
TORSDOF 11
ENDMDL
MODEL 9
REMARK VINA RESULT:      -6.7      3.711      6.683
REMARK  Name = 
REMARK  11 active torsions:
REMARK  status: ('A' for Active; 'I' for Inactive)
REMARK    1  A    between atoms: N_5  and  C_6
REMARK    2  A    between atoms: C_8  and  C_9
REMARK    3  A    between atoms: C_9  and  O_10
REMARK    4  A    between atoms: O_10  and  P_11
REMARK    5  A    between atoms: P_11  and  O_13
REMARK    6  A    between atoms: P_11  and  C_14
REMARK    7  A    between atoms: C_14  and  P_17
REMARK    8  A    between atoms: P_17  and  O_19
REMARK    9  A    between atoms: P_17  and  O_20
REMARK   10  A    between atoms: C_21  and  O_22
REMARK   11  A    between atoms: C_23  and  O_24
REMARK                            x       y       z     vdW  Elec       q    Type
REMARK                         _______ _______ _______ _____ _____    ______ ____
ROOT
ATOM      1  C   UNL     1       7.628   5.405  16.419  0.00  0.00    +0.000 C 
ATOM      2  O   UNL     1       7.880   4.457  17.475  0.00  0.00    +0.000 OA
ATOM      3  C   UNL     1       7.471   5.029  18.738  0.00  0.00    +0.000 C 
ATOM      4  C   UNL     1       7.183   6.506  18.473  0.00  0.00    +0.000 C 
ATOM      5  C   UNL     1       6.750   6.516  17.016  0.00  0.00    +0.000 C 
ENDROOT
BRANCH   1  10
ATOM      6  O   UNL     1       5.115   3.405  12.007  0.00  0.00    +0.000 OA
ATOM      7  C   UNL     1       5.724   3.771  13.003  0.00  0.00    +0.000 A 
ATOM      8  C   UNL     1       5.265   3.427  14.355  0.00  0.00    +0.000 A 
ATOM      9  C   UNL     1       5.911   3.926  15.405  0.00  0.00    +0.000 A 
ATOM     10  N   UNL     1       7.014   4.749  15.269  0.00  0.00    +0.000 N 
ATOM     11  C   UNL     1       7.522   5.079  14.010  0.00  0.00    +0.000 A 
ATOM     12  O   UNL     1       8.492   5.800  13.831  0.00  0.00    +0.000 OA
ATOM     13  N   UNL     1       6.857   4.535  12.944  0.00  0.00    +0.000 N 
ATOM     14  H   UNL     1       7.192   4.789  12.028  0.00  0.00    +0.000 HD
ENDBRANCH   1  10
BRANCH   4  15
ATOM     15  O   UNL     1       8.366   7.306  18.616  0.00  0.00    +0.000 OA
ATOM     16  H   UNL     1       9.092   6.898  18.107  0.00  0.00    +0.000 HD
ENDBRANCH   4  15
BRANCH   5  17
ATOM     17  O   UNL     1       6.933   7.800  16.431  0.00  0.00    +0.000 OA
ATOM     18  H   UNL     1       7.665   7.717  15.788  0.00  0.00    +0.000 HD
ENDBRANCH   5  17
BRANCH   3  19
ATOM     19  C   UNL     1       6.249   4.282  19.273  0.00  0.00    +0.000 C 
BRANCH  19  20
ATOM     20  O   UNL     1       5.144   5.182  19.435  0.00  0.00    +0.000 OA
BRANCH  20  21
ATOM     21  P   UNL     1       3.678   4.518  18.803  0.00  0.00    +0.000 P 
ATOM     22  O   UNL     1       3.809   5.510  17.636  0.00  0.00    +0.000 OA
BRANCH  21  23
ATOM     23  C   UNL     1       2.126   3.815  18.135  0.00  0.00    +0.000 C 
ATOM     24  F   UNL     1       1.275   4.797  17.758  0.00  0.00    +0.000 F 
ATOM     25  F   UNL     1       2.503   3.144  17.008  0.00  0.00    +0.000 F 
BRANCH  23  26
ATOM     26  P   UNL     1       1.151   2.585  18.917  0.00  0.00    +0.000 P 
ATOM     27  O   UNL     1      -0.018   1.964  18.208  0.00  0.00    +0.000 OA
BRANCH  26  28
ATOM     28  O   UNL     1       2.202   1.403  19.251  0.00  0.00    +0.000 OA
ATOM     29  H   UNL     1       2.968   1.770  19.743  0.00  0.00    +0.000 HD
ENDBRANCH  26  28
BRANCH  26  30
ATOM     30  O   UNL     1       0.729   2.987  20.416  0.00  0.00    +0.000 OA
ATOM     31  H   UNL     1       1.473   2.844  21.040  0.00  0.00    +0.000 HD
ENDBRANCH  26  30
ENDBRANCH  23  26
ENDBRANCH  21  23
BRANCH  21  32
ATOM     32  O   UNL     1       4.582   3.183  18.464  0.00  0.00    +0.000 OA
ATOM     33  H   UNL     1       4.391   2.467  19.100  0.00  0.00    +0.000 HD
ENDBRANCH  21  32
ENDBRANCH  20  21
ENDBRANCH  19  20
ENDBRANCH   3  19
TORSDOF 11
ENDMDL
