MODEL 1
REMARK VINA RESULT:      -7.8      0.000      0.000
REMARK  Name = 
REMARK  5 active torsions:
REMARK  status: ('A' for Active; 'I' for Inactive)
REMARK    1  A    between atoms: N_1  and  C_2
REMARK    2  A    between atoms: C_2  and  C_3
REMARK    3  A    between atoms: C_6  and  N_7
REMARK    4  A    between atoms: C_8  and  C_9
REMARK    5  A    between atoms: C_19  and  C_20
REMARK                            x       y       z     vdW  Elec       q    Type
REMARK                         _______ _______ _______ _____ _____    ______ ____
ROOT
ATOM      1  N   UNL     1       0.658  11.923  18.960  0.00  0.00    +0.000 N 
ATOM      2  C   UNL     1      -0.591  12.327  18.456  0.00  0.00    +0.000 A 
ATOM      3  N   UNL     1      -0.652  13.649  18.364  0.00  0.00    +0.000 NA
ATOM      4  C   UNL     1       0.511  14.120  18.897  0.00  0.00    +0.000 A 
ATOM      5  C   UNL     1       0.967  15.428  19.076  0.00  0.00    +0.000 A 
ATOM      6  C   UNL     1       2.238  15.592  19.636  0.00  0.00    +0.000 A 
ATOM      7  C   UNL     1       3.006  14.478  20.001  0.00  0.00    +0.000 A 
ATOM      8  N   UNL     1       2.573  13.202  19.833  0.00  0.00    +0.000 NA
ATOM      9  C   UNL     1       1.338  13.085  19.300  0.00  0.00    +0.000 A 
ENDROOT
BRANCH   1  13
ATOM     10  C   UNL     1       1.987   7.877  19.312  0.00  0.00    +0.000 A 
ATOM     11  C   UNL     1       2.258   8.651  18.167  0.00  0.00    +0.000 A 
ATOM     12  C   UNL     1       1.873   9.991  18.061  0.00  0.00    +0.000 A 
ATOM     13  C   UNL     1       1.169  10.599  19.101  0.00  0.00    +0.000 A 
ATOM     14  C   UNL     1       0.940   9.883  20.277  0.00  0.00    +0.000 A 
ATOM     15  C   UNL     1       1.345   8.548  20.371  0.00  0.00    +0.000 A 
BRANCH  10  16
ATOM     16  C   UNL     1       2.415   6.364  19.410  0.00  0.00    +0.000 C 
ATOM     17  C   UNL     1       2.016   5.335  18.314  0.00  0.00    +0.000 C 
ATOM     18  C   UNL     1       3.435   5.507  17.734  0.00  0.00    +0.000 C 
ATOM     19  C   UNL     1       3.888   5.938  19.143  0.00  0.00    +0.000 C 
BRANCH  16  20
ATOM     20  N   UNL     1       2.015   5.822  20.708  0.00  0.00    +0.000 NA
ATOM     21  H   UNL     1       2.168   4.816  20.773  0.00  0.00    +0.000 HD
ATOM     22  H   UNL     1       1.020   5.945  20.896  0.00  0.00    +0.000 HD
ENDBRANCH  16  20
ENDBRANCH  10  16
ENDBRANCH   1  13
BRANCH   2  23
ATOM     23  C   UNL     1      -1.732  11.463  18.117  0.00  0.00    +0.000 A 
ATOM     24  C   UNL     1      -1.632  10.324  17.308  0.00  0.00    +0.000 A 
ATOM     25  C   UNL     1      -2.774   9.595  16.975  0.00  0.00    +0.000 A 
ATOM     26  C   UNL     1      -3.986   9.994  17.509  0.00  0.00    +0.000 A 
ATOM     27  N   UNL     1      -4.123  11.050  18.338  0.00  0.00    +0.000 NA
ATOM     28  C   UNL     1      -2.996  11.750  18.627  0.00  0.00    +0.000 A 
ENDBRANCH   2  23
BRANCH   7  29
ATOM     29  C   UNL     1       4.366  14.608  20.574  0.00  0.00    +0.000 A 
ATOM     30  C   UNL     1       5.440  15.155  19.845  0.00  0.00    +0.000 A 
ATOM     31  C   UNL     1       6.723  15.251  20.395  0.00  0.00    +0.000 A 
ATOM     32  C   UNL     1       6.963  14.811  21.691  0.00  0.00    +0.000 A 
ATOM     33  C   UNL     1       5.921  14.282  22.445  0.00  0.00    +0.000 A 
ATOM     34  C   UNL     1       4.640  14.185  21.891  0.00  0.00    +0.000 A 
ENDBRANCH   7  29
TORSDOF 5
ENDMDL
MODEL 2
REMARK VINA RESULT:      -7.6      3.234      7.499
REMARK  Name = 
REMARK  5 active torsions:
REMARK  status: ('A' for Active; 'I' for Inactive)
REMARK    1  A    between atoms: N_1  and  C_2
REMARK    2  A    between atoms: C_2  and  C_3
REMARK    3  A    between atoms: C_6  and  N_7
REMARK    4  A    between atoms: C_8  and  C_9
REMARK    5  A    between atoms: C_19  and  C_20
REMARK                            x       y       z     vdW  Elec       q    Type
REMARK                         _______ _______ _______ _____ _____    ______ ____
ROOT
ATOM      1  N   UNL     1      -0.134  12.609  21.781  0.00  0.00    +0.000 N 
ATOM      2  C   UNL     1      -1.038  12.815  22.838  0.00  0.00    +0.000 A 
ATOM      3  N   UNL     1      -1.374  11.659  23.397  0.00  0.00    +0.000 NA
ATOM      4  C   UNL     1      -0.775  10.689  22.649  0.00  0.00    +0.000 A 
ATOM      5  C   UNL     1      -0.806   9.298  22.769  0.00  0.00    +0.000 A 
ATOM      6  C   UNL     1      -0.053   8.559  21.850  0.00  0.00    +0.000 A 
ATOM      7  C   UNL     1       0.693   9.205  20.855  0.00  0.00    +0.000 A 
ATOM      8  N   UNL     1       0.729  10.557  20.728  0.00  0.00    +0.000 NA
ATOM      9  C   UNL     1      -0.019  11.235  21.626  0.00  0.00    +0.000 A 
ENDROOT
BRANCH   1  13
ATOM     10  C   UNL     1       2.077  15.373  19.386  0.00  0.00    +0.000 A 
ATOM     11  C   UNL     1       0.901  14.756  18.915  0.00  0.00    +0.000 A 
ATOM     12  C   UNL     1       0.141  13.890  19.707  0.00  0.00    +0.000 A 
ATOM     13  C   UNL     1       0.556  13.586  21.005  0.00  0.00    +0.000 A 
ATOM     14  C   UNL     1       1.680  14.229  21.528  0.00  0.00    +0.000 A 
ATOM     15  C   UNL     1       2.419  15.104  20.726  0.00  0.00    +0.000 A 
BRANCH  10  16
ATOM     16  C   UNL     1       2.928  16.336  18.477  0.00  0.00    +0.000 C 
ATOM     17  C   UNL     1       4.394  16.711  18.840  0.00  0.00    +0.000 C 
ATOM     18  C   UNL     1       4.846  15.648  17.819  0.00  0.00    +0.000 C 
ATOM     19  C   UNL     1       3.491  15.845  17.111  0.00  0.00    +0.000 C 
BRANCH  16  20
ATOM     20  N   UNL     1       2.189  17.576  18.243  0.00  0.00    +0.000 NA
ATOM     21  H   UNL     1       2.659  18.190  17.578  0.00  0.00    +0.000 HD
ATOM     22  H   UNL     1       2.086  18.138  19.087  0.00  0.00    +0.000 HD
ENDBRANCH  16  20
ENDBRANCH  10  16
ENDBRANCH   1  13
BRANCH   2  23
ATOM     23  C   UNL     1      -1.615  14.095  23.277  0.00  0.00    +0.000 A 
ATOM     24  C   UNL     1      -1.091  14.866  24.322  0.00  0.00    +0.000 A 
ATOM     25  C   UNL     1      -1.737  16.035  24.724  0.00  0.00    +0.000 A 
ATOM     26  C   UNL     1      -2.863  16.436  24.029  0.00  0.00    +0.000 A 
ATOM     27  N   UNL     1      -3.372  15.757  22.980  0.00  0.00    +0.000 NA
ATOM     28  C   UNL     1      -2.732  14.612  22.625  0.00  0.00    +0.000 A 
ENDBRANCH   2  23
BRANCH   7  29
ATOM     29  C   UNL     1       1.523   8.461  19.879  0.00  0.00    +0.000 A 
ATOM     30  C   UNL     1       1.811   8.969  18.597  0.00  0.00    +0.000 A 
ATOM     31  C   UNL     1       2.580   8.244  17.680  0.00  0.00    +0.000 A 
ATOM     32  C   UNL     1       3.088   6.996  18.025  0.00  0.00    +0.000 A 
ATOM     33  C   UNL     1       2.836   6.474  19.289  0.00  0.00    +0.000 A 
ATOM     34  C   UNL     1       2.065   7.201  20.202  0.00  0.00    +0.000 A 
ENDBRANCH   7  29
TORSDOF 5
ENDMDL
MODEL 3
REMARK VINA RESULT:      -7.5      3.242      7.686
REMARK  Name = 
REMARK  5 active torsions:
REMARK  status: ('A' for Active; 'I' for Inactive)
REMARK    1  A    between atoms: N_1  and  C_2
REMARK    2  A    between atoms: C_2  and  C_3
REMARK    3  A    between atoms: C_6  and  N_7
REMARK    4  A    between atoms: C_8  and  C_9
REMARK    5  A    between atoms: C_19  and  C_20
REMARK                            x       y       z     vdW  Elec       q    Type
REMARK                         _______ _______ _______ _____ _____    ______ ____
ROOT
ATOM      1  N   UNL     1      -0.105  12.513  21.759  0.00  0.00    +0.000 N 
ATOM      2  C   UNL     1      -0.999  12.695  22.829  0.00  0.00    +0.000 A 
ATOM      3  N   UNL     1      -1.307  11.530  23.384  0.00  0.00    +0.000 NA
ATOM      4  C   UNL     1      -0.701  10.576  22.621  0.00  0.00    +0.000 A 
ATOM      5  C   UNL     1      -0.705   9.184  22.732  0.00  0.00    +0.000 A 
ATOM      6  C   UNL     1       0.050   8.465  21.799  0.00  0.00    +0.000 A 
ATOM      7  C   UNL     1       0.770   9.131  20.799  0.00  0.00    +0.000 A 
ATOM      8  N   UNL     1       0.781  10.484  20.680  0.00  0.00    +0.000 NA
ATOM      9  C   UNL     1       0.032  11.142  21.593  0.00  0.00    +0.000 A 
ENDROOT
BRANCH   1  13
ATOM     10  C   UNL     1       1.794  15.652  19.568  0.00  0.00    +0.000 A 
ATOM     11  C   UNL     1       2.476  14.919  20.559  0.00  0.00    +0.000 A 
ATOM     12  C   UNL     1       1.882  13.857  21.247  0.00  0.00    +0.000 A 
ATOM     13  C   UNL     1       0.557  13.508  20.981  0.00  0.00    +0.000 A 
ATOM     14  C   UNL     1      -0.129  14.168  19.960  0.00  0.00    +0.000 A 
ATOM     15  C   UNL     1       0.486  15.219  19.273  0.00  0.00    +0.000 A 
BRANCH  10  16
ATOM     16  C   UNL     1       2.473  16.855  18.812  0.00  0.00    +0.000 C 
ATOM     17  C   UNL     1       3.883  16.716  18.168  0.00  0.00    +0.000 C 
ATOM     18  C   UNL     1       3.169  16.513  16.816  0.00  0.00    +0.000 C 
ATOM     19  C   UNL     1       1.974  17.290  17.403  0.00  0.00    +0.000 C 
BRANCH  16  20
ATOM     20  N   UNL     1       2.484  18.036  19.675  0.00  0.00    +0.000 NA
ATOM     21  H   UNL     1       2.353  17.800  20.658  0.00  0.00    +0.000 HD
ATOM     22  H   UNL     1       1.728  18.686  19.461  0.00  0.00    +0.000 HD
ENDBRANCH  16  20
ENDBRANCH  10  16
ENDBRANCH   1  13
BRANCH   2  23
ATOM     23  C   UNL     1      -1.593  13.962  23.284  0.00  0.00    +0.000 A 
ATOM     24  C   UNL     1      -0.875  14.963  23.949  0.00  0.00    +0.000 A 
ATOM     25  C   UNL     1      -1.526  16.107  24.410  0.00  0.00    +0.000 A 
ATOM     26  C   UNL     1      -2.876  16.247  24.143  0.00  0.00    +0.000 A 
ATOM     27  N   UNL     1      -3.597  15.337  23.457  0.00  0.00    +0.000 NA
ATOM     28  C   UNL     1      -2.939  14.225  23.038  0.00  0.00    +0.000 A 
ENDBRANCH   2  23
BRANCH   7  29
ATOM     29  C   UNL     1       1.601   8.409  19.807  0.00  0.00    +0.000 A 
ATOM     30  C   UNL     1       2.131   7.129  20.060  0.00  0.00    +0.000 A 
ATOM     31  C   UNL     1       2.931   6.470  19.120  0.00  0.00    +0.000 A 
ATOM     32  C   UNL     1       3.213   7.071  17.898  0.00  0.00    +0.000 A 
ATOM     33  C   UNL     1       2.691   8.327  17.610  0.00  0.00    +0.000 A 
ATOM     34  C   UNL     1       1.894   8.983  18.553  0.00  0.00    +0.000 A 
ENDBRANCH   7  29
TORSDOF 5
ENDMDL
MODEL 4
REMARK VINA RESULT:      -7.5      3.350      7.813
REMARK  Name = 
REMARK  5 active torsions:
REMARK  status: ('A' for Active; 'I' for Inactive)
REMARK    1  A    between atoms: N_1  and  C_2
REMARK    2  A    between atoms: C_2  and  C_3
REMARK    3  A    between atoms: C_6  and  N_7
REMARK    4  A    between atoms: C_8  and  C_9
REMARK    5  A    between atoms: C_19  and  C_20
REMARK                            x       y       z     vdW  Elec       q    Type
REMARK                         _______ _______ _______ _____ _____    ______ ____
ROOT
ATOM      1  N   UNL     1      -0.309  12.604  21.811  0.00  0.00    +0.000 N 
ATOM      2  C   UNL     1      -1.185  12.729  22.904  0.00  0.00    +0.000 A 
ATOM      3  N   UNL     1      -1.424  11.544  23.450  0.00  0.00    +0.000 NA
ATOM      4  C   UNL     1      -0.791  10.629  22.661  0.00  0.00    +0.000 A 
ATOM      5  C   UNL     1      -0.726   9.237  22.752  0.00  0.00    +0.000 A 
ATOM      6  C   UNL     1       0.039   8.567  21.793  0.00  0.00    +0.000 A 
ATOM      7  C   UNL     1       0.703   9.279  20.785  0.00  0.00    +0.000 A 
ATOM      8  N   UNL     1       0.647  10.633  20.685  0.00  0.00    +0.000 NA
ATOM      9  C   UNL     1      -0.111  11.243  21.623  0.00  0.00    +0.000 A 
ENDROOT
BRANCH   1  13
ATOM     10  C   UNL     1       1.318  15.848  19.556  0.00  0.00    +0.000 A 
ATOM     11  C   UNL     1       1.844  15.476  20.808  0.00  0.00    +0.000 A 
ATOM     12  C   UNL     1       1.354  14.385  21.532  0.00  0.00    +0.000 A 
ATOM     13  C   UNL     1       0.286  13.638  21.032  0.00  0.00    +0.000 A 
ATOM     14  C   UNL     1      -0.218  13.938  19.765  0.00  0.00    +0.000 A 
ATOM     15  C   UNL     1       0.295  15.024  19.049  0.00  0.00    +0.000 A 
BRANCH  10  16
ATOM     16  C   UNL     1       1.872  17.089  18.760  0.00  0.00    +0.000 C 
ATOM     17  C   UNL     1       1.764  17.173  17.211  0.00  0.00    +0.000 C 
ATOM     18  C   UNL     1       0.539  18.087  17.415  0.00  0.00    +0.000 C 
ATOM     19  C   UNL     1       1.123  18.453  18.794  0.00  0.00    +0.000 C 
BRANCH  16  20
ATOM     20  N   UNL     1       3.267  17.329  19.131  0.00  0.00    +0.000 NA
ATOM     21  H   UNL     1       3.356  17.977  19.913  0.00  0.00    +0.000 HD
ATOM     22  H   UNL     1       3.806  17.755  18.378  0.00  0.00    +0.000 HD
ENDBRANCH  16  20
ENDBRANCH  10  16
ENDBRANCH   1  13
BRANCH   2  23
ATOM     23  C   UNL     1      -1.828  13.960  23.390  0.00  0.00    +0.000 A 
ATOM     24  C   UNL     1      -1.202  14.881  24.238  0.00  0.00    +0.000 A 
ATOM     25  C   UNL     1      -1.903  15.991  24.711  0.00  0.00    +0.000 A 
ATOM     26  C   UNL     1      -3.202  16.181  24.274  0.00  0.00    +0.000 A 
ATOM     27  N   UNL     1      -3.827  15.353  23.413  0.00  0.00    +0.000 NA
ATOM     28  C   UNL     1      -3.125  14.271  22.986  0.00  0.00    +0.000 A 
ENDBRANCH   2  23
BRANCH   7  29
ATOM     29  C   UNL     1       1.544   8.610  19.765  0.00  0.00    +0.000 A 
ATOM     30  C   UNL     1       1.777   9.175  18.496  0.00  0.00    +0.000 A 
ATOM     31  C   UNL     1       2.556   8.520  17.536  0.00  0.00    +0.000 A 
ATOM     32  C   UNL     1       3.130   7.287  17.825  0.00  0.00    +0.000 A 
ATOM     33  C   UNL     1       2.933   6.709  19.075  0.00  0.00    +0.000 A 
ATOM     34  C   UNL     1       2.152   7.366  20.030  0.00  0.00    +0.000 A 
ENDBRANCH   7  29
TORSDOF 5
ENDMDL
MODEL 5
REMARK VINA RESULT:      -7.4      0.315      1.240
REMARK  Name = 
REMARK  5 active torsions:
REMARK  status: ('A' for Active; 'I' for Inactive)
REMARK    1  A    between atoms: N_1  and  C_2
REMARK    2  A    between atoms: C_2  and  C_3
REMARK    3  A    between atoms: C_6  and  N_7
REMARK    4  A    between atoms: C_8  and  C_9
REMARK    5  A    between atoms: C_19  and  C_20
REMARK                            x       y       z     vdW  Elec       q    Type
REMARK                         _______ _______ _______ _____ _____    ______ ____
ROOT
ATOM      1  N   UNL     1       0.468  11.951  19.023  0.00  0.00    +0.000 N 
ATOM      2  C   UNL     1      -0.758  12.444  18.545  0.00  0.00    +0.000 A 
ATOM      3  N   UNL     1      -0.755  13.771  18.529  0.00  0.00    +0.000 NA
ATOM      4  C   UNL     1       0.429  14.153  19.088  0.00  0.00    +0.000 A 
ATOM      5  C   UNL     1       0.948  15.424  19.342  0.00  0.00    +0.000 A 
ATOM      6  C   UNL     1       2.224  15.493  19.909  0.00  0.00    +0.000 A 
ATOM      7  C   UNL     1       2.937  14.324  20.208  0.00  0.00    +0.000 A 
ATOM      8  N   UNL     1       2.442  13.083  19.967  0.00  0.00    +0.000 NA
ATOM      9  C   UNL     1       1.203  13.057  19.429  0.00  0.00    +0.000 A 
ENDROOT
BRANCH   1  13
ATOM     10  C   UNL     1       2.008   7.973  19.278  0.00  0.00    +0.000 A 
ATOM     11  C   UNL     1       1.295   8.563  20.340  0.00  0.00    +0.000 A 
ATOM     12  C   UNL     1       0.742   9.845  20.250  0.00  0.00    +0.000 A 
ATOM     13  C   UNL     1       0.914  10.598  19.087  0.00  0.00    +0.000 A 
ATOM     14  C   UNL     1       1.558  10.021  17.991  0.00  0.00    +0.000 A 
ATOM     15  C   UNL     1       2.091   8.733  18.095  0.00  0.00    +0.000 A 
BRANCH  10  16
ATOM     16  C   UNL     1       2.636   6.534  19.401  0.00  0.00    +0.000 C 
ATOM     17  C   UNL     1       2.274   5.402  18.396  0.00  0.00    +0.000 C 
ATOM     18  C   UNL     1       3.599   5.716  17.673  0.00  0.00    +0.000 C 
ATOM     19  C   UNL     1       4.121   6.280  19.009  0.00  0.00    +0.000 C 
BRANCH  16  20
ATOM     20  N   UNL     1       2.430   6.020  20.755  0.00  0.00    +0.000 NA
ATOM     21  H   UNL     1       2.014   5.089  20.758  0.00  0.00    +0.000 HD
ATOM     22  H   UNL     1       1.786   6.594  21.299  0.00  0.00    +0.000 HD
ENDBRANCH  16  20
ENDBRANCH  10  16
ENDBRANCH   1  13
BRANCH   2  23
ATOM     23  C   UNL     1      -1.940  11.658  18.157  0.00  0.00    +0.000 A 
ATOM     24  C   UNL     1      -1.915  10.639  17.198  0.00  0.00    +0.000 A 
ATOM     25  C   UNL     1      -3.093   9.986  16.835  0.00  0.00    +0.000 A 
ATOM     26  C   UNL     1      -4.263  10.333  17.486  0.00  0.00    +0.000 A 
ATOM     27  N   UNL     1      -4.327  11.268  18.456  0.00  0.00    +0.000 NA
ATOM     28  C   UNL     1      -3.166  11.899  18.773  0.00  0.00    +0.000 A 
ENDBRANCH   2  23
BRANCH   7  29
ATOM     29  C   UNL     1       4.301  14.354  20.786  0.00  0.00    +0.000 A 
ATOM     30  C   UNL     1       4.589  13.824  22.059  0.00  0.00    +0.000 A 
ATOM     31  C   UNL     1       5.879  13.879  22.599  0.00  0.00    +0.000 A 
ATOM     32  C   UNL     1       6.915  14.458  21.875  0.00  0.00    +0.000 A 
ATOM     33  C   UNL     1       6.668  14.976  20.608  0.00  0.00    +0.000 A 
ATOM     34  C   UNL     1       5.377  14.921  20.073  0.00  0.00    +0.000 A 
ENDBRANCH   7  29
TORSDOF 5
ENDMDL
MODEL 6
REMARK VINA RESULT:      -7.4      3.425      7.899
REMARK  Name = 
REMARK  5 active torsions:
REMARK  status: ('A' for Active; 'I' for Inactive)
REMARK    1  A    between atoms: N_1  and  C_2
REMARK    2  A    between atoms: C_2  and  C_3
REMARK    3  A    between atoms: C_6  and  N_7
REMARK    4  A    between atoms: C_8  and  C_9
REMARK    5  A    between atoms: C_19  and  C_20
REMARK                            x       y       z     vdW  Elec       q    Type
REMARK                         _______ _______ _______ _____ _____    ______ ____
ROOT
ATOM      1  N   UNL     1      -0.288  12.729  21.864  0.00  0.00    +0.000 N 
ATOM      2  C   UNL     1      -1.137  12.876  22.975  0.00  0.00    +0.000 A 
ATOM      3  N   UNL     1      -1.381  11.699  23.535  0.00  0.00    +0.000 NA
ATOM      4  C   UNL     1      -0.780  10.769  22.739  0.00  0.00    +0.000 A 
ATOM      5  C   UNL     1      -0.734   9.377  22.840  0.00  0.00    +0.000 A 
ATOM      6  C   UNL     1      -0.000   8.688  21.869  0.00  0.00    +0.000 A 
ATOM      7  C   UNL     1       0.652   9.383  20.841  0.00  0.00    +0.000 A 
ATOM      8  N   UNL     1       0.613  10.736  20.732  0.00  0.00    +0.000 NA
ATOM      9  C   UNL     1      -0.113  11.364  21.682  0.00  0.00    +0.000 A 
ENDROOT
BRANCH   1  13
ATOM     10  C   UNL     1       1.381  15.940  19.591  0.00  0.00    +0.000 A 
ATOM     11  C   UNL     1       2.083  15.340  20.654  0.00  0.00    +0.000 A 
ATOM     12  C   UNL     1       1.569  14.255  21.373  0.00  0.00    +0.000 A 
ATOM     13  C   UNL     1       0.306  13.749  21.063  0.00  0.00    +0.000 A 
ATOM     14  C   UNL     1      -0.390  14.276  19.973  0.00  0.00    +0.000 A 
ATOM     15  C   UNL     1       0.146  15.351  19.258  0.00  0.00    +0.000 A 
BRANCH  10  16
ATOM     16  C   UNL     1       1.968  17.170  18.801  0.00  0.00    +0.000 C 
ATOM     17  C   UNL     1       2.087  17.157  17.250  0.00  0.00    +0.000 C 
ATOM     18  C   UNL     1       0.789  17.989  17.213  0.00  0.00    +0.000 C 
ATOM     19  C   UNL     1       1.137  18.475  18.634  0.00  0.00    +0.000 C 
BRANCH  16  20
ATOM     20  N   UNL     1       3.274  17.531  19.352  0.00  0.00    +0.000 NA
ATOM     21  H   UNL     1       3.950  16.771  19.282  0.00  0.00    +0.000 HD
ATOM     22  H   UNL     1       3.234  17.752  20.347  0.00  0.00    +0.000 HD
ENDBRANCH  16  20
ENDBRANCH  10  16
ENDBRANCH   1  13
BRANCH   2  23
ATOM     23  C   UNL     1      -1.750  14.120  23.465  0.00  0.00    +0.000 A 
ATOM     24  C   UNL     1      -3.017  14.570  23.073  0.00  0.00    +0.000 A 
ATOM     25  C   UNL     1      -3.500  15.796  23.530  0.00  0.00    +0.000 A 
ATOM     26  C   UNL     1      -2.722  16.518  24.417  0.00  0.00    +0.000 A 
ATOM     27  N   UNL     1      -1.522  16.100  24.867  0.00  0.00    +0.000 NA
ATOM     28  C   UNL     1      -1.070  14.912  24.388  0.00  0.00    +0.000 A 
ENDBRANCH   2  23
BRANCH   7  29
ATOM     29  C   UNL     1       1.459   8.693  19.807  0.00  0.00    +0.000 A 
ATOM     30  C   UNL     1       2.037   7.427  20.026  0.00  0.00    +0.000 A 
ATOM     31  C   UNL     1       2.814   6.800  19.046  0.00  0.00    +0.000 A 
ATOM     32  C   UNL     1       3.025   7.418  17.819  0.00  0.00    +0.000 A 
ATOM     33  C   UNL     1       2.455   8.662  17.565  0.00  0.00    +0.000 A 
ATOM     34  C   UNL     1       1.681   9.287  18.548  0.00  0.00    +0.000 A 
ENDBRANCH   7  29
TORSDOF 5
ENDMDL
MODEL 7
REMARK VINA RESULT:      -7.3      2.052      7.289
REMARK  Name = 
REMARK  5 active torsions:
REMARK  status: ('A' for Active; 'I' for Inactive)
REMARK    1  A    between atoms: N_1  and  C_2
REMARK    2  A    between atoms: C_2  and  C_3
REMARK    3  A    between atoms: C_6  and  N_7
REMARK    4  A    between atoms: C_8  and  C_9
REMARK    5  A    between atoms: C_19  and  C_20
REMARK                            x       y       z     vdW  Elec       q    Type
REMARK                         _______ _______ _______ _____ _____    ______ ____
ROOT
ATOM      1  N   UNL     1       1.098  13.639  19.316  0.00  0.00    +0.000 N 
ATOM      2  C   UNL     1      -0.066  14.409  19.486  0.00  0.00    +0.000 A 
ATOM      3  N   UNL     1      -1.123  13.627  19.657  0.00  0.00    +0.000 NA
ATOM      4  C   UNL     1      -0.678  12.348  19.499  0.00  0.00    +0.000 A 
ATOM      5  C   UNL     1      -1.363  11.132  19.550  0.00  0.00    +0.000 A 
ATOM      6  C   UNL     1      -0.611   9.966  19.373  0.00  0.00    +0.000 A 
ATOM      7  C   UNL     1       0.770  10.034  19.151  0.00  0.00    +0.000 A 
ATOM      8  N   UNL     1       1.447  11.210  19.099  0.00  0.00    +0.000 NA
ATOM      9  C   UNL     1       0.686  12.314  19.263  0.00  0.00    +0.000 A 
ENDROOT
BRANCH   1  13
ATOM     10  C   UNL     1       5.068  15.191  19.024  0.00  0.00    +0.000 A 
ATOM     11  C   UNL     1       4.480  14.884  20.266  0.00  0.00    +0.000 A 
ATOM     12  C   UNL     1       3.202  14.328  20.373  0.00  0.00    +0.000 A 
ATOM     13  C   UNL     1       2.449  14.086  19.222  0.00  0.00    +0.000 A 
ATOM     14  C   UNL     1       3.024  14.317  17.971  0.00  0.00    +0.000 A 
ATOM     15  C   UNL     1       4.309  14.860  17.885  0.00  0.00    +0.000 A 
BRANCH  10  16
ATOM     16  C   UNL     1       6.504  15.830  18.922  0.00  0.00    +0.000 C 
ATOM     17  C   UNL     1       7.575  15.600  20.027  0.00  0.00    +0.000 C 
ATOM     18  C   UNL     1       8.191  14.525  19.109  0.00  0.00    +0.000 C 
ATOM     19  C   UNL     1       7.553  15.269  17.919  0.00  0.00    +0.000 C 
BRANCH  16  20
ATOM     20  N   UNL     1       6.388  17.271  18.698  0.00  0.00    +0.000 NA
ATOM     21  H   UNL     1       6.929  17.814  19.370  0.00  0.00    +0.000 HD
ATOM     22  H   UNL     1       5.431  17.609  18.802  0.00  0.00    +0.000 HD
ENDBRANCH  16  20
ENDBRANCH  10  16
ENDBRANCH   1  13
BRANCH   2  23
ATOM     23  C   UNL     1      -0.175  15.876  19.435  0.00  0.00    +0.000 A 
ATOM     24  C   UNL     1      -0.407  16.598  18.258  0.00  0.00    +0.000 A 
ATOM     25  C   UNL     1      -0.428  17.992  18.281  0.00  0.00    +0.000 A 
ATOM     26  C   UNL     1      -0.273  18.631  19.498  0.00  0.00    +0.000 A 
ATOM     27  N   UNL     1      -0.104  17.978  20.666  0.00  0.00    +0.000 NA
ATOM     28  C   UNL     1      -0.068  16.621  20.607  0.00  0.00    +0.000 A 
ENDBRANCH   2  23
BRANCH   7  29
ATOM     29  C   UNL     1       1.606   8.822  18.984  0.00  0.00    +0.000 A 
ATOM     30  C   UNL     1       2.329   8.565  17.803  0.00  0.00    +0.000 A 
ATOM     31  C   UNL     1       3.097   7.405  17.654  0.00  0.00    +0.000 A 
ATOM     32  C   UNL     1       3.170   6.477  18.687  0.00  0.00    +0.000 A 
ATOM     33  C   UNL     1       2.481   6.709  19.873  0.00  0.00    +0.000 A 
ATOM     34  C   UNL     1       1.713   7.869  20.017  0.00  0.00    +0.000 A 
ENDBRANCH   7  29
TORSDOF 5
ENDMDL
MODEL 8
REMARK VINA RESULT:      -7.2      2.763      7.325
REMARK  Name = 
REMARK  5 active torsions:
REMARK  status: ('A' for Active; 'I' for Inactive)
REMARK    1  A    between atoms: N_1  and  C_2
REMARK    2  A    between atoms: C_2  and  C_3
REMARK    3  A    between atoms: C_6  and  N_7
REMARK    4  A    between atoms: C_8  and  C_9
REMARK    5  A    between atoms: C_19  and  C_20
REMARK                            x       y       z     vdW  Elec       q    Type
REMARK                         _______ _______ _______ _____ _____    ______ ____
ROOT
ATOM      1  N   UNL     1       0.417  12.206  21.288  0.00  0.00    +0.000 N 
ATOM      2  C   UNL     1      -0.560  12.575  22.229  0.00  0.00    +0.000 A 
ATOM      3  N   UNL     1      -1.062  11.503  22.827  0.00  0.00    +0.000 NA
ATOM      4  C   UNL     1      -0.492  10.426  22.214  0.00  0.00    +0.000 A 
ATOM      5  C   UNL     1      -0.671   9.057  22.425  0.00  0.00    +0.000 A 
ATOM      6  C   UNL     1       0.091   8.183  21.644  0.00  0.00    +0.000 A 
ATOM      7  C   UNL     1       0.990   8.679  20.689  0.00  0.00    +0.000 A 
ATOM      8  N   UNL     1       1.172  10.007  20.474  0.00  0.00    +0.000 NA
ATOM      9  C   UNL     1       0.411  10.819  21.240  0.00  0.00    +0.000 A 
ENDROOT
BRANCH   1  13
ATOM     10  C   UNL     1       3.115  14.561  18.956  0.00  0.00    +0.000 A 
ATOM     11  C   UNL     1       1.946  14.002  18.402  0.00  0.00    +0.000 A 
ATOM     12  C   UNL     1       1.030  13.273  19.166  0.00  0.00    +0.000 A 
ATOM     13  C   UNL     1       1.273  13.052  20.523  0.00  0.00    +0.000 A 
ATOM     14  C   UNL     1       2.386  13.646  21.120  0.00  0.00    +0.000 A 
ATOM     15  C   UNL     1       3.284  14.384  20.343  0.00  0.00    +0.000 A 
BRANCH  10  16
ATOM     16  C   UNL     1       4.143  15.368  18.078  0.00  0.00    +0.000 C 
ATOM     17  C   UNL     1       4.856  16.638  18.625  0.00  0.00    +0.000 C 
ATOM     18  C   UNL     1       6.081  15.745  18.907  0.00  0.00    +0.000 C 
ATOM     19  C   UNL     1       5.567  14.801  17.802  0.00  0.00    +0.000 C 
BRANCH  16  20
ATOM     20  N   UNL     1       3.534  15.709  16.793  0.00  0.00    +0.000 NA
ATOM     21  H   UNL     1       3.727  16.671  16.514  0.00  0.00    +0.000 HD
ATOM     22  H   UNL     1       2.516  15.643  16.810  0.00  0.00    +0.000 HD
ENDBRANCH  16  20
ENDBRANCH  10  16
ENDBRANCH   1  13
BRANCH   2  23
ATOM     23  C   UNL     1      -1.048  13.933  22.516  0.00  0.00    +0.000 A 
ATOM     24  C   UNL     1      -1.477  14.830  21.530  0.00  0.00    +0.000 A 
ATOM     25  C   UNL     1      -1.861  16.126  21.876  0.00  0.00    +0.000 A 
ATOM     26  C   UNL     1      -1.858  16.475  23.215  0.00  0.00    +0.000 A 
ATOM     27  N   UNL     1      -1.507  15.629  24.205  0.00  0.00    +0.000 NA
ATOM     28  C   UNL     1      -1.120  14.380  23.833  0.00  0.00    +0.000 A 
ENDBRANCH   2  23
BRANCH   7  29
ATOM     29  C   UNL     1       1.833   7.788  19.859  0.00  0.00    +0.000 A 
ATOM     30  C   UNL     1       2.198   6.493  20.277  0.00  0.00    +0.000 A 
ATOM     31  C   UNL     1       3.012   5.673  19.489  0.00  0.00    +0.000 A 
ATOM     32  C   UNL     1       3.476   6.123  18.258  0.00  0.00    +0.000 A 
ATOM     33  C   UNL     1       3.121   7.391  17.808  0.00  0.00    +0.000 A 
ATOM     34  C   UNL     1       2.308   8.208  18.599  0.00  0.00    +0.000 A 
ENDBRANCH   7  29
TORSDOF 5
ENDMDL
MODEL 9
REMARK VINA RESULT:      -7.1      2.675      7.185
REMARK  Name = 
REMARK  5 active torsions:
REMARK  status: ('A' for Active; 'I' for Inactive)
REMARK    1  A    between atoms: N_1  and  C_2
REMARK    2  A    between atoms: C_2  and  C_3
REMARK    3  A    between atoms: C_6  and  N_7
REMARK    4  A    between atoms: C_8  and  C_9
REMARK    5  A    between atoms: C_19  and  C_20
REMARK                            x       y       z     vdW  Elec       q    Type
REMARK                         _______ _______ _______ _____ _____    ______ ____
ROOT
ATOM      1  N   UNL     1       0.455  11.870  21.065  0.00  0.00    +0.000 N 
ATOM      2  C   UNL     1      -0.571  12.167  21.978  0.00  0.00    +0.000 A 
ATOM      3  N   UNL     1      -1.039  11.057  22.533  0.00  0.00    +0.000 NA
ATOM      4  C   UNL     1      -0.396  10.025  21.917  0.00  0.00    +0.000 A 
ATOM      5  C   UNL     1      -0.514   8.644  22.090  0.00  0.00    +0.000 A 
ATOM      6  C   UNL     1       0.317   7.828  21.316  0.00  0.00    +0.000 A 
ATOM      7  C   UNL     1       1.223   8.390  20.406  0.00  0.00    +0.000 A 
ATOM      8  N   UNL     1       1.346   9.731  20.228  0.00  0.00    +0.000 NA
ATOM      9  C   UNL     1       0.519  10.485  20.985  0.00  0.00    +0.000 A 
ENDROOT
BRANCH   1  13
ATOM     10  C   UNL     1       3.108  14.410  18.880  0.00  0.00    +0.000 A 
ATOM     11  C   UNL     1       1.970  13.833  18.282  0.00  0.00    +0.000 A 
ATOM     12  C   UNL     1       1.067  13.042  18.999  0.00  0.00    +0.000 A 
ATOM     13  C   UNL     1       1.293  12.775  20.350  0.00  0.00    +0.000 A 
ATOM     14  C   UNL     1       2.375  13.382  20.992  0.00  0.00    +0.000 A 
ATOM     15  C   UNL     1       3.259  14.182  20.261  0.00  0.00    +0.000 A 
BRANCH  10  16
ATOM     16  C   UNL     1       4.122  15.287  18.054  0.00  0.00    +0.000 C 
ATOM     17  C   UNL     1       4.802  16.541  18.674  0.00  0.00    +0.000 C 
ATOM     18  C   UNL     1       6.045  15.663  18.917  0.00  0.00    +0.000 C 
ATOM     19  C   UNL     1       5.560  14.769  17.758  0.00  0.00    +0.000 C 
BRANCH  16  20
ATOM     20  N   UNL     1       3.512  15.683  16.785  0.00  0.00    +0.000 NA
ATOM     21  H   UNL     1       3.636  14.978  16.058  0.00  0.00    +0.000 HD
ATOM     22  H   UNL     1       3.926  16.530  16.397  0.00  0.00    +0.000 HD
ENDBRANCH  16  20
ENDBRANCH  10  16
ENDBRANCH   1  13
BRANCH   2  23
ATOM     23  C   UNL     1      -1.135  13.492  22.279  0.00  0.00    +0.000 A 
ATOM     24  C   UNL     1      -0.446  14.490  22.979  0.00  0.00    +0.000 A 
ATOM     25  C   UNL     1      -1.076  15.697  23.285  0.00  0.00    +0.000 A 
ATOM     26  C   UNL     1      -2.366  15.897  22.830  0.00  0.00    +0.000 A 
ATOM     27  N   UNL     1      -3.050  14.989  22.104  0.00  0.00    +0.000 NA
ATOM     28  C   UNL     1      -2.417  13.817  21.840  0.00  0.00    +0.000 A 
ENDBRANCH   2  23
BRANCH   7  29
ATOM     29  C   UNL     1       2.138   7.563  19.585  0.00  0.00    +0.000 A 
ATOM     30  C   UNL     1       2.661   8.013  18.358  0.00  0.00    +0.000 A 
ATOM     31  C   UNL     1       3.507   7.210  17.585  0.00  0.00    +0.000 A 
ATOM     32  C   UNL     1       3.860   5.940  18.026  0.00  0.00    +0.000 A 
ATOM     33  C   UNL     1       3.374   5.471  19.242  0.00  0.00    +0.000 A 
ATOM     34  C   UNL     1       2.526   6.276  20.010  0.00  0.00    +0.000 A 
ENDBRANCH   7  29
TORSDOF 5
ENDMDL
