MODEL 1
REMARK VINA RESULT:      -7.4      0.000      0.000
REMARK  Name = 
REMARK  5 active torsions:
REMARK  status: ('A' for Active; 'I' for Inactive)
REMARK    1  A    between atoms: C_2  and  C_3
REMARK    2  A    between atoms: C_14  and  C_15
REMARK    3  A    between atoms: C_15  and  N_16
REMARK    4  A    between atoms: N_16  and  C_17
REMARK    5  A    between atoms: C_17  and  C_18
REMARK                            x       y       z     vdW  Elec       q    Type
REMARK                         _______ _______ _______ _____ _____    ______ ____
ROOT
ATOM      1  O   UNL     1       2.089   9.147  17.266  0.00  0.00    +0.000 OA
ATOM      2  C   UNL     1       2.100   8.424  18.258  0.00  0.00    +0.000 C 
ATOM      3  N   UNL     1       1.672   8.859  19.514  0.00  0.00    +0.000 N 
ATOM      4  C   UNL     1       1.789   8.151  20.789  0.00  0.00    +0.000 C 
ATOM      5  C   UNL     1       0.390   7.838  21.320  0.00  0.00    +0.000 C 
ATOM      6  C   UNL     1      -0.464   9.112  21.454  0.00  0.00    +0.000 C 
ATOM      7  C   UNL     1      -0.443   9.908  20.129  0.00  0.00    +0.000 C 
ATOM      8  C   UNL     1       0.974  10.140  19.611  0.00  0.00    +0.000 C 
ENDROOT
BRANCH   2   9
ATOM      9  C   UNL     1       2.592   7.034  18.054  0.00  0.00    +0.000 A 
ATOM     10  C   UNL     1       3.915   6.846  17.647  0.00  0.00    +0.000 A 
ATOM     11  C   UNL     1       4.412   5.553  17.439  0.00  0.00    +0.000 A 
ATOM     12  C   UNL     1       3.592   4.442  17.659  0.00  0.00    +0.000 A 
ATOM     13 CL   UNL     1       4.274   2.872  17.440  0.00  0.00    +0.000 Cl
ATOM     14  C   UNL     1       2.261   4.631  18.034  0.00  0.00    +0.000 A 
ATOM     15 CL   UNL     1       1.188   3.319  18.373  0.00  0.00    +0.000 Cl
ATOM     16  C   UNL     1       1.756   5.923  18.175  0.00  0.00    +0.000 A 
ENDBRANCH   2   9
BRANCH   6  17
ATOM     17  C   UNL     1      -0.004   9.936  22.679  0.00  0.00    +0.000 C 
BRANCH  17  18
ATOM     18  N   UNL     1      -1.058  10.650  23.391  0.00  0.00    +0.000 NA
ATOM     19  H   UNL     1      -0.842  10.709  24.386  0.00  0.00    +0.000 HD
BRANCH  18  20
ATOM     20  C   UNL     1      -1.253  12.016  22.896  0.00  0.00    +0.000 C 
BRANCH  20  21
ATOM     21  C   UNL     1      -2.722  12.344  22.794  0.00  0.00    +0.000 A 
ATOM     22  C   UNL     1      -3.492  12.489  23.945  0.00  0.00    +0.000 A 
ATOM     23  C   UNL     1      -4.835  12.822  23.812  0.00  0.00    +0.000 A 
ATOM     24  C   UNL     1      -5.368  13.011  22.542  0.00  0.00    +0.000 A 
ATOM     25  C   UNL     1      -4.522  12.863  21.458  0.00  0.00    +0.000 A 
ATOM     26 CL   UNL     1      -5.092  13.089  19.856  0.00  0.00    +0.000 Cl
ATOM     27  N   UNL     1      -3.218  12.539  21.546  0.00  0.00    +0.000 NA
ENDBRANCH  20  21
ENDBRANCH  18  20
ENDBRANCH  17  18
ENDBRANCH   6  17
TORSDOF 5
ENDMDL
MODEL 2
REMARK VINA RESULT:      -7.3      0.677      1.386
REMARK  Name = 
REMARK  5 active torsions:
REMARK  status: ('A' for Active; 'I' for Inactive)
REMARK    1  A    between atoms: C_2  and  C_3
REMARK    2  A    between atoms: C_14  and  C_15
REMARK    3  A    between atoms: C_15  and  N_16
REMARK    4  A    between atoms: N_16  and  C_17
REMARK    5  A    between atoms: C_17  and  C_18
REMARK                            x       y       z     vdW  Elec       q    Type
REMARK                         _______ _______ _______ _____ _____    ______ ____
ROOT
ATOM      1  O   UNL     1       2.317   8.751  17.204  0.00  0.00    +0.000 OA
ATOM      2  C   UNL     1       2.221   8.104  18.243  0.00  0.00    +0.000 C 
ATOM      3  N   UNL     1       1.768   8.662  19.440  0.00  0.00    +0.000 N 
ATOM      4  C   UNL     1       1.764   8.043  20.765  0.00  0.00    +0.000 C 
ATOM      5  C   UNL     1       0.320   7.880  21.239  0.00  0.00    +0.000 C 
ATOM      6  C   UNL     1      -0.433   9.223  21.238  0.00  0.00    +0.000 C 
ATOM      7  C   UNL     1      -0.282   9.915  19.864  0.00  0.00    +0.000 C 
ATOM      8  C   UNL     1       1.173   9.998  19.409  0.00  0.00    +0.000 C 
ENDROOT
BRANCH   2   9
ATOM      9  C   UNL     1       2.607   6.669  18.163  0.00  0.00    +0.000 A 
ATOM     10  C   UNL     1       1.600   5.716  17.987  0.00  0.00    +0.000 A 
ATOM     11  C   UNL     1       1.924   4.354  17.913  0.00  0.00    +0.000 A 
ATOM     12  C   UNL     1       3.259   3.945  17.991  0.00  0.00    +0.000 A 
ATOM     13 CL   UNL     1       3.602   2.260  17.839  0.00  0.00    +0.000 Cl
ATOM     14  C   UNL     1       4.260   4.894  18.198  0.00  0.00    +0.000 A 
ATOM     15 CL   UNL     1       5.939   4.487  18.262  0.00  0.00    +0.000 Cl
ATOM     16  C   UNL     1       3.923   6.240  18.337  0.00  0.00    +0.000 A 
ENDBRANCH   2   9
BRANCH   6  17
ATOM     17  C   UNL     1       0.031  10.096  22.425  0.00  0.00    +0.000 C 
BRANCH  17  18
ATOM     18  N   UNL     1      -1.032  10.648  23.256  0.00  0.00    +0.000 NA
ATOM     19  H   UNL     1      -0.813  10.528  24.246  0.00  0.00    +0.000 HD
BRANCH  18  20
ATOM     20  C   UNL     1      -1.253  12.079  23.020  0.00  0.00    +0.000 C 
BRANCH  20  21
ATOM     21  C   UNL     1      -2.723  12.370  22.843  0.00  0.00    +0.000 A 
ATOM     22  C   UNL     1      -3.542  12.557  23.954  0.00  0.00    +0.000 A 
ATOM     23  C   UNL     1      -4.885  12.854  23.751  0.00  0.00    +0.000 A 
ATOM     24  C   UNL     1      -5.368  12.970  22.452  0.00  0.00    +0.000 A 
ATOM     25  C   UNL     1      -4.476  12.785  21.411  0.00  0.00    +0.000 A 
ATOM     26 CL   UNL     1      -4.984  12.920  19.779  0.00  0.00    +0.000 Cl
ATOM     27  N   UNL     1      -3.171  12.493  21.568  0.00  0.00    +0.000 NA
ENDBRANCH  20  21
ENDBRANCH  18  20
ENDBRANCH  17  18
ENDBRANCH   6  17
TORSDOF 5
ENDMDL
MODEL 3
REMARK VINA RESULT:      -7.2      1.171      1.901
REMARK  Name = 
REMARK  5 active torsions:
REMARK  status: ('A' for Active; 'I' for Inactive)
REMARK    1  A    between atoms: C_2  and  C_3
REMARK    2  A    between atoms: C_14  and  C_15
REMARK    3  A    between atoms: C_15  and  N_16
REMARK    4  A    between atoms: N_16  and  C_17
REMARK    5  A    between atoms: C_17  and  C_18
REMARK                            x       y       z     vdW  Elec       q    Type
REMARK                         _______ _______ _______ _____ _____    ______ ____
ROOT
ATOM      1  O   UNL     1       2.295   8.698  17.199  0.00  0.00    +0.000 OA
ATOM      2  C   UNL     1       2.222   8.051  18.239  0.00  0.00    +0.000 C 
ATOM      3  N   UNL     1       1.791   8.606  19.446  0.00  0.00    +0.000 N 
ATOM      4  C   UNL     1       1.816   7.986  20.770  0.00  0.00    +0.000 C 
ATOM      5  C   UNL     1       0.382   7.816  21.273  0.00  0.00    +0.000 C 
ATOM      6  C   UNL     1      -0.376   9.157  21.288  0.00  0.00    +0.000 C 
ATOM      7  C   UNL     1      -0.255   9.850  19.912  0.00  0.00    +0.000 C 
ATOM      8  C   UNL     1       1.190   9.939  19.428  0.00  0.00    +0.000 C 
ENDROOT
BRANCH   2   9
ATOM      9  C   UNL     1       2.612   6.618  18.150  0.00  0.00    +0.000 A 
ATOM     10  C   UNL     1       1.605   5.659  18.007  0.00  0.00    +0.000 A 
ATOM     11  C   UNL     1       1.933   4.299  17.925  0.00  0.00    +0.000 A 
ATOM     12  C   UNL     1       3.271   3.896  17.964  0.00  0.00    +0.000 A 
ATOM     13 CL   UNL     1       3.618   2.213  17.804  0.00  0.00    +0.000 Cl
ATOM     14  C   UNL     1       4.274   4.850  18.140  0.00  0.00    +0.000 A 
ATOM     15 CL   UNL     1       5.955   4.451  18.154  0.00  0.00    +0.000 Cl
ATOM     16  C   UNL     1       3.935   6.195  18.287  0.00  0.00    +0.000 A 
ENDBRANCH   2   9
BRANCH   6  17
ATOM     17  C   UNL     1       0.109  10.031  22.467  0.00  0.00    +0.000 C 
BRANCH  17  18
ATOM     18  N   UNL     1      -0.400  11.397  22.490  0.00  0.00    +0.000 NA
ATOM     19  H   UNL     1      -0.598  11.723  21.544  0.00  0.00    +0.000 HD
BRANCH  18  20
ATOM     20  C   UNL     1      -1.633  11.531  23.274  0.00  0.00    +0.000 C 
BRANCH  20  21
ATOM     21  C   UNL     1      -2.717  12.188  22.456  0.00  0.00    +0.000 A 
ATOM     22  C   UNL     1      -2.468  12.584  21.145  0.00  0.00    +0.000 A 
ATOM     23  C   UNL     1      -3.501  13.159  20.414  0.00  0.00    +0.000 A 
ATOM     24  C   UNL     1      -4.751  13.310  21.003  0.00  0.00    +0.000 A 
ATOM     25  C   UNL     1      -4.910  12.871  22.305  0.00  0.00    +0.000 A 
ATOM     26 CL   UNL     1      -6.420  13.009  23.105  0.00  0.00    +0.000 Cl
ATOM     27  N   UNL     1      -3.934  12.313  23.045  0.00  0.00    +0.000 NA
ENDBRANCH  20  21
ENDBRANCH  18  20
ENDBRANCH  17  18
ENDBRANCH   6  17
TORSDOF 5
ENDMDL
MODEL 4
REMARK VINA RESULT:      -7.1      4.041      8.599
REMARK  Name = 
REMARK  5 active torsions:
REMARK  status: ('A' for Active; 'I' for Inactive)
REMARK    1  A    between atoms: C_2  and  C_3
REMARK    2  A    between atoms: C_14  and  C_15
REMARK    3  A    between atoms: C_15  and  N_16
REMARK    4  A    between atoms: N_16  and  C_17
REMARK    5  A    between atoms: C_17  and  C_18
REMARK                            x       y       z     vdW  Elec       q    Type
REMARK                         _______ _______ _______ _____ _____    ______ ____
ROOT
ATOM      1  O   UNL     1       2.424   9.147  17.077  0.00  0.00    +0.000 OA
ATOM      2  C   UNL     1       2.486   8.300  17.963  0.00  0.00    +0.000 C 
ATOM      3  N   UNL     1       3.244   7.133  17.841  0.00  0.00    +0.000 N 
ATOM      4  C   UNL     1       3.267   5.988  18.749  0.00  0.00    +0.000 C 
ATOM      5  C   UNL     1       4.661   5.860  19.363  0.00  0.00    +0.000 C 
ATOM      6  C   UNL     1       5.749   5.748  18.279  0.00  0.00    +0.000 C 
ATOM      7  C   UNL     1       5.600   6.896  17.255  0.00  0.00    +0.000 C 
ATOM      8  C   UNL     1       4.175   7.019  16.720  0.00  0.00    +0.000 C 
ENDROOT
BRANCH   2   9
ATOM      9  C   UNL     1       1.709   8.584  19.200  0.00  0.00    +0.000 A 
ATOM     10  C   UNL     1       1.838   7.713  20.284  0.00  0.00    +0.000 A 
ATOM     11  C   UNL     1       1.118   7.945  21.464  0.00  0.00    +0.000 A 
ATOM     12  C   UNL     1       0.284   9.062  21.570  0.00  0.00    +0.000 A 
ATOM     13 CL   UNL     1      -0.536   9.326  23.066  0.00  0.00    +0.000 Cl
ATOM     14  C   UNL     1       0.131   9.914  20.475  0.00  0.00    +0.000 A 
ATOM     15 CL   UNL     1      -0.841  11.342  20.529  0.00  0.00    +0.000 Cl
ATOM     16  C   UNL     1       0.799   9.639  19.282  0.00  0.00    +0.000 A 
ENDBRANCH   2   9
BRANCH   6  17
ATOM     17  C   UNL     1       5.722   4.340  17.640  0.00  0.00    +0.000 C 
BRANCH  17  18
ATOM     18  N   UNL     1       5.383   3.245  18.541  0.00  0.00    +0.000 NA
ATOM     19  H   UNL     1       5.028   3.606  19.427  0.00  0.00    +0.000 HD
BRANCH  18  20
ATOM     20  C   UNL     1       4.365   2.347  17.986  0.00  0.00    +0.000 C 
BRANCH  20  21
ATOM     21  C   UNL     1       3.045   2.532  18.694  0.00  0.00    +0.000 A 
ATOM     22  C   UNL     1       1.848   2.416  17.993  0.00  0.00    +0.000 A 
ATOM     23  C   UNL     1       0.652   2.563  18.685  0.00  0.00    +0.000 A 
ATOM     24  C   UNL     1       0.682   2.806  20.054  0.00  0.00    +0.000 A 
ATOM     25  C   UNL     1       1.919   2.888  20.669  0.00  0.00    +0.000 A 
ATOM     26 CL   UNL     1       2.049   3.175  22.354  0.00  0.00    +0.000 Cl
ATOM     27  N   UNL     1       3.097   2.755  20.032  0.00  0.00    +0.000 NA
ENDBRANCH  20  21
ENDBRANCH  18  20
ENDBRANCH  17  18
ENDBRANCH   6  17
TORSDOF 5
ENDMDL
MODEL 5
REMARK VINA RESULT:      -7.1      4.022     10.410
REMARK  Name = 
REMARK  5 active torsions:
REMARK  status: ('A' for Active; 'I' for Inactive)
REMARK    1  A    between atoms: C_2  and  C_3
REMARK    2  A    between atoms: C_14  and  C_15
REMARK    3  A    between atoms: C_15  and  N_16
REMARK    4  A    between atoms: N_16  and  C_17
REMARK    5  A    between atoms: C_17  and  C_18
REMARK                            x       y       z     vdW  Elec       q    Type
REMARK                         _______ _______ _______ _____ _____    ______ ____
ROOT
ATOM      1  O   UNL     1       2.309   9.866  17.485  0.00  0.00    +0.000 OA
ATOM      2  C   UNL     1       2.088   8.926  18.242  0.00  0.00    +0.000 C 
ATOM      3  N   UNL     1       2.562   7.634  18.001  0.00  0.00    +0.000 N 
ATOM      4  C   UNL     1       2.232   6.413  18.734  0.00  0.00    +0.000 C 
ATOM      5  C   UNL     1       3.493   5.875  19.409  0.00  0.00    +0.000 C 
ATOM      6  C   UNL     1       4.623   5.637  18.390  0.00  0.00    +0.000 C 
ATOM      7  C   UNL     1       4.843   6.905  17.535  0.00  0.00    +0.000 C 
ATOM      8  C   UNL     1       3.543   7.437  16.935  0.00  0.00    +0.000 C 
ENDROOT
BRANCH   2   9
ATOM      9  C   UNL     1       1.284   9.233  19.456  0.00  0.00    +0.000 A 
ATOM     10  C   UNL     1       1.522   8.496  20.619  0.00  0.00    +0.000 A 
ATOM     11  C   UNL     1       0.782   8.754  21.781  0.00  0.00    +0.000 A 
ATOM     12  C   UNL     1      -0.183   9.765  21.788  0.00  0.00    +0.000 A 
ATOM     13 CL   UNL     1      -1.026  10.074  23.263  0.00  0.00    +0.000 Cl
ATOM     14  C   UNL     1      -0.443  10.479  20.618  0.00  0.00    +0.000 A 
ATOM     15 CL   UNL     1      -1.584  11.775  20.545  0.00  0.00    +0.000 Cl
ATOM     16  C   UNL     1       0.252  10.172  19.448  0.00  0.00    +0.000 A 
ENDBRANCH   2   9
BRANCH   6  17
ATOM     17  C   UNL     1       4.331   4.370  17.555  0.00  0.00    +0.000 C 
BRANCH  17  18
ATOM     18  N   UNL     1       5.501   3.627  17.104  0.00  0.00    +0.000 NA
ATOM     19  H   UNL     1       5.254   2.993  16.344  0.00  0.00    +0.000 HD
BRANCH  18  20
ATOM     20  C   UNL     1       6.578   4.499  16.624  0.00  0.00    +0.000 C 
BRANCH  20  21
ATOM     21  C   UNL     1       6.708   4.412  15.123  0.00  0.00    +0.000 A 
ATOM     22  C   UNL     1       5.858   3.588  14.390  0.00  0.00    +0.000 A 
ATOM     23  C   UNL     1       5.988   3.558  13.007  0.00  0.00    +0.000 A 
ATOM     24  C   UNL     1       6.949   4.354  12.395  0.00  0.00    +0.000 A 
ATOM     25  C   UNL     1       7.737   5.154  13.203  0.00  0.00    +0.000 A 
ATOM     26 CL   UNL     1       8.939   6.176  12.532  0.00  0.00    +0.000 Cl
ATOM     27  N   UNL     1       7.643   5.209  14.545  0.00  0.00    +0.000 NA
ENDBRANCH  20  21
ENDBRANCH  18  20
ENDBRANCH  17  18
ENDBRANCH   6  17
TORSDOF 5
ENDMDL
MODEL 6
REMARK VINA RESULT:      -7.0      1.206      1.519
REMARK  Name = 
REMARK  5 active torsions:
REMARK  status: ('A' for Active; 'I' for Inactive)
REMARK    1  A    between atoms: C_2  and  C_3
REMARK    2  A    between atoms: C_14  and  C_15
REMARK    3  A    between atoms: C_15  and  N_16
REMARK    4  A    between atoms: N_16  and  C_17
REMARK    5  A    between atoms: C_17  and  C_18
REMARK                            x       y       z     vdW  Elec       q    Type
REMARK                         _______ _______ _______ _____ _____    ______ ____
ROOT
ATOM      1  O   UNL     1       2.638   8.206  17.101  0.00  0.00    +0.000 OA
ATOM      2  C   UNL     1       2.452   7.624  18.165  0.00  0.00    +0.000 C 
ATOM      3  N   UNL     1       2.006   8.277  19.316  0.00  0.00    +0.000 N 
ATOM      4  C   UNL     1       1.904   7.729  20.668  0.00  0.00    +0.000 C 
ATOM      5  C   UNL     1       0.436   7.708  21.093  0.00  0.00    +0.000 C 
ATOM      6  C   UNL     1      -0.202   9.106  20.998  0.00  0.00    +0.000 C 
ATOM      7  C   UNL     1       0.053   9.712  19.599  0.00  0.00    +0.000 C 
ATOM      8  C   UNL     1       1.525   9.653  19.198  0.00  0.00    +0.000 C 
ENDROOT
BRANCH   2   9
ATOM      9  C   UNL     1       2.720   6.160  18.170  0.00  0.00    +0.000 A 
ATOM     10  C   UNL     1       4.033   5.721  17.981  0.00  0.00    +0.000 A 
ATOM     11  C   UNL     1       4.324   4.350  17.974  0.00  0.00    +0.000 A 
ATOM     12  C   UNL     1       3.304   3.415  18.176  0.00  0.00    +0.000 A 
ATOM     13 CL   UNL     1       3.730   1.743  18.211  0.00  0.00    +0.000 Cl
ATOM     14  C   UNL     1       1.988   3.853  18.332  0.00  0.00    +0.000 A 
ATOM     15 CL   UNL     1       0.672   2.774  18.633  0.00  0.00    +0.000 Cl
ATOM     16  C   UNL     1       1.698   5.216  18.272  0.00  0.00    +0.000 A 
ENDBRANCH   2   9
BRANCH   6  17
ATOM     17  C   UNL     1       0.291   9.998  22.159  0.00  0.00    +0.000 C 
BRANCH  17  18
ATOM     18  N   UNL     1      -0.182  11.377  22.140  0.00  0.00    +0.000 NA
ATOM     19  H   UNL     1      -0.534  11.623  21.215  0.00  0.00    +0.000 HD
BRANCH  18  20
ATOM     20  C   UNL     1      -1.258  11.622  23.106  0.00  0.00    +0.000 C 
BRANCH  20  21
ATOM     21  C   UNL     1      -2.456  12.239  22.426  0.00  0.00    +0.000 A 
ATOM     22  C   UNL     1      -2.367  12.684  21.110  0.00  0.00    +0.000 A 
ATOM     23  C   UNL     1      -3.500  13.218  20.508  0.00  0.00    +0.000 A 
ATOM     24  C   UNL     1      -4.688  13.282  21.226  0.00  0.00    +0.000 A 
ATOM     25  C   UNL     1      -4.686  12.799  22.523  0.00  0.00    +0.000 A 
ATOM     26 CL   UNL     1      -6.110  12.828  23.478  0.00  0.00    +0.000 Cl
ATOM     27  N   UNL     1      -3.610  12.277  23.140  0.00  0.00    +0.000 NA
ENDBRANCH  20  21
ENDBRANCH  18  20
ENDBRANCH  17  18
ENDBRANCH   6  17
TORSDOF 5
ENDMDL
MODEL 7
REMARK VINA RESULT:      -7.0      3.620      4.613
REMARK  Name = 
REMARK  5 active torsions:
REMARK  status: ('A' for Active; 'I' for Inactive)
REMARK    1  A    between atoms: C_2  and  C_3
REMARK    2  A    between atoms: C_14  and  C_15
REMARK    3  A    between atoms: C_15  and  N_16
REMARK    4  A    between atoms: N_16  and  C_17
REMARK    5  A    between atoms: C_17  and  C_18
REMARK                            x       y       z     vdW  Elec       q    Type
REMARK                         _______ _______ _______ _____ _____    ______ ____
ROOT
ATOM      1  O   UNL     1       3.182   4.093  19.865  0.00  0.00    +0.000 OA
ATOM      2  C   UNL     1       3.174   5.035  19.078  0.00  0.00    +0.000 C 
ATOM      3  N   UNL     1       2.243   6.073  19.153  0.00  0.00    +0.000 N 
ATOM      4  C   UNL     1       2.033   7.152  18.189  0.00  0.00    +0.000 C 
ATOM      5  C   UNL     1       2.364   8.490  18.851  0.00  0.00    +0.000 C 
ATOM      6  C   UNL     1       1.539   8.707  20.133  0.00  0.00    +0.000 C 
ATOM      7  C   UNL     1       1.671   7.479  21.063  0.00  0.00    +0.000 C 
ATOM      8  C   UNL     1       1.391   6.165  20.338  0.00  0.00    +0.000 C 
ENDROOT
BRANCH   2   9
ATOM      9  C   UNL     1       4.229   5.025  18.029  0.00  0.00    +0.000 A 
ATOM     10  C   UNL     1       4.107   4.124  16.968  0.00  0.00    +0.000 A 
ATOM     11  C   UNL     1       5.083   4.081  15.963  0.00  0.00    +0.000 A 
ATOM     12  C   UNL     1       6.173   4.956  16.006  0.00  0.00    +0.000 A 
ATOM     13 CL   UNL     1       7.315   4.895  14.714  0.00  0.00    +0.000 Cl
ATOM     14  C   UNL     1       6.312   5.833  17.083  0.00  0.00    +0.000 A 
ATOM     15 CL   UNL     1       7.600   6.980  17.197  0.00  0.00    +0.000 Cl
ATOM     16  C   UNL     1       5.371   5.823  18.112  0.00  0.00    +0.000 A 
ENDBRANCH   2   9
BRANCH   6  17
ATOM     17  C   UNL     1       0.077   9.058  19.774  0.00  0.00    +0.000 C 
BRANCH  17  18
ATOM     18  N   UNL     1      -0.094  10.143  18.815  0.00  0.00    +0.000 NA
ATOM     19  H   UNL     1      -0.149   9.777  17.864  0.00  0.00    +0.000 HD
BRANCH  18  20
ATOM     20  C   UNL     1      -1.306  10.931  19.059  0.00  0.00    +0.000 C 
BRANCH  20  21
ATOM     21  C   UNL     1      -2.238  10.860  17.875  0.00  0.00    +0.000 A 
ATOM     22  C   UNL     1      -1.921  10.064  16.777  0.00  0.00    +0.000 A 
ATOM     23  C   UNL     1      -2.819  10.000  15.718  0.00  0.00    +0.000 A 
ATOM     24  C   UNL     1      -4.008  10.718  15.788  0.00  0.00    +0.000 A 
ATOM     25  C   UNL     1      -4.245  11.467  16.926  0.00  0.00    +0.000 A 
ATOM     26 CL   UNL     1      -5.689  12.374  17.101  0.00  0.00    +0.000 Cl
ATOM     27  N   UNL     1      -3.399  11.556  17.970  0.00  0.00    +0.000 NA
ENDBRANCH  20  21
ENDBRANCH  18  20
ENDBRANCH  17  18
ENDBRANCH   6  17
TORSDOF 5
ENDMDL
MODEL 8
REMARK VINA RESULT:      -7.0      3.580      4.307
REMARK  Name = 
REMARK  5 active torsions:
REMARK  status: ('A' for Active; 'I' for Inactive)
REMARK    1  A    between atoms: C_2  and  C_3
REMARK    2  A    between atoms: C_14  and  C_15
REMARK    3  A    between atoms: C_15  and  N_16
REMARK    4  A    between atoms: N_16  and  C_17
REMARK    5  A    between atoms: C_17  and  C_18
REMARK                            x       y       z     vdW  Elec       q    Type
REMARK                         _______ _______ _______ _____ _____    ______ ____
ROOT
ATOM      1  O   UNL     1       2.691   4.812  20.715  0.00  0.00    +0.000 OA
ATOM      2  C   UNL     1       2.809   5.560  19.749  0.00  0.00    +0.000 C 
ATOM      3  N   UNL     1       1.964   6.649  19.530  0.00  0.00    +0.000 N 
ATOM      4  C   UNL     1       1.903   7.505  18.347  0.00  0.00    +0.000 C 
ATOM      5  C   UNL     1       2.301   8.929  18.734  0.00  0.00    +0.000 C 
ATOM      6  C   UNL     1       1.420   9.474  19.874  0.00  0.00    +0.000 C 
ATOM      7  C   UNL     1       1.393   8.471  21.050  0.00  0.00    +0.000 C 
ATOM      8  C   UNL     1       1.051   7.052  20.600  0.00  0.00    +0.000 C 
ENDROOT
BRANCH   2   9
ATOM      9  C   UNL     1       3.922   5.251  18.811  0.00  0.00    +0.000 A 
ATOM     10  C   UNL     1       3.646   4.481  17.678  0.00  0.00    +0.000 A 
ATOM     11  C   UNL     1       4.669   4.166  16.773  0.00  0.00    +0.000 A 
ATOM     12  C   UNL     1       5.967   4.639  16.989  0.00  0.00    +0.000 A 
ATOM     13 CL   UNL     1       7.174   4.265  15.813  0.00  0.00    +0.000 Cl
ATOM     14  C   UNL     1       6.249   5.381  18.136  0.00  0.00    +0.000 A 
ATOM     15 CL   UNL     1       7.811   6.046  18.462  0.00  0.00    +0.000 Cl
ATOM     16  C   UNL     1       5.239   5.635  19.065  0.00  0.00    +0.000 A 
ENDBRANCH   2   9
BRANCH   6  17
ATOM     17  C   UNL     1       0.017   9.836  19.337  0.00  0.00    +0.000 C 
BRANCH  17  18
ATOM     18  N   UNL     1      -0.010  10.782  18.229  0.00  0.00    +0.000 NA
ATOM     19  H   UNL     1      -0.311  10.321  17.369  0.00  0.00    +0.000 HD
BRANCH  18  20
ATOM     20  C   UNL     1      -0.914  11.912  18.467  0.00  0.00    +0.000 C 
BRANCH  20  21
ATOM     21  C   UNL     1      -2.285  11.628  17.904  0.00  0.00    +0.000 A 
ATOM     22  C   UNL     1      -3.424  11.893  18.659  0.00  0.00    +0.000 A 
ATOM     23  C   UNL     1      -4.671  11.647  18.094  0.00  0.00    +0.000 A 
ATOM     24  C   UNL     1      -4.746  11.158  16.795  0.00  0.00    +0.000 A 
ATOM     25  C   UNL     1      -3.561  10.942  16.116  0.00  0.00    +0.000 A 
ATOM     26 CL   UNL     1      -3.561  10.350  14.506  0.00  0.00    +0.000 Cl
ATOM     27  N   UNL     1      -2.337  11.165  16.629  0.00  0.00    +0.000 NA
ENDBRANCH  20  21
ENDBRANCH  18  20
ENDBRANCH  17  18
ENDBRANCH   6  17
TORSDOF 5
ENDMDL
MODEL 9
REMARK VINA RESULT:      -6.9      1.124      1.124
REMARK  Name = 
REMARK  5 active torsions:
REMARK  status: ('A' for Active; 'I' for Inactive)
REMARK    1  A    between atoms: C_2  and  C_3
REMARK    2  A    between atoms: C_14  and  C_15
REMARK    3  A    between atoms: C_15  and  N_16
REMARK    4  A    between atoms: N_16  and  C_17
REMARK    5  A    between atoms: C_17  and  C_18
REMARK                            x       y       z     vdW  Elec       q    Type
REMARK                         _______ _______ _______ _____ _____    ______ ____
ROOT
ATOM      1  O   UNL     1       2.159   8.751  17.344  0.00  0.00    +0.000 OA
ATOM      2  C   UNL     1       2.112   8.349  18.502  0.00  0.00    +0.000 C 
ATOM      3  N   UNL     1       1.561   9.102  19.542  0.00  0.00    +0.000 N 
ATOM      4  C   UNL     1       1.594   8.803  20.973  0.00  0.00    +0.000 C 
ATOM      5  C   UNL     1       0.168   8.572  21.471  0.00  0.00    +0.000 C 
ATOM      6  C   UNL     1      -0.742   9.776  21.164  0.00  0.00    +0.000 C 
ATOM      7  C   UNL     1      -0.637  10.153  19.669  0.00  0.00    +0.000 C 
ATOM      8  C   UNL     1       0.810  10.311  19.207  0.00  0.00    +0.000 C 
ENDROOT
BRANCH   2   9
ATOM      9  C   UNL     1       2.671   6.992  18.751  0.00  0.00    +0.000 A 
ATOM     10  C   UNL     1       3.701   6.533  17.926  0.00  0.00    +0.000 A 
ATOM     11  C   UNL     1       4.249   5.258  18.125  0.00  0.00    +0.000 A 
ATOM     12  C   UNL     1       3.783   4.449  19.166  0.00  0.00    +0.000 A 
ATOM     13 CL   UNL     1       4.532   2.912  19.398  0.00  0.00    +0.000 Cl
ATOM     14  C   UNL     1       2.733   4.895  19.969  0.00  0.00    +0.000 A 
ATOM     15 CL   UNL     1       2.123   3.985  21.306  0.00  0.00    +0.000 Cl
ATOM     16  C   UNL     1       2.149   6.138  19.722  0.00  0.00    +0.000 A 
ENDBRANCH   2   9
BRANCH   6  17
ATOM     17  C   UNL     1      -0.420  10.945  22.122  0.00  0.00    +0.000 C 
BRANCH  17  18
ATOM     18  N   UNL     1      -1.394  11.178  23.183  0.00  0.00    +0.000 NA
ATOM     19  H   UNL     1      -0.996  10.943  24.093  0.00  0.00    +0.000 HD
BRANCH  18  20
ATOM     20  C   UNL     1      -1.847  12.571  23.242  0.00  0.00    +0.000 C 
BRANCH  20  21
ATOM     21  C   UNL     1      -3.345  12.654  23.076  0.00  0.00    +0.000 A 
ATOM     22  C   UNL     1      -4.172  12.760  24.191  0.00  0.00    +0.000 A 
ATOM     23  C   UNL     1      -5.544  12.865  23.996  0.00  0.00    +0.000 A 
ATOM     24  C   UNL     1      -6.050  12.874  22.701  0.00  0.00    +0.000 A 
ATOM     25  C   UNL     1      -5.150  12.781  21.655  0.00  0.00    +0.000 A 
ATOM     26 CL   UNL     1      -5.686  12.795  20.026  0.00  0.00    +0.000 Cl
ATOM     27  N   UNL     1      -3.817  12.675  21.803  0.00  0.00    +0.000 NA
ENDBRANCH  20  21
ENDBRANCH  18  20
ENDBRANCH  17  18
ENDBRANCH   6  17
TORSDOF 5
ENDMDL
