MODEL 1
REMARK VINA RESULT:      -5.7      0.000      0.000
REMARK  Name = 
REMARK  4 active torsions:
REMARK  status: ('A' for Active; 'I' for Inactive)
REMARK    1  A    between atoms: C_1  and  N_2
REMARK    2  A    between atoms: C_3  and  O_5
REMARK    3  A    between atoms: O_5  and  C_6
REMARK    4  A    between atoms: C_9  and  C_10
REMARK                            x       y       z     vdW  Elec       q    Type
REMARK                         _______ _______ _______ _____ _____    ______ ____
ROOT
ATOM      1  C   UNL     1       3.401   3.649  17.508  0.00  0.00    +0.000 A 
ATOM      2  C   UNL     1       3.363   2.355  18.027  0.00  0.00    +0.000 A 
ATOM      3  C   UNL     1       2.641   2.105  19.198  0.00  0.00    +0.000 A 
ATOM      4  C   UNL     1       1.975   3.157  19.839  0.00  0.00    +0.000 A 
ATOM      5  C   UNL     1       2.029   4.454  19.325  0.00  0.00    +0.000 A 
ATOM      6  C   UNL     1       2.758   4.702  18.164  0.00  0.00    +0.000 A 
ENDROOT
BRANCH   4   7
ATOM      7  C   UNL     1       1.214   2.915  21.082  0.00  0.00    +0.000 C 
ATOM      8  O   UNL     1       1.759   2.580  22.124  0.00  0.00    +0.000 OA
ENDBRANCH   4   7
BRANCH   1   9
ATOM      9  O   UNL     1       4.213   3.870  16.379  0.00  0.00    +0.000 OA
BRANCH   9  12
ATOM     10  C   UNL     1       7.505   4.680  17.617  0.00  0.00    +0.000 C 
ATOM     11  N   UNL     1       6.327   4.005  17.145  0.00  0.00    +0.000 N 
ATOM     12  C   UNL     1       5.321   4.694  16.528  0.00  0.00    +0.000 C 
ATOM     13  O   UNL     1       5.390   5.873  16.206  0.00  0.00    +0.000 OA
ATOM     14  H   UNL     1       6.126   3.056  17.430  0.00  0.00    +0.000 HD
ENDBRANCH   9  12
ENDBRANCH   1   9
TORSDOF 3
ENDMDL
MODEL 2
REMARK VINA RESULT:      -5.7      2.433      5.181
REMARK  Name = 
REMARK  4 active torsions:
REMARK  status: ('A' for Active; 'I' for Inactive)
REMARK    1  A    between atoms: C_1  and  N_2
REMARK    2  A    between atoms: C_3  and  O_5
REMARK    3  A    between atoms: O_5  and  C_6
REMARK    4  A    between atoms: C_9  and  C_10
REMARK                            x       y       z     vdW  Elec       q    Type
REMARK                         _______ _______ _______ _____ _____    ______ ____
ROOT
ATOM      1  C   UNL     1       2.757   4.646  17.732  0.00  0.00    +0.000 A 
ATOM      2  C   UNL     1       3.538   3.646  17.152  0.00  0.00    +0.000 A 
ATOM      3  C   UNL     1       4.857   3.930  16.786  0.00  0.00    +0.000 A 
ATOM      4  C   UNL     1       5.374   5.214  16.996  0.00  0.00    +0.000 A 
ATOM      5  C   UNL     1       4.584   6.216  17.562  0.00  0.00    +0.000 A 
ATOM      6  C   UNL     1       3.266   5.934  17.917  0.00  0.00    +0.000 A 
ENDROOT
BRANCH   4   7
ATOM      7  C   UNL     1       6.762   5.536  16.608  0.00  0.00    +0.000 C 
ATOM      8  O   UNL     1       7.606   4.669  16.427  0.00  0.00    +0.000 OA
ENDBRANCH   4   7
BRANCH   1   9
ATOM      9  O   UNL     1       1.410   4.340  18.002  0.00  0.00    +0.000 OA
BRANCH   9  12
ATOM     10  C   UNL     1       1.426   2.895  21.309  0.00  0.00    +0.000 C 
ATOM     11  N   UNL     1       1.406   3.792  20.187  0.00  0.00    +0.000 N 
ATOM     12  C   UNL     1       1.145   3.337  18.925  0.00  0.00    +0.000 C 
ATOM     13  O   UNL     1       0.779   2.197  18.667  0.00  0.00    +0.000 OA
ATOM     14  H   UNL     1       1.775   4.730  20.269  0.00  0.00    +0.000 HD
ENDBRANCH   9  12
ENDBRANCH   1   9
TORSDOF 3
ENDMDL
MODEL 3
REMARK VINA RESULT:      -5.6      2.375      5.385
REMARK  Name = 
REMARK  4 active torsions:
REMARK  status: ('A' for Active; 'I' for Inactive)
REMARK    1  A    between atoms: C_1  and  N_2
REMARK    2  A    between atoms: C_3  and  O_5
REMARK    3  A    between atoms: O_5  and  C_6
REMARK    4  A    between atoms: C_9  and  C_10
REMARK                            x       y       z     vdW  Elec       q    Type
REMARK                         _______ _______ _______ _____ _____    ______ ____
ROOT
ATOM      1  C   UNL     1       2.778   4.619  17.696  0.00  0.00    +0.000 A 
ATOM      2  C   UNL     1       3.369   5.845  18.001  0.00  0.00    +0.000 A 
ATOM      3  C   UNL     1       4.720   6.051  17.702  0.00  0.00    +0.000 A 
ATOM      4  C   UNL     1       5.463   5.022  17.111  0.00  0.00    +0.000 A 
ATOM      5  C   UNL     1       4.872   3.791  16.821  0.00  0.00    +0.000 A 
ATOM      6  C   UNL     1       3.528   3.585  17.129  0.00  0.00    +0.000 A 
ENDROOT
BRANCH   4   7
ATOM      7  C   UNL     1       6.893   5.216  16.795  0.00  0.00    +0.000 C 
ATOM      8  O   UNL     1       7.264   5.887  15.842  0.00  0.00    +0.000 OA
ENDBRANCH   4   7
BRANCH   1   9
ATOM      9  O   UNL     1       1.443   4.427  18.096  0.00  0.00    +0.000 OA
BRANCH   9  12
ATOM     10  C   UNL     1       1.432   2.837  21.335  0.00  0.00    +0.000 C 
ATOM     11  N   UNL     1       1.421   3.783  20.254  0.00  0.00    +0.000 N 
ATOM     12  C   UNL     1       1.171   3.384  18.971  0.00  0.00    +0.000 C 
ATOM     13  O   UNL     1       0.809   2.257  18.659  0.00  0.00    +0.000 OA
ATOM     14  H   UNL     1       1.788   4.717  20.381  0.00  0.00    +0.000 HD
ENDBRANCH   9  12
ENDBRANCH   1   9
TORSDOF 3
ENDMDL
MODEL 4
REMARK VINA RESULT:      -5.6      2.473      5.812
REMARK  Name = 
REMARK  4 active torsions:
REMARK  status: ('A' for Active; 'I' for Inactive)
REMARK    1  A    between atoms: C_1  and  N_2
REMARK    2  A    between atoms: C_3  and  O_5
REMARK    3  A    between atoms: O_5  and  C_6
REMARK    4  A    between atoms: C_9  and  C_10
REMARK                            x       y       z     vdW  Elec       q    Type
REMARK                         _______ _______ _______ _____ _____    ______ ____
ROOT
ATOM      1  C   UNL     1       5.394   4.450  18.177  0.00  0.00    +0.000 A 
ATOM      2  C   UNL     1       4.538   4.286  17.088  0.00  0.00    +0.000 A 
ATOM      3  C   UNL     1       5.051   4.390  15.791  0.00  0.00    +0.000 A 
ATOM      4  C   UNL     1       6.410   4.667  15.602  0.00  0.00    +0.000 A 
ATOM      5  C   UNL     1       7.260   4.846  16.695  0.00  0.00    +0.000 A 
ATOM      6  C   UNL     1       6.745   4.752  17.987  0.00  0.00    +0.000 A 
ENDROOT
BRANCH   4   7
ATOM      7  C   UNL     1       6.969   4.789  14.240  0.00  0.00    +0.000 C 
ATOM      8  O   UNL     1       7.919   5.517  13.989  0.00  0.00    +0.000 OA
ENDBRANCH   4   7
BRANCH   1   9
ATOM      9  O   UNL     1       4.817   4.426  19.461  0.00  0.00    +0.000 OA
BRANCH   9  12
ATOM     10  C   UNL     1       2.017   2.562  20.769  0.00  0.00    +0.000 C 
ATOM     11  N   UNL     1       2.859   3.535  20.130  0.00  0.00    +0.000 N 
ATOM     12  C   UNL     1       4.171   3.263  19.860  0.00  0.00    +0.000 C 
ATOM     13  O   UNL     1       4.689   2.163  20.002  0.00  0.00    +0.000 OA
ATOM     14  H   UNL     1       2.564   4.499  20.047  0.00  0.00    +0.000 HD
ENDBRANCH   9  12
ENDBRANCH   1   9
TORSDOF 3
ENDMDL
MODEL 5
REMARK VINA RESULT:      -5.5      1.787      2.107
REMARK  Name = 
REMARK  4 active torsions:
REMARK  status: ('A' for Active; 'I' for Inactive)
REMARK    1  A    between atoms: C_1  and  N_2
REMARK    2  A    between atoms: C_3  and  O_5
REMARK    3  A    between atoms: O_5  and  C_6
REMARK    4  A    between atoms: C_9  and  C_10
REMARK                            x       y       z     vdW  Elec       q    Type
REMARK                         _______ _______ _______ _____ _____    ______ ____
ROOT
ATOM      1  C   UNL     1       4.260   4.984  17.113  0.00  0.00    +0.000 A 
ATOM      2  C   UNL     1       4.126   3.599  17.018  0.00  0.00    +0.000 A 
ATOM      3  C   UNL     1       3.025   2.972  17.612  0.00  0.00    +0.000 A 
ATOM      4  C   UNL     1       2.079   3.740  18.301  0.00  0.00    +0.000 A 
ATOM      5  C   UNL     1       2.225   5.124  18.408  0.00  0.00    +0.000 A 
ATOM      6  C   UNL     1       3.328   5.745  17.824  0.00  0.00    +0.000 A 
ENDROOT
BRANCH   4   7
ATOM      7  C   UNL     1       0.914   3.097  18.942  0.00  0.00    +0.000 C 
ATOM      8  O   UNL     1       0.323   2.159  18.426  0.00  0.00    +0.000 OA
ENDBRANCH   4   7
BRANCH   1   9
ATOM      9  O   UNL     1       5.428   5.559  16.578  0.00  0.00    +0.000 OA
BRANCH   9  12
ATOM     10  C   UNL     1       7.901   5.817  19.194  0.00  0.00    +0.000 C 
ATOM     11  N   UNL     1       6.681   5.798  18.435  0.00  0.00    +0.000 N 
ATOM     12  C   UNL     1       6.639   5.250  17.183  0.00  0.00    +0.000 C 
ATOM     13  O   UNL     1       7.560   4.625  16.674  0.00  0.00    +0.000 OA
ATOM     14  H   UNL     1       5.887   6.356  18.718  0.00  0.00    +0.000 HD
ENDBRANCH   9  12
ENDBRANCH   1   9
TORSDOF 3
ENDMDL
MODEL 6
REMARK VINA RESULT:      -5.5      2.501      5.786
REMARK  Name = 
REMARK  4 active torsions:
REMARK  status: ('A' for Active; 'I' for Inactive)
REMARK    1  A    between atoms: C_1  and  N_2
REMARK    2  A    between atoms: C_3  and  O_5
REMARK    3  A    between atoms: O_5  and  C_6
REMARK    4  A    between atoms: C_9  and  C_10
REMARK                            x       y       z     vdW  Elec       q    Type
REMARK                         _______ _______ _______ _____ _____    ______ ____
ROOT
ATOM      1  C   UNL     1       5.258   4.683  18.137  0.00  0.00    +0.000 A 
ATOM      2  C   UNL     1       6.642   4.825  18.026  0.00  0.00    +0.000 A 
ATOM      3  C   UNL     1       7.232   4.828  16.758  0.00  0.00    +0.000 A 
ATOM      4  C   UNL     1       6.431   4.679  15.620  0.00  0.00    +0.000 A 
ATOM      5  C   UNL     1       5.049   4.520  15.736  0.00  0.00    +0.000 A 
ATOM      6  C   UNL     1       4.464   4.507  17.002  0.00  0.00    +0.000 A 
ENDROOT
BRANCH   4   7
ATOM      7  C   UNL     1       7.036   4.671  14.272  0.00  0.00    +0.000 C 
ATOM      8  O   UNL     1       7.866   5.499  13.927  0.00  0.00    +0.000 OA
ENDBRANCH   4   7
BRANCH   1   9
ATOM      9  O   UNL     1       4.720   4.596  19.435  0.00  0.00    +0.000 OA
BRANCH   9  12
ATOM     10  C   UNL     1       2.089   2.564  20.840  0.00  0.00    +0.000 C 
ATOM     11  N   UNL     1       2.848   3.598  20.193  0.00  0.00    +0.000 N 
ATOM     12  C   UNL     1       4.146   3.391  19.820  0.00  0.00    +0.000 C 
ATOM     13  O   UNL     1       4.713   2.307  19.871  0.00  0.00    +0.000 OA
ATOM     14  H   UNL     1       2.513   4.552  20.178  0.00  0.00    +0.000 HD
ENDBRANCH   9  12
ENDBRANCH   1   9
TORSDOF 3
ENDMDL
MODEL 7
REMARK VINA RESULT:      -5.4      2.377      5.460
REMARK  Name = 
REMARK  4 active torsions:
REMARK  status: ('A' for Active; 'I' for Inactive)
REMARK    1  A    between atoms: C_1  and  N_2
REMARK    2  A    between atoms: C_3  and  O_5
REMARK    3  A    between atoms: O_5  and  C_6
REMARK    4  A    between atoms: C_9  and  C_10
REMARK                            x       y       z     vdW  Elec       q    Type
REMARK                         _______ _______ _______ _____ _____    ______ ____
ROOT
ATOM      1  C   UNL     1       2.972   4.811  17.815  0.00  0.00    +0.000 A 
ATOM      2  C   UNL     1       3.523   6.090  17.730  0.00  0.00    +0.000 A 
ATOM      3  C   UNL     1       4.743   6.270  17.070  0.00  0.00    +0.000 A 
ATOM      4  C   UNL     1       5.399   5.166  16.512  0.00  0.00    +0.000 A 
ATOM      5  C   UNL     1       4.852   3.885  16.613  0.00  0.00    +0.000 A 
ATOM      6  C   UNL     1       3.642   3.707  17.281  0.00  0.00    +0.000 A 
ENDROOT
BRANCH   4   7
ATOM      7  C   UNL     1       6.692   5.334  15.819  0.00  0.00    +0.000 C 
ATOM      8  O   UNL     1       7.482   6.218  16.119  0.00  0.00    +0.000 OA
ENDBRANCH   4   7
BRANCH   1   9
ATOM      9  O   UNL     1       1.790   4.664  18.565  0.00  0.00    +0.000 OA
BRANCH   9  12
ATOM     10  C   UNL     1       1.429   2.665  21.548  0.00  0.00    +0.000 C 
ATOM     11  N   UNL     1       1.597   3.123  20.196  0.00  0.00    +0.000 N 
ATOM     12  C   UNL     1       1.912   4.426  19.928  0.00  0.00    +0.000 C 
ATOM     13  O   UNL     1       2.207   5.252  20.781  0.00  0.00    +0.000 OA
ATOM     14  H   UNL     1       1.296   2.553  19.417  0.00  0.00    +0.000 HD
ENDBRANCH   9  12
ENDBRANCH   1   9
TORSDOF 3
ENDMDL
MODEL 8
REMARK VINA RESULT:      -5.4      2.431      5.273
REMARK  Name = 
REMARK  4 active torsions:
REMARK  status: ('A' for Active; 'I' for Inactive)
REMARK    1  A    between atoms: C_1  and  N_2
REMARK    2  A    between atoms: C_3  and  O_5
REMARK    3  A    between atoms: O_5  and  C_6
REMARK    4  A    between atoms: C_9  and  C_10
REMARK                            x       y       z     vdW  Elec       q    Type
REMARK                         _______ _______ _______ _____ _____    ______ ____
ROOT
ATOM      1  C   UNL     1       3.112   4.901  17.853  0.00  0.00    +0.000 A 
ATOM      2  C   UNL     1       3.595   3.776  17.185  0.00  0.00    +0.000 A 
ATOM      3  C   UNL     1       4.816   3.852  16.506  0.00  0.00    +0.000 A 
ATOM      4  C   UNL     1       5.530   5.056  16.496  0.00  0.00    +0.000 A 
ATOM      5  C   UNL     1       5.034   6.185  17.152  0.00  0.00    +0.000 A 
ATOM      6  C   UNL     1       3.813   6.110  17.820  0.00  0.00    +0.000 A 
ENDROOT
BRANCH   4   7
ATOM      7  C   UNL     1       6.816   5.160  15.777  0.00  0.00    +0.000 C 
ATOM      8  O   UNL     1       7.835   4.620  16.185  0.00  0.00    +0.000 OA
ENDBRANCH   4   7
BRANCH   1   9
ATOM      9  O   UNL     1       1.839   4.804  18.446  0.00  0.00    +0.000 OA
BRANCH   9  12
ATOM     10  C   UNL     1       1.388   2.812  21.422  0.00  0.00    +0.000 C 
ATOM     11  N   UNL     1       1.685   3.276  20.095  0.00  0.00    +0.000 N 
ATOM     12  C   UNL     1       1.777   4.612  19.820  0.00  0.00    +0.000 C 
ATOM     13  O   UNL     1       1.757   5.493  20.671  0.00  0.00    +0.000 OA
ATOM     14  H   UNL     1       1.637   2.648  19.304  0.00  0.00    +0.000 HD
ENDBRANCH   9  12
ENDBRANCH   1   9
TORSDOF 3
ENDMDL
MODEL 9
REMARK VINA RESULT:      -5.4      2.837      3.812
REMARK  Name = 
REMARK  4 active torsions:
REMARK  status: ('A' for Active; 'I' for Inactive)
REMARK    1  A    between atoms: C_1  and  N_2
REMARK    2  A    between atoms: C_3  and  O_5
REMARK    3  A    between atoms: O_5  and  C_6
REMARK    4  A    between atoms: C_9  and  C_10
REMARK                            x       y       z     vdW  Elec       q    Type
REMARK                         _______ _______ _______ _____ _____    ______ ____
ROOT
ATOM      1  C   UNL     1       5.945   5.068  16.192  0.00  0.00    +0.000 A 
ATOM      2  C   UNL     1       5.198   4.053  16.791  0.00  0.00    +0.000 A 
ATOM      3  C   UNL     1       4.066   4.384  17.541  0.00  0.00    +0.000 A 
ATOM      4  C   UNL     1       3.701   5.727  17.690  0.00  0.00    +0.000 A 
ATOM      5  C   UNL     1       4.460   6.741  17.103  0.00  0.00    +0.000 A 
ATOM      6  C   UNL     1       5.594   6.410  16.364  0.00  0.00    +0.000 A 
ENDROOT
BRANCH   4   7
ATOM      7  C   UNL     1       2.513   6.099  18.485  0.00  0.00    +0.000 C 
ATOM      8  O   UNL     1       2.593   6.420  19.663  0.00  0.00    +0.000 OA
ENDBRANCH   4   7
BRANCH   1   9
ATOM      9  O   UNL     1       7.125   4.694  15.523  0.00  0.00    +0.000 OA
BRANCH   9  12
ATOM     10  C   UNL     1       6.383   3.401  12.236  0.00  0.00    +0.000 C 
ATOM     11  N   UNL     1       6.373   3.716  13.638  0.00  0.00    +0.000 N 
ATOM     12  C   UNL     1       7.126   4.742  14.135  0.00  0.00    +0.000 C 
ATOM     13  O   UNL     1       7.741   5.543  13.442  0.00  0.00    +0.000 OA
ATOM     14  H   UNL     1       5.973   3.073  14.309  0.00  0.00    +0.000 HD
ENDBRANCH   9  12
ENDBRANCH   1   9
TORSDOF 3
ENDMDL
