MODEL 1
REMARK VINA RESULT:      -5.7      0.000      0.000
REMARK  Name = 
REMARK  8 active torsions:
REMARK  status: ('A' for Active; 'I' for Inactive)
REMARK    1  A    between atoms: C_1  and  C_2
REMARK    2  A    between atoms: C_2  and  O_3
REMARK    3  A    between atoms: O_3  and  C_4
REMARK    4  A    between atoms: C_4  and  C_5
REMARK    5  A    between atoms: C_11  and  C_12
REMARK    6  A    between atoms: N_14  and  C_15
REMARK    7  A    between atoms: N_14  and  C_16
REMARK    8  A    between atoms: C_16  and  C_17
REMARK                            x       y       z     vdW  Elec       q    Type
REMARK                         _______ _______ _______ _____ _____    ______ ____
ROOT
ATOM      1  C   UNL     1       2.604   6.101  19.849  0.00  0.00    +0.000 C 
ATOM      2  O   UNL     1       1.740   6.801  20.378  0.00  0.00    +0.000 OA
ATOM      3  N   UNL     1       2.690   4.734  20.120  0.00  0.00    +0.000 N 
ATOM      4  C   UNL     1       1.769   4.241  21.115  0.00  0.00    +0.000 C 
ATOM      5  S   UNL     1       2.235   2.539  21.427  0.00  0.00    +0.000 S 
ATOM      6  C   UNL     1       2.851   2.304  19.751  0.00  0.00    +0.000 C 
ATOM      7  C   UNL     1       3.161   3.694  19.165  0.00  0.00    +0.000 C 
ENDROOT
BRANCH   7   8
ATOM      8  C   UNL     1       4.660   3.734  18.774  0.00  0.00    +0.000 C 
ATOM      9  O   UNL     1       5.537   3.559  19.624  0.00  0.00    +0.000 OA
ATOM     10  N   UNL     1       4.997   4.028  17.453  0.00  0.00    +0.000 N 
ATOM     11  C   UNL     1       4.087   4.079  16.315  0.00  0.00    +0.000 C 
BRANCH  10  12
ATOM     12  C   UNL     1       6.414   4.221  17.137  0.00  0.00    +0.000 C 
BRANCH  12  13
ATOM     13  C   UNL     1       6.848   5.608  17.434  0.00  0.00    +0.000 A 
ATOM     14  C   UNL     1       6.577   6.825  16.838  0.00  0.00    +0.000 A 
ATOM     15  C   UNL     1       7.348   7.789  17.529  0.00  0.00    +0.000 A 
ATOM     16  C   UNL     1       8.029   7.104  18.507  0.00  0.00    +0.000 A 
ATOM     17  O   UNL     1       7.732   5.779  18.460  0.00  0.00    +0.000 OA
ENDBRANCH  12  13
ENDBRANCH  10  12
ENDBRANCH   7   8
BRANCH   1  18
ATOM     18  C   UNL     1       3.695   6.700  18.942  0.00  0.00    +0.000 C 
BRANCH  18  19
ATOM     19  O   UNL     1       3.257   7.208  17.687  0.00  0.00    +0.000 OA
BRANCH  19  21
ATOM     20  C   UNL     1       1.537   8.884  17.680  0.00  0.00    +0.000 C 
ATOM     21  C   UNL     1       3.023   8.615  17.778  0.00  0.00    +0.000 C 
ENDBRANCH  19  21
ENDBRANCH  18  19
ENDBRANCH   1  18
TORSDOF 6
ENDMDL
MODEL 2
REMARK VINA RESULT:      -5.7      3.174      5.167
REMARK  Name = 
REMARK  8 active torsions:
REMARK  status: ('A' for Active; 'I' for Inactive)
REMARK    1  A    between atoms: C_1  and  C_2
REMARK    2  A    between atoms: C_2  and  O_3
REMARK    3  A    between atoms: O_3  and  C_4
REMARK    4  A    between atoms: C_4  and  C_5
REMARK    5  A    between atoms: C_11  and  C_12
REMARK    6  A    between atoms: N_14  and  C_15
REMARK    7  A    between atoms: N_14  and  C_16
REMARK    8  A    between atoms: C_16  and  C_17
REMARK                            x       y       z     vdW  Elec       q    Type
REMARK                         _______ _______ _______ _____ _____    ______ ____
ROOT
ATOM      1  C   UNL     1       6.760   5.606  18.812  0.00  0.00    +0.000 C 
ATOM      2  O   UNL     1       7.070   5.366  19.980  0.00  0.00    +0.000 OA
ATOM      3  N   UNL     1       5.698   4.939  18.197  0.00  0.00    +0.000 N 
ATOM      4  C   UNL     1       5.072   3.908  18.989  0.00  0.00    +0.000 C 
ATOM      5  S   UNL     1       3.913   3.078  17.903  0.00  0.00    +0.000 S 
ATOM      6  C   UNL     1       3.619   4.564  16.929  0.00  0.00    +0.000 C 
ATOM      7  C   UNL     1       4.815   5.511  17.144  0.00  0.00    +0.000 C 
ENDROOT
BRANCH   7   8
ATOM      8  C   UNL     1       5.467   5.792  15.766  0.00  0.00    +0.000 C 
ATOM      9  O   UNL     1       5.311   6.881  15.208  0.00  0.00    +0.000 OA
ATOM     10  N   UNL     1       6.186   4.770  15.147  0.00  0.00    +0.000 N 
ATOM     11  C   UNL     1       6.603   3.511  15.752  0.00  0.00    +0.000 C 
BRANCH  10  12
ATOM     12  C   UNL     1       6.657   4.999  13.779  0.00  0.00    +0.000 C 
BRANCH  12  13
ATOM     13  C   UNL     1       6.112   3.983  12.845  0.00  0.00    +0.000 A 
ATOM     14  C   UNL     1       4.826   3.632  12.484  0.00  0.00    +0.000 A 
ATOM     15  C   UNL     1       4.943   2.531  11.604  0.00  0.00    +0.000 A 
ATOM     16  C   UNL     1       6.290   2.288  11.474  0.00  0.00    +0.000 A 
ATOM     17  O   UNL     1       7.010   3.165  12.223  0.00  0.00    +0.000 OA
ENDBRANCH  12  13
ENDBRANCH  10  12
ENDBRANCH   7   8
BRANCH   1  18
ATOM     18  C   UNL     1       7.576   6.571  17.934  0.00  0.00    +0.000 C 
BRANCH  18  19
ATOM     19  O   UNL     1       8.305   7.580  18.622  0.00  0.00    +0.000 OA
BRANCH  19  21
ATOM     20  C   UNL     1       8.952   9.892  18.700  0.00  0.00    +0.000 C 
ATOM     21  C   UNL     1       8.165   8.836  17.954  0.00  0.00    +0.000 C 
ENDBRANCH  19  21
ENDBRANCH  18  19
ENDBRANCH   1  18
TORSDOF 6
ENDMDL
MODEL 3
REMARK VINA RESULT:      -5.6      3.019      6.108
REMARK  Name = 
REMARK  8 active torsions:
REMARK  status: ('A' for Active; 'I' for Inactive)
REMARK    1  A    between atoms: C_1  and  C_2
REMARK    2  A    between atoms: C_2  and  O_3
REMARK    3  A    between atoms: O_3  and  C_4
REMARK    4  A    between atoms: C_4  and  C_5
REMARK    5  A    between atoms: C_11  and  C_12
REMARK    6  A    between atoms: N_14  and  C_15
REMARK    7  A    between atoms: N_14  and  C_16
REMARK    8  A    between atoms: C_16  and  C_17
REMARK                            x       y       z     vdW  Elec       q    Type
REMARK                         _______ _______ _______ _____ _____    ______ ____
ROOT
ATOM      1  C   UNL     1       6.651   4.975  15.178  0.00  0.00    +0.000 C 
ATOM      2  O   UNL     1       7.559   5.334  14.426  0.00  0.00    +0.000 OA
ATOM      3  N   UNL     1       6.644   5.343  16.525  0.00  0.00    +0.000 N 
ATOM      4  C   UNL     1       7.802   6.077  16.972  0.00  0.00    +0.000 C 
ATOM      5  S   UNL     1       7.644   6.225  18.752  0.00  0.00    +0.000 S 
ATOM      6  C   UNL     1       5.844   6.219  18.684  0.00  0.00    +0.000 C 
ATOM      7  C   UNL     1       5.426   5.576  17.348  0.00  0.00    +0.000 C 
ENDROOT
BRANCH   7   8
ATOM      8  C   UNL     1       4.547   4.338  17.658  0.00  0.00    +0.000 C 
ATOM      9  O   UNL     1       5.046   3.212  17.722  0.00  0.00    +0.000 OA
ATOM     10  N   UNL     1       3.172   4.517  17.806  0.00  0.00    +0.000 N 
ATOM     11  C   UNL     1       2.469   5.789  17.935  0.00  0.00    +0.000 C 
BRANCH  10  12
ATOM     12  C   UNL     1       2.338   3.321  17.937  0.00  0.00    +0.000 C 
BRANCH  12  13
ATOM     13  C   UNL     1       2.020   3.038  19.359  0.00  0.00    +0.000 A 
ATOM     14  C   UNL     1       0.859   3.141  20.100  0.00  0.00    +0.000 A 
ATOM     15  C   UNL     1       1.201   2.801  21.430  0.00  0.00    +0.000 A 
ATOM     16  C   UNL     1       2.543   2.502  21.414  0.00  0.00    +0.000 A 
ATOM     17  O   UNL     1       3.050   2.641  20.161  0.00  0.00    +0.000 OA
ENDBRANCH  12  13
ENDBRANCH  10  12
ENDBRANCH   7   8
BRANCH   1  18
ATOM     18  C   UNL     1       5.532   4.027  14.711  0.00  0.00    +0.000 C 
BRANCH  18  19
ATOM     19  O   UNL     1       4.983   4.291  13.425  0.00  0.00    +0.000 OA
BRANCH  19  21
ATOM     20  C   UNL     1       4.434   3.122  11.400  0.00  0.00    +0.000 C 
ATOM     21  C   UNL     1       5.479   3.350  12.471  0.00  0.00    +0.000 C 
ENDBRANCH  19  21
ENDBRANCH  18  19
ENDBRANCH   1  18
TORSDOF 6
ENDMDL
MODEL 4
REMARK VINA RESULT:      -5.5      1.919      5.368
REMARK  Name = 
REMARK  8 active torsions:
REMARK  status: ('A' for Active; 'I' for Inactive)
REMARK    1  A    between atoms: C_1  and  C_2
REMARK    2  A    between atoms: C_2  and  O_3
REMARK    3  A    between atoms: O_3  and  C_4
REMARK    4  A    between atoms: C_4  and  C_5
REMARK    5  A    between atoms: C_11  and  C_12
REMARK    6  A    between atoms: N_14  and  C_15
REMARK    7  A    between atoms: N_14  and  C_16
REMARK    8  A    between atoms: C_16  and  C_17
REMARK                            x       y       z     vdW  Elec       q    Type
REMARK                         _______ _______ _______ _____ _____    ______ ____
ROOT
ATOM      1  C   UNL     1       4.661   3.875  19.520  0.00  0.00    +0.000 C 
ATOM      2  O   UNL     1       5.311   2.863  19.790  0.00  0.00    +0.000 OA
ATOM      3  N   UNL     1       3.265   3.853  19.509  0.00  0.00    +0.000 N 
ATOM      4  C   UNL     1       2.664   2.561  19.740  0.00  0.00    +0.000 C 
ATOM      5  S   UNL     1       0.907   2.769  19.455  0.00  0.00    +0.000 S 
ATOM      6  C   UNL     1       0.933   4.492  19.980  0.00  0.00    +0.000 C 
ATOM      7  C   UNL     1       2.381   4.999  19.855  0.00  0.00    +0.000 C 
ENDROOT
BRANCH   7   8
ATOM      8  C   UNL     1       2.393   6.206  18.883  0.00  0.00    +0.000 C 
ATOM      9  O   UNL     1       2.659   6.048  17.688  0.00  0.00    +0.000 OA
ATOM     10  N   UNL     1       2.152   7.480  19.397  0.00  0.00    +0.000 N 
ATOM     11  C   UNL     1       1.654   7.799  20.730  0.00  0.00    +0.000 C 
BRANCH  10  12
ATOM     12  C   UNL     1       2.326   8.622  18.499  0.00  0.00    +0.000 C 
BRANCH  12  13
ATOM     13  C   UNL     1       1.181   9.562  18.595  0.00  0.00    +0.000 A 
ATOM     14  C   UNL     1      -0.062   9.594  17.993  0.00  0.00    +0.000 A 
ATOM     15  C   UNL     1      -0.686  10.787  18.427  0.00  0.00    +0.000 A 
ATOM     16  C   UNL     1       0.208  11.400  19.272  0.00  0.00    +0.000 A 
ATOM     17  O   UNL     1       1.345  10.664  19.383  0.00  0.00    +0.000 OA
ENDBRANCH  12  13
ENDBRANCH  10  12
ENDBRANCH   7   8
BRANCH   1  18
ATOM     18  C   UNL     1       5.338   5.187  19.086  0.00  0.00    +0.000 C 
BRANCH  18  19
ATOM     19  O   UNL     1       6.597   5.470  19.685  0.00  0.00    +0.000 OA
BRANCH  19  21
ATOM     20  C   UNL     1       7.107   6.543  17.598  0.00  0.00    +0.000 C 
ATOM     21  C   UNL     1       7.604   5.609  18.680  0.00  0.00    +0.000 C 
ENDBRANCH  19  21
ENDBRANCH  18  19
ENDBRANCH   1  18
TORSDOF 6
ENDMDL
MODEL 5
REMARK VINA RESULT:      -5.5      2.419      4.884
REMARK  Name = 
REMARK  8 active torsions:
REMARK  status: ('A' for Active; 'I' for Inactive)
REMARK    1  A    between atoms: C_1  and  C_2
REMARK    2  A    between atoms: C_2  and  O_3
REMARK    3  A    between atoms: O_3  and  C_4
REMARK    4  A    between atoms: C_4  and  C_5
REMARK    5  A    between atoms: C_11  and  C_12
REMARK    6  A    between atoms: N_14  and  C_15
REMARK    7  A    between atoms: N_14  and  C_16
REMARK    8  A    between atoms: C_16  and  C_17
REMARK                            x       y       z     vdW  Elec       q    Type
REMARK                         _______ _______ _______ _____ _____    ______ ____
ROOT
ATOM      1  C   UNL     1       3.747   7.092  17.520  0.00  0.00    +0.000 C 
ATOM      2  O   UNL     1       3.324   8.040  16.857  0.00  0.00    +0.000 OA
ATOM      3  N   UNL     1       4.742   6.249  17.020  0.00  0.00    +0.000 N 
ATOM      4  C   UNL     1       5.154   6.516  15.663  0.00  0.00    +0.000 C 
ATOM      5  S   UNL     1       6.255   5.178  15.203  0.00  0.00    +0.000 S 
ATOM      6  C   UNL     1       6.829   4.947  16.894  0.00  0.00    +0.000 C 
ATOM      7  C   UNL     1       5.771   5.549  17.837  0.00  0.00    +0.000 C 
ENDROOT
BRANCH   7   8
ATOM      8  C   UNL     1       5.266   4.430  18.782  0.00  0.00    +0.000 C 
ATOM      9  O   UNL     1       5.647   4.378  19.955  0.00  0.00    +0.000 OA
ATOM     10  N   UNL     1       4.418   3.452  18.264  0.00  0.00    +0.000 N 
ATOM     11  C   UNL     1       3.748   3.479  16.969  0.00  0.00    +0.000 C 
BRANCH  10  12
ATOM     12  C   UNL     1       4.081   2.316  19.125  0.00  0.00    +0.000 C 
BRANCH  12  13
ATOM     13  C   UNL     1       2.866   2.593  19.932  0.00  0.00    +0.000 A 
ATOM     14  C   UNL     1       1.580   2.968  19.594  0.00  0.00    +0.000 A 
ATOM     15  C   UNL     1       0.886   3.157  20.812  0.00  0.00    +0.000 A 
ATOM     16  C   UNL     1       1.786   2.875  21.813  0.00  0.00    +0.000 A 
ATOM     17  O   UNL     1       2.992   2.529  21.289  0.00  0.00    +0.000 OA
ENDBRANCH  12  13
ENDBRANCH  10  12
ENDBRANCH   7   8
BRANCH   1  18
ATOM     18  C   UNL     1       3.144   6.719  18.886  0.00  0.00    +0.000 C 
BRANCH  18  19
ATOM     19  O   UNL     1       2.220   7.649  19.439  0.00  0.00    +0.000 OA
BRANCH  19  21
ATOM     20  C   UNL     1       0.907   8.262  21.354  0.00  0.00    +0.000 C 
ATOM     21  C   UNL     1       1.737   7.179  20.699  0.00  0.00    +0.000 C 
ENDBRANCH  19  21
ENDBRANCH  18  19
ENDBRANCH   1  18
TORSDOF 6
ENDMDL
MODEL 6
REMARK VINA RESULT:      -5.4      2.815      4.290
REMARK  Name = 
REMARK  8 active torsions:
REMARK  status: ('A' for Active; 'I' for Inactive)
REMARK    1  A    between atoms: C_1  and  C_2
REMARK    2  A    between atoms: C_2  and  O_3
REMARK    3  A    between atoms: O_3  and  C_4
REMARK    4  A    between atoms: C_4  and  C_5
REMARK    5  A    between atoms: C_11  and  C_12
REMARK    6  A    between atoms: N_14  and  C_15
REMARK    7  A    between atoms: N_14  and  C_16
REMARK    8  A    between atoms: C_16  and  C_17
REMARK                            x       y       z     vdW  Elec       q    Type
REMARK                         _______ _______ _______ _____ _____    ______ ____
ROOT
ATOM      1  C   UNL     1       3.223   4.573  19.952  0.00  0.00    +0.000 C 
ATOM      2  O   UNL     1       2.601   4.661  21.011  0.00  0.00    +0.000 OA
ATOM      3  N   UNL     1       3.245   5.629  19.039  0.00  0.00    +0.000 N 
ATOM      4  C   UNL     1       2.425   6.764  19.385  0.00  0.00    +0.000 C 
ATOM      5  S   UNL     1       2.460   7.858  17.966  0.00  0.00    +0.000 S 
ATOM      6  C   UNL     1       4.114   7.333  17.486  0.00  0.00    +0.000 C 
ATOM      7  C   UNL     1       4.375   5.957  18.126  0.00  0.00    +0.000 C 
ENDROOT
BRANCH   7   8
ATOM      8  C   UNL     1       4.672   4.941  16.994  0.00  0.00    +0.000 C 
ATOM      9  O   UNL     1       3.751   4.410  16.367  0.00  0.00    +0.000 OA
ATOM     10  N   UNL     1       5.999   4.599  16.737  0.00  0.00    +0.000 N 
ATOM     11  C   UNL     1       7.186   5.264  17.261  0.00  0.00    +0.000 C 
BRANCH  10  12
ATOM     12  C   UNL     1       6.252   3.522  15.777  0.00  0.00    +0.000 C 
BRANCH  12  13
ATOM     13  C   UNL     1       6.634   4.063  14.449  0.00  0.00    +0.000 A 
ATOM     14  C   UNL     1       6.285   3.716  13.158  0.00  0.00    +0.000 A 
ATOM     15  C   UNL     1       7.038   4.553  12.302  0.00  0.00    +0.000 A 
ATOM     16  C   UNL     1       7.788   5.363  13.121  0.00  0.00    +0.000 A 
ATOM     17  O   UNL     1       7.549   5.075  14.428  0.00  0.00    +0.000 OA
ENDBRANCH  12  13
ENDBRANCH  10  12
ENDBRANCH   7   8
BRANCH   1  18
ATOM     18  C   UNL     1       3.926   3.271  19.525  0.00  0.00    +0.000 C 
BRANCH  18  19
ATOM     19  O   UNL     1       3.107   2.295  18.892  0.00  0.00    +0.000 OA
BRANCH  19  21
ATOM     20  C   UNL     1       0.711   2.363  18.739  0.00  0.00    +0.000 C 
ATOM     21  C   UNL     1       1.902   2.101  19.636  0.00  0.00    +0.000 C 
ENDBRANCH  19  21
ENDBRANCH  18  19
ENDBRANCH   1  18
TORSDOF 6
ENDMDL
MODEL 7
REMARK VINA RESULT:      -5.4      1.910      5.443
REMARK  Name = 
REMARK  8 active torsions:
REMARK  status: ('A' for Active; 'I' for Inactive)
REMARK    1  A    between atoms: C_1  and  C_2
REMARK    2  A    between atoms: C_2  and  O_3
REMARK    3  A    between atoms: O_3  and  C_4
REMARK    4  A    between atoms: C_4  and  C_5
REMARK    5  A    between atoms: C_11  and  C_12
REMARK    6  A    between atoms: N_14  and  C_15
REMARK    7  A    between atoms: N_14  and  C_16
REMARK    8  A    between atoms: C_16  and  C_17
REMARK                            x       y       z     vdW  Elec       q    Type
REMARK                         _______ _______ _______ _____ _____    ______ ____
ROOT
ATOM      1  C   UNL     1       4.670   3.909  19.403  0.00  0.00    +0.000 C 
ATOM      2  O   UNL     1       5.322   2.909  19.709  0.00  0.00    +0.000 OA
ATOM      3  N   UNL     1       3.290   3.960  19.608  0.00  0.00    +0.000 N 
ATOM      4  C   UNL     1       2.692   2.745  20.106  0.00  0.00    +0.000 C 
ATOM      5  S   UNL     1       0.920   3.007  20.067  0.00  0.00    +0.000 S 
ATOM      6  C   UNL     1       1.083   4.780  20.335  0.00  0.00    +0.000 C 
ATOM      7  C   UNL     1       2.510   5.188  19.921  0.00  0.00    +0.000 C 
ENDROOT
BRANCH   7   8
ATOM      8  C   UNL     1       2.406   6.252  18.799  0.00  0.00    +0.000 C 
ATOM      9  O   UNL     1       2.563   5.937  17.617  0.00  0.00    +0.000 OA
ATOM     10  N   UNL     1       2.186   7.582  19.158  0.00  0.00    +0.000 N 
ATOM     11  C   UNL     1       1.807   8.074  20.478  0.00  0.00    +0.000 C 
BRANCH  10  12
ATOM     12  C   UNL     1       2.252   8.594  18.102  0.00  0.00    +0.000 C 
BRANCH  12  13
ATOM     13  C   UNL     1       1.212   9.636  18.290  0.00  0.00    +0.000 A 
ATOM     14  C   UNL     1       1.219  10.867  18.919  0.00  0.00    +0.000 A 
ATOM     15  C   UNL     1      -0.101  11.367  18.831  0.00  0.00    +0.000 A 
ATOM     16  C   UNL     1      -0.825  10.420  18.146  0.00  0.00    +0.000 A 
ATOM     17  O   UNL     1      -0.036   9.365  17.811  0.00  0.00    +0.000 OA
ENDBRANCH  12  13
ENDBRANCH  10  12
ENDBRANCH   7   8
BRANCH   1  18
ATOM     18  C   UNL     1       5.312   5.113  18.691  0.00  0.00    +0.000 C 
BRANCH  18  19
ATOM     19  O   UNL     1       6.110   4.816  17.552  0.00  0.00    +0.000 OA
BRANCH  19  21
ATOM     20  C   UNL     1       7.751   5.950  18.889  0.00  0.00    +0.000 C 
ATOM     21  C   UNL     1       7.496   4.833  17.900  0.00  0.00    +0.000 C 
ENDBRANCH  19  21
ENDBRANCH  18  19
ENDBRANCH   1  18
TORSDOF 6
ENDMDL
MODEL 8
REMARK VINA RESULT:      -5.3      2.542      5.946
REMARK  Name = 
REMARK  8 active torsions:
REMARK  status: ('A' for Active; 'I' for Inactive)
REMARK    1  A    between atoms: C_1  and  C_2
REMARK    2  A    between atoms: C_2  and  O_3
REMARK    3  A    between atoms: O_3  and  C_4
REMARK    4  A    between atoms: C_4  and  C_5
REMARK    5  A    between atoms: C_11  and  C_12
REMARK    6  A    between atoms: N_14  and  C_15
REMARK    7  A    between atoms: N_14  and  C_16
REMARK    8  A    between atoms: C_16  and  C_17
REMARK                            x       y       z     vdW  Elec       q    Type
REMARK                         _______ _______ _______ _____ _____    ______ ____
ROOT
ATOM      1  C   UNL     1       4.839   3.773  16.676  0.00  0.00    +0.000 C 
ATOM      2  O   UNL     1       5.294   3.052  15.786  0.00  0.00    +0.000 OA
ATOM      3  N   UNL     1       5.468   4.971  17.024  0.00  0.00    +0.000 N 
ATOM      4  C   UNL     1       6.711   5.239  16.342  0.00  0.00    +0.000 C 
ATOM      5  S   UNL     1       7.405   6.695  17.123  0.00  0.00    +0.000 S 
ATOM      6  C   UNL     1       5.783   7.359  17.536  0.00  0.00    +0.000 C 
ATOM      7  C   UNL     1       4.781   6.190  17.528  0.00  0.00    +0.000 C 
ENDROOT
BRANCH   7   8
ATOM      8  C   UNL     1       4.133   6.095  18.933  0.00  0.00    +0.000 C 
ATOM      9  O   UNL     1       4.726   5.542  19.863  0.00  0.00    +0.000 OA
ATOM     10  N   UNL     1       2.843   6.597  19.108  0.00  0.00    +0.000 N 
ATOM     11  C   UNL     1       2.098   7.426  18.168  0.00  0.00    +0.000 C 
BRANCH  10  12
ATOM     12  C   UNL     1       2.186   6.355  20.394  0.00  0.00    +0.000 C 
BRANCH  12  13
ATOM     13  C   UNL     1       1.782   4.934  20.534  0.00  0.00    +0.000 A 
ATOM     14  C   UNL     1       0.965   4.111  19.782  0.00  0.00    +0.000 A 
ATOM     15  C   UNL     1       0.906   2.874  20.465  0.00  0.00    +0.000 A 
ATOM     16  C   UNL     1       1.697   3.015  21.580  0.00  0.00    +0.000 A 
ATOM     17  O   UNL     1       2.236   4.262  21.631  0.00  0.00    +0.000 OA
ENDBRANCH  12  13
ENDBRANCH  10  12
ENDBRANCH   7   8
BRANCH   1  18
ATOM     18  C   UNL     1       3.620   3.358  17.518  0.00  0.00    +0.000 C 
BRANCH  18  19
ATOM     19  O   UNL     1       3.237   1.990  17.435  0.00  0.00    +0.000 OA
BRANCH  19  21
ATOM     20  C   UNL     1       4.308   2.138  19.579  0.00  0.00    +0.000 C 
ATOM     21  C   UNL     1       3.906   1.226  18.440  0.00  0.00    +0.000 C 
ENDBRANCH  19  21
ENDBRANCH  18  19
ENDBRANCH   1  18
TORSDOF 6
ENDMDL
MODEL 9
REMARK VINA RESULT:      -5.3      1.007      1.153
REMARK  Name = 
REMARK  8 active torsions:
REMARK  status: ('A' for Active; 'I' for Inactive)
REMARK    1  A    between atoms: C_1  and  C_2
REMARK    2  A    between atoms: C_2  and  O_3
REMARK    3  A    between atoms: O_3  and  C_4
REMARK    4  A    between atoms: C_4  and  C_5
REMARK    5  A    between atoms: C_11  and  C_12
REMARK    6  A    between atoms: N_14  and  C_15
REMARK    7  A    between atoms: N_14  and  C_16
REMARK    8  A    between atoms: C_16  and  C_17
REMARK                            x       y       z     vdW  Elec       q    Type
REMARK                         _______ _______ _______ _____ _____    ______ ____
ROOT
ATOM      1  C   UNL     1       2.647   5.833  19.503  0.00  0.00    +0.000 C 
ATOM      2  O   UNL     1       1.725   6.410  20.080  0.00  0.00    +0.000 OA
ATOM      3  N   UNL     1       2.613   4.453  19.289  0.00  0.00    +0.000 N 
ATOM      4  C   UNL     1       1.484   3.765  19.868  0.00  0.00    +0.000 C 
ATOM      5  S   UNL     1       1.797   2.015  19.643  0.00  0.00    +0.000 S 
ATOM      6  C   UNL     1       2.735   2.283  18.129  0.00  0.00    +0.000 C 
ATOM      7  C   UNL     1       3.223   3.744  18.131  0.00  0.00    +0.000 C 
ENDROOT
BRANCH   7   8
ATOM      8  C   UNL     1       4.770   3.741  18.054  0.00  0.00    +0.000 C 
ATOM      9  O   UNL     1       5.449   3.410  19.030  0.00  0.00    +0.000 OA
ATOM     10  N   UNL     1       5.380   4.173  16.876  0.00  0.00    +0.000 N 
ATOM     11  C   UNL     1       4.724   4.418  15.597  0.00  0.00    +0.000 C 
BRANCH  10  12
ATOM     12  C   UNL     1       6.837   4.316  16.875  0.00  0.00    +0.000 C 
BRANCH  12  13
ATOM     13  C   UNL     1       7.248   5.645  17.392  0.00  0.00    +0.000 A 
ATOM     14  C   UNL     1       7.747   6.065  18.610  0.00  0.00    +0.000 A 
ATOM     15  C   UNL     1       7.876   7.471  18.526  0.00  0.00    +0.000 A 
ATOM     16  C   UNL     1       7.460   7.818  17.262  0.00  0.00    +0.000 A 
ATOM     17  O   UNL     1       7.079   6.716  16.564  0.00  0.00    +0.000 OA
ENDBRANCH  12  13
ENDBRANCH  10  12
ENDBRANCH   7   8
BRANCH   1  18
ATOM     18  C   UNL     1       3.928   6.570  19.073  0.00  0.00    +0.000 C 
BRANCH  18  19
ATOM     19  O   UNL     1       3.878   7.232  17.814  0.00  0.00    +0.000 OA
BRANCH  19  21
ATOM     20  C   UNL     1       1.882   8.546  17.572  0.00  0.00    +0.000 C 
ATOM     21  C   UNL     1       3.343   8.548  17.967  0.00  0.00    +0.000 C 
ENDBRANCH  19  21
ENDBRANCH  18  19
ENDBRANCH   1  18
TORSDOF 6
ENDMDL
