MODEL 1
REMARK VINA RESULT:      -8.2      0.000      0.000
REMARK  Name = 
REMARK  3 active torsions:
REMARK  status: ('A' for Active; 'I' for Inactive)
REMARK    1  A    between atoms: C_1  and  C_2
REMARK    2  A    between atoms: C_8  and  C_9
REMARK    3  A    between atoms: C_12  and  N_13
REMARK                            x       y       z     vdW  Elec       q    Type
REMARK                         _______ _______ _______ _____ _____    ______ ____
ROOT
ATOM      1  C   UNL     1       1.367   9.486  18.873  0.00  0.00    +0.000 A 
ATOM      2  C   UNL     1       1.330   8.737  20.054  0.00  0.00    +0.000 A 
ATOM      3  C   UNL     1       1.949   7.489  20.121  0.00  0.00    +0.000 A 
ATOM      4  C   UNL     1       2.648   6.994  19.015  0.00  0.00    +0.000 A 
ATOM      5  C   UNL     1       2.682   7.730  17.827  0.00  0.00    +0.000 A 
ATOM      6  C   UNL     1       2.037   8.968  17.755  0.00  0.00    +0.000 A 
ENDROOT
BRANCH   1  14
ATOM      7  C   UNL     1      -1.484  10.293  17.815  0.00  0.00    +0.000 C 
ATOM      8  C   UNL     1      -0.746  11.012  18.952  0.00  0.00    +0.000 C 
ATOM      9  C   UNL     1      -1.214  12.458  19.054  0.00  0.00    +0.000 C 
ATOM     10  C   UNL     1      -0.173  13.518  18.854  0.00  0.00    +0.000 C 
ATOM     11  O   UNL     1      -0.455  14.712  18.925  0.00  0.00    +0.000 OA
ATOM     12  N   UNL     1       1.097  13.113  18.586  0.00  0.00    +0.000 N 
ATOM     13  N   UNL     1       1.573  11.852  18.597  0.00  0.00    +0.000 NA
ATOM     14  C   UNL     1       0.762  10.858  18.792  0.00  0.00    +0.000 C 
ATOM     15  H   UNL     1       1.790  13.850  18.482  0.00  0.00    +0.000 HD
ENDBRANCH   1  14
BRANCH   4  16
ATOM     16  N   UNL     1       3.327   5.759  19.122  0.00  0.00    +0.000 N 
ATOM     17  C   UNL     1       4.697   5.590  19.205  0.00  0.00    +0.000 A 
ATOM     18  N   UNL     1       5.055   4.327  19.301  0.00  0.00    +0.000 NA
ATOM     19  C   UNL     1       3.882   3.637  19.251  0.00  0.00    +0.000 A 
ATOM     20  C   UNL     1       2.803   4.486  19.122  0.00  0.00    +0.000 A 
ATOM     21  C   UNL     1       1.400   4.048  18.884  0.00  0.00    +0.000 C 
ATOM     22  C   UNL     1       1.387   2.572  18.440  0.00  0.00    +0.000 C 
ATOM     23  C   UNL     1       2.320   1.705  19.310  0.00  0.00    +0.000 C 
ATOM     24  C   UNL     1       3.789   2.155  19.205  0.00  0.00    +0.000 C 
ENDBRANCH   4  16
TORSDOF 2
ENDMDL
MODEL 2
REMARK VINA RESULT:      -8.0      0.637      1.189
REMARK  Name = 
REMARK  3 active torsions:
REMARK  status: ('A' for Active; 'I' for Inactive)
REMARK    1  A    between atoms: C_1  and  C_2
REMARK    2  A    between atoms: C_8  and  C_9
REMARK    3  A    between atoms: C_12  and  N_13
REMARK                            x       y       z     vdW  Elec       q    Type
REMARK                         _______ _______ _______ _____ _____    ______ ____
ROOT
ATOM      1  C   UNL     1       1.250   9.510  19.112  0.00  0.00    +0.000 A 
ATOM      2  C   UNL     1       1.877   9.137  17.920  0.00  0.00    +0.000 A 
ATOM      3  C   UNL     1       2.572   7.930  17.832  0.00  0.00    +0.000 A 
ATOM      4  C   UNL     1       2.609   7.063  18.930  0.00  0.00    +0.000 A 
ATOM      5  C   UNL     1       1.994   7.433  20.130  0.00  0.00    +0.000 A 
ATOM      6  C   UNL     1       1.324   8.656  20.221  0.00  0.00    +0.000 A 
ENDROOT
BRANCH   1  14
ATOM      7  C   UNL     1      -1.534  10.158  17.795  0.00  0.00    +0.000 C 
ATOM      8  C   UNL     1      -1.075  10.691  19.158  0.00  0.00    +0.000 C 
ATOM      9  C   UNL     1      -1.781  12.003  19.477  0.00  0.00    +0.000 C 
ATOM     10  C   UNL     1      -0.908  13.207  19.667  0.00  0.00    +0.000 C 
ATOM     11  O   UNL     1      -1.387  14.307  19.935  0.00  0.00    +0.000 OA
ATOM     12  N   UNL     1       0.434  13.042  19.531  0.00  0.00    +0.000 N 
ATOM     13  N   UNL     1       1.103  11.884  19.362  0.00  0.00    +0.000 NA
ATOM     14  C   UNL     1       0.446  10.775  19.216  0.00  0.00    +0.000 C 
ATOM     15  H   UNL     1       1.006  13.867  19.694  0.00  0.00    +0.000 HD
ENDBRANCH   1  14
BRANCH   4  16
ATOM     16  N   UNL     1       3.258   5.814  18.803  0.00  0.00    +0.000 N 
ATOM     17  C   UNL     1       4.592   5.620  18.494  0.00  0.00    +0.000 A 
ATOM     18  N   UNL     1       4.929   4.349  18.444  0.00  0.00    +0.000 NA
ATOM     19  C   UNL     1       3.772   3.680  18.702  0.00  0.00    +0.000 A 
ATOM     20  C   UNL     1       2.721   4.550  18.907  0.00  0.00    +0.000 A 
ATOM     21  C   UNL     1       1.297   4.145  19.057  0.00  0.00    +0.000 C 
ATOM     22  C   UNL     1       1.123   2.687  18.587  0.00  0.00    +0.000 C 
ATOM     23  C   UNL     1       2.238   1.773  19.133  0.00  0.00    +0.000 C 
ATOM     24  C   UNL     1       3.631   2.203  18.636  0.00  0.00    +0.000 C 
ENDBRANCH   4  16
TORSDOF 2
ENDMDL
MODEL 3
REMARK VINA RESULT:      -7.8      0.935      1.405
REMARK  Name = 
REMARK  3 active torsions:
REMARK  status: ('A' for Active; 'I' for Inactive)
REMARK    1  A    between atoms: C_1  and  C_2
REMARK    2  A    between atoms: C_8  and  C_9
REMARK    3  A    between atoms: C_12  and  N_13
REMARK                            x       y       z     vdW  Elec       q    Type
REMARK                         _______ _______ _______ _____ _____    ______ ____
ROOT
ATOM      1  C   UNL     1       1.291   9.846  18.999  0.00  0.00    +0.000 A 
ATOM      2  C   UNL     1       1.965   9.345  17.882  0.00  0.00    +0.000 A 
ATOM      3  C   UNL     1       2.573   8.090  17.924  0.00  0.00    +0.000 A 
ATOM      4  C   UNL     1       2.475   7.304  19.077  0.00  0.00    +0.000 A 
ATOM      5  C   UNL     1       1.812   7.800  20.203  0.00  0.00    +0.000 A 
ATOM      6  C   UNL     1       1.229   9.070  20.166  0.00  0.00    +0.000 A 
ENDROOT
BRANCH   1  14
ATOM      7  C   UNL     1      -1.644  10.444  18.033  0.00  0.00    +0.000 C 
ATOM      8  C   UNL     1      -0.933  11.198  19.165  0.00  0.00    +0.000 C 
ATOM      9  C   UNL     1      -1.511  12.600  19.309  0.00  0.00    +0.000 C 
ATOM     10  C   UNL     1      -0.563  13.742  19.103  0.00  0.00    +0.000 C 
ATOM     11  O   UNL     1      -0.935  14.909  19.207  0.00  0.00    +0.000 OA
ATOM     12  N   UNL     1       0.728  13.445  18.794  0.00  0.00    +0.000 N 
ATOM     13  N   UNL     1       1.301  12.225  18.767  0.00  0.00    +0.000 NA
ATOM     14  C   UNL     1       0.577  11.166  18.962  0.00  0.00    +0.000 C 
ATOM     15  H   UNL     1       1.357  14.236  18.688  0.00  0.00    +0.000 HD
ENDBRANCH   1  14
BRANCH   4  16
ATOM     16  N   UNL     1       3.037   6.007  19.079  0.00  0.00    +0.000 N 
ATOM     17  C   UNL     1       4.053   5.561  18.253  0.00  0.00    +0.000 A 
ATOM     18  N   UNL     1       4.383   4.307  18.475  0.00  0.00    +0.000 NA
ATOM     19  C   UNL     1       3.537   3.902  19.462  0.00  0.00    +0.000 A 
ATOM     20  C   UNL     1       2.683   4.917  19.842  0.00  0.00    +0.000 A 
ATOM     21  C   UNL     1       1.540   4.760  20.782  0.00  0.00    +0.000 C 
ATOM     22  C   UNL     1       1.227   3.262  20.970  0.00  0.00    +0.000 C 
ATOM     23  C   UNL     1       2.509   2.432  21.183  0.00  0.00    +0.000 C 
ATOM     24  C   UNL     1       3.454   2.508  19.969  0.00  0.00    +0.000 C 
ENDBRANCH   4  16
TORSDOF 2
ENDMDL
MODEL 4
REMARK VINA RESULT:      -7.7      2.768      3.761
REMARK  Name = 
REMARK  3 active torsions:
REMARK  status: ('A' for Active; 'I' for Inactive)
REMARK    1  A    between atoms: C_1  and  C_2
REMARK    2  A    between atoms: C_8  and  C_9
REMARK    3  A    between atoms: C_12  and  N_13
REMARK                            x       y       z     vdW  Elec       q    Type
REMARK                         _______ _______ _______ _____ _____    ______ ____
ROOT
ATOM      1  C   UNL     1       1.320   8.561  20.161  0.00  0.00    +0.000 A 
ATOM      2  C   UNL     1       1.637   8.782  18.817  0.00  0.00    +0.000 A 
ATOM      3  C   UNL     1       2.320   7.814  18.081  0.00  0.00    +0.000 A 
ATOM      4  C   UNL     1       2.657   6.593  18.675  0.00  0.00    +0.000 A 
ATOM      5  C   UNL     1       2.354   6.367  20.021  0.00  0.00    +0.000 A 
ATOM      6  C   UNL     1       1.695   7.351  20.762  0.00  0.00    +0.000 A 
ENDROOT
BRANCH   1  14
ATOM      7  C   UNL     1       1.243  11.689  19.825  0.00  0.00    +0.000 C 
ATOM      8  C   UNL     1       0.050  10.837  20.278  0.00  0.00    +0.000 C 
ATOM      9  C   UNL     1      -0.904  11.670  21.125  0.00  0.00    +0.000 C 
ATOM     10  C   UNL     1      -1.131  11.207  22.532  0.00  0.00    +0.000 C 
ATOM     11  O   UNL     1      -1.889  11.810  23.288  0.00  0.00    +0.000 OA
ATOM     12  N   UNL     1      -0.466  10.096  22.948  0.00  0.00    +0.000 N 
ATOM     13  N   UNL     1       0.295   9.272  22.201  0.00  0.00    +0.000 NA
ATOM     14  C   UNL     1       0.533   9.561  20.959  0.00  0.00    +0.000 C 
ATOM     15  H   UNL     1      -0.659   9.787  23.897  0.00  0.00    +0.000 HD
ENDBRANCH   1  14
BRANCH   4  16
ATOM     16  N   UNL     1       3.288   5.596  17.896  0.00  0.00    +0.000 N 
ATOM     17  C   UNL     1       2.801   4.324  17.657  0.00  0.00    +0.000 A 
ATOM     18  N   UNL     1       3.594   3.604  16.893  0.00  0.00    +0.000 NA
ATOM     19  C   UNL     1       4.655   4.420  16.642  0.00  0.00    +0.000 A 
ATOM     20  C   UNL     1       4.508   5.644  17.260  0.00  0.00    +0.000 A 
ATOM     21  C   UNL     1       5.554   6.701  17.316  0.00  0.00    +0.000 C 
ATOM     22  C   UNL     1       6.917   6.100  16.919  0.00  0.00    +0.000 C 
ATOM     23  C   UNL     1       6.805   5.202  15.671  0.00  0.00    +0.000 C 
ATOM     24  C   UNL     1       5.876   3.997  15.909  0.00  0.00    +0.000 C 
ENDBRANCH   4  16
TORSDOF 2
ENDMDL
MODEL 5
REMARK VINA RESULT:      -7.6      1.485      1.985
REMARK  Name = 
REMARK  3 active torsions:
REMARK  status: ('A' for Active; 'I' for Inactive)
REMARK    1  A    between atoms: C_1  and  C_2
REMARK    2  A    between atoms: C_8  and  C_9
REMARK    3  A    between atoms: C_12  and  N_13
REMARK                            x       y       z     vdW  Elec       q    Type
REMARK                         _______ _______ _______ _____ _____    ______ ____
ROOT
ATOM      1  C   UNL     1       1.141   9.561  19.241  0.00  0.00    +0.000 A 
ATOM      2  C   UNL     1       1.600   9.310  17.944  0.00  0.00    +0.000 A 
ATOM      3  C   UNL     1       2.306   8.143  17.655  0.00  0.00    +0.000 A 
ATOM      4  C   UNL     1       2.526   7.192  18.657  0.00  0.00    +0.000 A 
ATOM      5  C   UNL     1       2.081   7.438  19.960  0.00  0.00    +0.000 A 
ATOM      6  C   UNL     1       1.398   8.622  20.251  0.00  0.00    +0.000 A 
ENDROOT
BRANCH   1  14
ATOM      7  C   UNL     1       1.996  12.582  19.032  0.00  0.00    +0.000 C 
ATOM      8  C   UNL     1       0.573  12.065  18.784  0.00  0.00    +0.000 C 
ATOM      9  C   UNL     1      -0.445  13.164  19.061  0.00  0.00    +0.000 C 
ATOM     10  C   UNL     1      -1.450  12.893  20.140  0.00  0.00    +0.000 C 
ATOM     11  O   UNL     1      -2.315  13.717  20.428  0.00  0.00    +0.000 OA
ATOM     12  N   UNL     1      -1.372  11.703  20.793  0.00  0.00    +0.000 N 
ATOM     13  N   UNL     1      -0.562  10.665  20.504  0.00  0.00    +0.000 NA
ATOM     14  C   UNL     1       0.327  10.780  19.567  0.00  0.00    +0.000 C 
ATOM     15  H   UNL     1      -2.082  11.532  21.500  0.00  0.00    +0.000 HD
ENDBRANCH   1  14
BRANCH   4  16
ATOM     16  N   UNL     1       3.183   5.984  18.332  0.00  0.00    +0.000 N 
ATOM     17  C   UNL     1       4.410   5.871  17.703  0.00  0.00    +0.000 A 
ATOM     18  N   UNL     1       4.785   4.622  17.528  0.00  0.00    +0.000 NA
ATOM     19  C   UNL     1       3.758   3.884  18.032  0.00  0.00    +0.000 A 
ATOM     20  C   UNL     1       2.748   4.690  18.516  0.00  0.00    +0.000 A 
ATOM     21  C   UNL     1       1.424   4.204  18.990  0.00  0.00    +0.000 C 
ATOM     22  C   UNL     1       1.210   2.750  18.523  0.00  0.00    +0.000 C 
ATOM     23  C   UNL     1       2.466   1.885  18.750  0.00  0.00    +0.000 C 
ATOM     24  C   UNL     1       3.675   2.404  17.948  0.00  0.00    +0.000 C 
ENDBRANCH   4  16
TORSDOF 2
ENDMDL
MODEL 6
REMARK VINA RESULT:      -7.6      3.101      8.375
REMARK  Name = 
REMARK  3 active torsions:
REMARK  status: ('A' for Active; 'I' for Inactive)
REMARK    1  A    between atoms: C_1  and  C_2
REMARK    2  A    between atoms: C_8  and  C_9
REMARK    3  A    between atoms: C_12  and  N_13
REMARK                            x       y       z     vdW  Elec       q    Type
REMARK                         _______ _______ _______ _____ _____    ______ ____
ROOT
ATOM      1  C   UNL     1       2.307   7.179  19.283  0.00  0.00    +0.000 A 
ATOM      2  C   UNL     1       1.729   7.814  20.386  0.00  0.00    +0.000 A 
ATOM      3  C   UNL     1       1.106   9.054  20.244  0.00  0.00    +0.000 A 
ATOM      4  C   UNL     1       1.021   9.654  18.984  0.00  0.00    +0.000 A 
ATOM      5  C   UNL     1       1.607   9.033  17.876  0.00  0.00    +0.000 A 
ATOM      6  C   UNL     1       2.254   7.803  18.028  0.00  0.00    +0.000 A 
ENDROOT
BRANCH   1  14
ATOM      7  C   UNL     1       1.055   4.563  20.504  0.00  0.00    +0.000 C 
ATOM      8  C   UNL     1       2.034   4.586  19.323  0.00  0.00    +0.000 C 
ATOM      9  C   UNL     1       2.796   3.268  19.243  0.00  0.00    +0.000 C 
ATOM     10  C   UNL     1       4.287   3.345  19.379  0.00  0.00    +0.000 C 
ATOM     11  O   UNL     1       4.986   2.336  19.319  0.00  0.00    +0.000 OA
ATOM     12  N   UNL     1       4.842   4.571  19.573  0.00  0.00    +0.000 N 
ATOM     13  N   UNL     1       4.218   5.765  19.538  0.00  0.00    +0.000 NA
ATOM     14  C   UNL     1       2.930   5.817  19.395  0.00  0.00    +0.000 C 
ATOM     15  H   UNL     1       5.857   4.599  19.632  0.00  0.00    +0.000 HD
ENDBRANCH   1  14
BRANCH   4  16
ATOM     16  N   UNL     1       0.328  10.878  18.846  0.00  0.00    +0.000 N 
ATOM     17  C   UNL     1      -1.031  11.021  18.629  0.00  0.00    +0.000 A 
ATOM     18  N   UNL     1      -1.409  12.279  18.544  0.00  0.00    +0.000 NA
ATOM     19  C   UNL     1      -0.256  12.990  18.680  0.00  0.00    +0.000 A 
ATOM     20  C   UNL     1       0.832  12.159  18.848  0.00  0.00    +0.000 A 
ATOM     21  C   UNL     1       2.251  12.608  18.870  0.00  0.00    +0.000 C 
ATOM     22  C   UNL     1       2.347  14.045  18.318  0.00  0.00    +0.000 C 
ATOM     23  C   UNL     1       1.249  14.956  18.901  0.00  0.00    +0.000 C 
ATOM     24  C   UNL     1      -0.164  14.465  18.533  0.00  0.00    +0.000 C 
ENDBRANCH   4  16
TORSDOF 2
ENDMDL
MODEL 7
REMARK VINA RESULT:      -7.6      1.232      1.234
REMARK  Name = 
REMARK  3 active torsions:
REMARK  status: ('A' for Active; 'I' for Inactive)
REMARK    1  A    between atoms: C_1  and  C_2
REMARK    2  A    between atoms: C_8  and  C_9
REMARK    3  A    between atoms: C_12  and  N_13
REMARK                            x       y       z     vdW  Elec       q    Type
REMARK                         _______ _______ _______ _____ _____    ______ ____
ROOT
ATOM      1  C   UNL     1       1.119   9.566  19.504  0.00  0.00    +0.000 A 
ATOM      2  C   UNL     1       1.359   8.558  20.443  0.00  0.00    +0.000 A 
ATOM      3  C   UNL     1       1.998   7.376  20.065  0.00  0.00    +0.000 A 
ATOM      4  C   UNL     1       2.440   7.209  18.749  0.00  0.00    +0.000 A 
ATOM      5  C   UNL     1       2.195   8.208  17.801  0.00  0.00    +0.000 A 
ATOM      6  C   UNL     1       1.529   9.377  18.177  0.00  0.00    +0.000 A 
ENDROOT
BRANCH   1  14
ATOM      7  C   UNL     1      -1.664  10.727  18.603  0.00  0.00    +0.000 C 
ATOM      8  C   UNL     1      -1.032  10.963  19.982  0.00  0.00    +0.000 C 
ATOM      9  C   UNL     1      -1.542  12.267  20.581  0.00  0.00    +0.000 C 
ATOM     10  C   UNL     1      -0.515  13.318  20.876  0.00  0.00    +0.000 C 
ATOM     11  O   UNL     1      -0.831  14.399  21.368  0.00  0.00    +0.000 OA
ATOM     12  N   UNL     1       0.781  13.037  20.578  0.00  0.00    +0.000 N 
ATOM     13  N   UNL     1       1.286  11.861  20.153  0.00  0.00    +0.000 NA
ATOM     14  C   UNL     1       0.488  10.871  19.895  0.00  0.00    +0.000 C 
ATOM     15  H   UNL     1       1.462  13.755  20.814  0.00  0.00    +0.000 HD
ENDBRANCH   1  14
BRANCH   4  16
ATOM     16  N   UNL     1       3.146   6.036  18.400  0.00  0.00    +0.000 N 
ATOM     17  C   UNL     1       4.382   5.986  17.781  0.00  0.00    +0.000 A 
ATOM     18  N   UNL     1       4.806   4.757  17.578  0.00  0.00    +0.000 NA
ATOM     19  C   UNL     1       3.803   3.968  18.054  0.00  0.00    +0.000 A 
ATOM     20  C   UNL     1       2.760   4.723  18.548  0.00  0.00    +0.000 A 
ATOM     21  C   UNL     1       1.451   4.175  18.996  0.00  0.00    +0.000 C 
ATOM     22  C   UNL     1       1.297   2.726  18.491  0.00  0.00    +0.000 C 
ATOM     23  C   UNL     1       2.583   1.904  18.708  0.00  0.00    +0.000 C 
ATOM     24  C   UNL     1       3.778   2.488  17.932  0.00  0.00    +0.000 C 
ENDBRANCH   4  16
TORSDOF 2
ENDMDL
MODEL 8
REMARK VINA RESULT:      -7.5      2.581      3.024
REMARK  Name = 
REMARK  3 active torsions:
REMARK  status: ('A' for Active; 'I' for Inactive)
REMARK    1  A    between atoms: C_1  and  C_2
REMARK    2  A    between atoms: C_8  and  C_9
REMARK    3  A    between atoms: C_12  and  N_13
REMARK                            x       y       z     vdW  Elec       q    Type
REMARK                         _______ _______ _______ _____ _____    ______ ____
ROOT
ATOM      1  C   UNL     1       0.716   9.474  20.560  0.00  0.00    +0.000 A 
ATOM      2  C   UNL     1       0.990   9.699  19.208  0.00  0.00    +0.000 A 
ATOM      3  C   UNL     1       1.778   8.802  18.486  0.00  0.00    +0.000 A 
ATOM      4  C   UNL     1       2.265   7.645  19.103  0.00  0.00    +0.000 A 
ATOM      5  C   UNL     1       2.005   7.417  20.458  0.00  0.00    +0.000 A 
ATOM      6  C   UNL     1       1.240   8.333  21.184  0.00  0.00    +0.000 A 
ENDROOT
BRANCH   1  14
ATOM      7  C   UNL     1       0.558  12.615  20.431  0.00  0.00    +0.000 C 
ATOM      8  C   UNL     1      -0.640  11.698  20.709  0.00  0.00    +0.000 C 
ATOM      9  C   UNL     1      -1.698  12.440  21.516  0.00  0.00    +0.000 C 
ATOM     10  C   UNL     1      -2.038  11.873  22.861  0.00  0.00    +0.000 C 
ATOM     11  O   UNL     1      -2.885  12.398  23.580  0.00  0.00    +0.000 OA
ATOM     12  N   UNL     1      -1.375  10.755  23.262  0.00  0.00    +0.000 N 
ATOM     13  N   UNL     1      -0.519  10.008  22.537  0.00  0.00    +0.000 NA
ATOM     14  C   UNL     1      -0.177  10.391  21.345  0.00  0.00    +0.000 C 
ATOM     15  H   UNL     1      -1.645  10.374  24.165  0.00  0.00    +0.000 HD
ENDBRANCH   1  14
BRANCH   4  16
ATOM     16  N   UNL     1       3.003   6.713  18.339  0.00  0.00    +0.000 N 
ATOM     17  C   UNL     1       4.034   7.012  17.467  0.00  0.00    +0.000 A 
ATOM     18  N   UNL     1       4.547   5.946  16.891  0.00  0.00    +0.000 NA
ATOM     19  C   UNL     1       3.810   4.909  17.378  0.00  0.00    +0.000 A 
ATOM     20  C   UNL     1       2.840   5.348  18.255  0.00  0.00    +0.000 A 
ATOM     21  C   UNL     1       1.773   4.492  18.840  0.00  0.00    +0.000 C 
ATOM     22  C   UNL     1       1.682   3.169  18.055  0.00  0.00    +0.000 C 
ATOM     23  C   UNL     1       3.076   2.569  17.782  0.00  0.00    +0.000 C 
ATOM     24  C   UNL     1       3.946   3.503  16.919  0.00  0.00    +0.000 C 
ENDBRANCH   4  16
TORSDOF 2
ENDMDL
MODEL 9
REMARK VINA RESULT:      -7.5      2.255      2.723
REMARK  Name = 
REMARK  3 active torsions:
REMARK  status: ('A' for Active; 'I' for Inactive)
REMARK    1  A    between atoms: C_1  and  C_2
REMARK    2  A    between atoms: C_8  and  C_9
REMARK    3  A    between atoms: C_12  and  N_13
REMARK                            x       y       z     vdW  Elec       q    Type
REMARK                         _______ _______ _______ _____ _____    ______ ____
ROOT
ATOM      1  C   UNL     1       0.645   9.620  19.952  0.00  0.00    +0.000 A 
ATOM      2  C   UNL     1       0.957   9.721  18.592  0.00  0.00    +0.000 A 
ATOM      3  C   UNL     1       1.810   8.795  17.991  0.00  0.00    +0.000 A 
ATOM      4  C   UNL     1       2.327   7.732  18.737  0.00  0.00    +0.000 A 
ATOM      5  C   UNL     1       2.030   7.628  20.100  0.00  0.00    +0.000 A 
ATOM      6  C   UNL     1       1.198   8.574  20.705  0.00  0.00    +0.000 A 
ENDROOT
BRANCH   1  14
ATOM      7  C   UNL     1      -0.551   9.464  22.858  0.00  0.00    +0.000 C 
ATOM      8  C   UNL     1      -0.236  10.772  22.120  0.00  0.00    +0.000 C 
ATOM      9  C   UNL     1      -1.118  11.899  22.641  0.00  0.00    +0.000 C 
ATOM     10  C   UNL     1      -2.029  12.553  21.646  0.00  0.00    +0.000 C 
ATOM     11  O   UNL     1      -2.772  13.477  21.972  0.00  0.00    +0.000 OA
ATOM     12  N   UNL     1      -2.009  12.088  20.369  0.00  0.00    +0.000 N 
ATOM     13  N   UNL     1      -1.168  11.174  19.845  0.00  0.00    +0.000 NA
ATOM     14  C   UNL     1      -0.316  10.566  20.611  0.00  0.00    +0.000 C 
ATOM     15  H   UNL     1      -2.615  12.568  19.707  0.00  0.00    +0.000 HD
ENDBRANCH   1  14
BRANCH   4  16
ATOM     16  N   UNL     1       3.134   6.764  18.096  0.00  0.00    +0.000 N 
ATOM     17  C   UNL     1       4.234   7.024  17.298  0.00  0.00    +0.000 A 
ATOM     18  N   UNL     1       4.801   5.932  16.832  0.00  0.00    +0.000 NA
ATOM     19  C   UNL     1       4.032   4.917  17.316  0.00  0.00    +0.000 A 
ATOM     20  C   UNL     1       2.988   5.395  18.080  0.00  0.00    +0.000 A 
ATOM     21  C   UNL     1       1.880   4.563  18.623  0.00  0.00    +0.000 C 
ATOM     22  C   UNL     1       1.866   3.194  17.914  0.00  0.00    +0.000 C 
ATOM     23  C   UNL     1       3.282   2.596  17.796  0.00  0.00    +0.000 C 
ATOM     24  C   UNL     1       4.216   3.488  16.956  0.00  0.00    +0.000 C 
ENDBRANCH   4  16
TORSDOF 2
ENDMDL
