MODEL 1
REMARK VINA RESULT:      -9.6      0.000      0.000
REMARK  Name = 
REMARK  6 active torsions:
REMARK  status: ('A' for Active; 'I' for Inactive)
REMARK    1  A    between atoms: C_1  and  C_2
REMARK    2  A    between atoms: C_2  and  C_3
REMARK    3  A    between atoms: C_3  and  O_4
REMARK    4  A    between atoms: C_20  and  C_21
REMARK    5  A    between atoms: C_21  and  C_22
REMARK    6  A    between atoms: C_22  and  C_23
REMARK                            x       y       z     vdW  Elec       q    Type
REMARK                         _______ _______ _______ _____ _____    ______ ____
ROOT
ATOM      1  C   UNL     1       2.976   3.422  19.667  0.00  0.00    +0.000 C 
ATOM      2  C   UNL     1       4.470   2.930  19.526  0.00  0.00    +0.000 C 
ATOM      3  O   UNL     1       4.861   1.808  19.840  0.00  0.00    +0.000 OA
ATOM      4  O   UNL     1       5.289   3.754  18.832  0.00  0.00    +0.000 OA
ATOM      5  C   UNL     1       5.281   5.118  19.228  0.00  0.00    +0.000 C 
ATOM      6  C   UNL     1       3.941   5.638  19.606  0.00  0.00    +0.000 A 
ATOM      7  C   UNL     1       2.936   4.904  20.134  0.00  0.00    +0.000 A 
ATOM      8  C   UNL     1       1.872   5.717  20.837  0.00  0.00    +0.000 A 
ATOM      9  C   UNL     1       1.639   7.002  20.448  0.00  0.00    +0.000 A 
ATOM     10  N   UNL     1       2.310   7.394  19.293  0.00  0.00    +0.000 N 
ATOM     11  C   UNL     1       3.492   6.854  18.873  0.00  0.00    +0.000 A 
ATOM     12  O   UNL     1       4.134   7.308  17.929  0.00  0.00    +0.000 OA
ATOM     13  C   UNL     1       1.649   8.459  18.591  0.00  0.00    +0.000 C 
ATOM     14  C   UNL     1       0.760   9.001  19.646  0.00  0.00    +0.000 A 
ATOM     15  C   UNL     1       0.050  10.186  19.564  0.00  0.00    +0.000 A 
ATOM     16  C   UNL     1      -0.527  10.722  20.723  0.00  0.00    +0.000 A 
ATOM     17  C   UNL     1      -1.303  11.941  20.671  0.00  0.00    +0.000 A 
ATOM     18  C   UNL     1      -1.678  12.530  21.878  0.00  0.00    +0.000 A 
ATOM     19  C   UNL     1      -1.296  11.940  23.075  0.00  0.00    +0.000 A 
ATOM     20  C   UNL     1      -0.612  10.704  23.089  0.00  0.00    +0.000 A 
ATOM     21  C   UNL     1      -0.247  10.007  21.921  0.00  0.00    +0.000 A 
ATOM     22  N   UNL     1       0.368   8.750  21.964  0.00  0.00    +0.000 NA
ATOM     23  C   UNL     1       0.798   8.227  20.793  0.00  0.00    +0.000 A 
ENDROOT
BRANCH   1  25
ATOM     24  C   UNL     1       1.516   2.469  21.621  0.00  0.00    +0.000 C 
ATOM     25  C   UNL     1       2.218   2.232  20.299  0.00  0.00    +0.000 C 
ENDBRANCH   1  25
BRANCH   1  26
ATOM     26  O   UNL     1       2.488   3.487  18.289  0.00  0.00    +0.000 OA
ATOM     27  H   UNL     1       1.641   3.007  18.257  0.00  0.00    +0.000 HD
ENDBRANCH   1  26
BRANCH  17  28
ATOM     28  C   UNL     1      -1.844  12.496  19.350  0.00  0.00    +0.000 C 
BRANCH  28  29
ATOM     29  C   UNL     1      -3.196  12.005  18.782  0.00  0.00    +0.000 C 
BRANCH  29  30
ATOM     30  C   UNL     1      -3.144  11.233  17.484  0.00  0.00    +0.000 A 
ATOM     31  C   UNL     1      -2.177  10.246  17.242  0.00  0.00    +0.000 A 
ATOM     32  C   UNL     1      -2.140   9.569  16.022  0.00  0.00    +0.000 A 
ATOM     33  C   UNL     1      -3.086   9.846  15.038  0.00  0.00    +0.000 A 
ATOM     34  C   UNL     1      -4.086  10.782  15.285  0.00  0.00    +0.000 A 
ATOM     35  C   UNL     1      -4.120  11.465  16.504  0.00  0.00    +0.000 A 
ENDBRANCH  29  30
ENDBRANCH  28  29
ENDBRANCH  17  28
TORSDOF 5
ENDMDL
MODEL 2
REMARK VINA RESULT:      -9.6      2.186      4.758
REMARK  Name = 
REMARK  6 active torsions:
REMARK  status: ('A' for Active; 'I' for Inactive)
REMARK    1  A    between atoms: C_1  and  C_2
REMARK    2  A    between atoms: C_2  and  C_3
REMARK    3  A    between atoms: C_3  and  O_4
REMARK    4  A    between atoms: C_20  and  C_21
REMARK    5  A    between atoms: C_21  and  C_22
REMARK    6  A    between atoms: C_22  and  C_23
REMARK                            x       y       z     vdW  Elec       q    Type
REMARK                         _______ _______ _______ _____ _____    ______ ____
ROOT
ATOM      1  C   UNL     1       5.279   5.761  17.638  0.00  0.00    +0.000 C 
ATOM      2  C   UNL     1       5.288   4.242  17.203  0.00  0.00    +0.000 C 
ATOM      3  O   UNL     1       6.061   3.765  16.377  0.00  0.00    +0.000 OA
ATOM      4  O   UNL     1       4.520   3.420  17.954  0.00  0.00    +0.000 OA
ATOM      5  C   UNL     1       3.178   3.839  18.162  0.00  0.00    +0.000 C 
ATOM      6  C   UNL     1       3.018   5.303  18.361  0.00  0.00    +0.000 A 
ATOM      7  C   UNL     1       3.820   6.258  17.839  0.00  0.00    +0.000 A 
ATOM      8  C   UNL     1       3.206   7.639  17.805  0.00  0.00    +0.000 A 
ATOM      9  C   UNL     1       2.262   7.980  18.726  0.00  0.00    +0.000 A 
ATOM     10  N   UNL     1       2.074   7.047  19.743  0.00  0.00    +0.000 N 
ATOM     11  C   UNL     1       2.315   5.710  19.610  0.00  0.00    +0.000 A 
ATOM     12  O   UNL     1       2.014   4.888  20.472  0.00  0.00    +0.000 OA
ATOM     13  C   UNL     1       1.563   7.628  20.953  0.00  0.00    +0.000 C 
ATOM     14  C   UNL     1       1.021   8.915  20.457  0.00  0.00    +0.000 A 
ATOM     15  C   UNL     1       0.217   9.778  21.182  0.00  0.00    +0.000 A 
ATOM     16  C   UNL     1      -0.453  10.813  20.518  0.00  0.00    +0.000 A 
ATOM     17  C   UNL     1      -1.276  11.754  21.245  0.00  0.00    +0.000 A 
ATOM     18  C   UNL     1      -2.072  12.631  20.511  0.00  0.00    +0.000 A 
ATOM     19  C   UNL     1      -2.057  12.571  19.124  0.00  0.00    +0.000 A 
ATOM     20  C   UNL     1      -1.178  11.699  18.445  0.00  0.00    +0.000 A 
ATOM     21  C   UNL     1      -0.294  10.823  19.103  0.00  0.00    +0.000 A 
ATOM     22  N   UNL     1       0.616  10.019  18.406  0.00  0.00    +0.000 NA
ATOM     23  C   UNL     1       1.326   9.117  19.123  0.00  0.00    +0.000 A 
ENDROOT
BRANCH   1  25
ATOM     24  C   UNL     1       7.495   7.151  17.504  0.00  0.00    +0.000 C 
ATOM     25  C   UNL     1       6.375   6.432  16.779  0.00  0.00    +0.000 C 
ENDBRANCH   1  25
BRANCH   1  26
ATOM     26  O   UNL     1       5.824   5.749  18.996  0.00  0.00    +0.000 OA
ATOM     27  H   UNL     1       5.073   5.810  19.613  0.00  0.00    +0.000 HD
ENDBRANCH   1  26
BRANCH  17  28
ATOM     28  C   UNL     1      -1.169  11.909  22.765  0.00  0.00    +0.000 C 
BRANCH  28  29
ATOM     29  C   UNL     1      -1.704  13.178  23.469  0.00  0.00    +0.000 C 
BRANCH  29  30
ATOM     30  C   UNL     1      -3.204  13.294  23.606  0.00  0.00    +0.000 A 
ATOM     31  C   UNL     1      -3.953  12.400  24.385  0.00  0.00    +0.000 A 
ATOM     32  C   UNL     1      -5.341  12.519  24.470  0.00  0.00    +0.000 A 
ATOM     33  C   UNL     1      -5.998  13.550  23.804  0.00  0.00    +0.000 A 
ATOM     34  C   UNL     1      -5.263  14.479  23.072  0.00  0.00    +0.000 A 
ATOM     35  C   UNL     1      -3.874  14.357  22.981  0.00  0.00    +0.000 A 
ENDBRANCH  29  30
ENDBRANCH  28  29
ENDBRANCH  17  28
TORSDOF 5
ENDMDL
MODEL 3
REMARK VINA RESULT:      -9.5      2.209      5.205
REMARK  Name = 
REMARK  6 active torsions:
REMARK  status: ('A' for Active; 'I' for Inactive)
REMARK    1  A    between atoms: C_1  and  C_2
REMARK    2  A    between atoms: C_2  and  C_3
REMARK    3  A    between atoms: C_3  and  O_4
REMARK    4  A    between atoms: C_20  and  C_21
REMARK    5  A    between atoms: C_21  and  C_22
REMARK    6  A    between atoms: C_22  and  C_23
REMARK                            x       y       z     vdW  Elec       q    Type
REMARK                         _______ _______ _______ _____ _____    ______ ____
ROOT
ATOM      1  C   UNL     1       5.374   5.725  17.525  0.00  0.00    +0.000 C 
ATOM      2  C   UNL     1       5.376   4.234  17.004  0.00  0.00    +0.000 C 
ATOM      3  O   UNL     1       6.177   3.788  16.187  0.00  0.00    +0.000 OA
ATOM      4  O   UNL     1       4.558   3.387  17.671  0.00  0.00    +0.000 OA
ATOM      5  C   UNL     1       3.216   3.821  17.842  0.00  0.00    +0.000 C 
ATOM      6  C   UNL     1       3.074   5.275  18.119  0.00  0.00    +0.000 A 
ATOM      7  C   UNL     1       3.918   6.241  17.688  0.00  0.00    +0.000 A 
ATOM      8  C   UNL     1       3.331   7.634  17.707  0.00  0.00    +0.000 A 
ATOM      9  C   UNL     1       2.352   7.942  18.603  0.00  0.00    +0.000 A 
ATOM     10  N   UNL     1       2.101   6.957  19.555  0.00  0.00    +0.000 N 
ATOM     11  C   UNL     1       2.323   5.625  19.356  0.00  0.00    +0.000 A 
ATOM     12  O   UNL     1       1.967   4.762  20.155  0.00  0.00    +0.000 OA
ATOM     13  C   UNL     1       1.545   7.479  20.772  0.00  0.00    +0.000 C 
ATOM     14  C   UNL     1       1.050   8.803  20.327  0.00  0.00    +0.000 A 
ATOM     15  C   UNL     1       0.230   9.640  21.064  0.00  0.00    +0.000 A 
ATOM     16  C   UNL     1      -0.390  10.726  20.431  0.00  0.00    +0.000 A 
ATOM     17  C   UNL     1      -1.227  11.641  21.174  0.00  0.00    +0.000 A 
ATOM     18  C   UNL     1      -1.973  12.575  20.456  0.00  0.00    +0.000 A 
ATOM     19  C   UNL     1      -1.895  12.593  19.070  0.00  0.00    +0.000 A 
ATOM     20  C   UNL     1      -1.002  11.743  18.382  0.00  0.00    +0.000 A 
ATOM     21  C   UNL     1      -0.166  10.812  19.027  0.00  0.00    +0.000 A 
ATOM     22  N   UNL     1       0.761  10.030  18.327  0.00  0.00    +0.000 NA
ATOM     23  C   UNL     1       1.420   9.074  19.022  0.00  0.00    +0.000 A 
ENDROOT
BRANCH   1  25
ATOM     24  C   UNL     1       7.495   7.263  17.556  0.00  0.00    +0.000 C 
ATOM     25  C   UNL     1       6.521   6.421  16.756  0.00  0.00    +0.000 C 
ENDBRANCH   1  25
BRANCH   1  26
ATOM     26  O   UNL     1       5.856   5.625  18.903  0.00  0.00    +0.000 OA
ATOM     27  H   UNL     1       5.242   6.130  19.465  0.00  0.00    +0.000 HD
ENDBRANCH   1  26
BRANCH  17  28
ATOM     28  C   UNL     1      -1.188  11.707  22.703  0.00  0.00    +0.000 C 
BRANCH  28  29
ATOM     29  C   UNL     1      -2.416  12.199  23.505  0.00  0.00    +0.000 C 
BRANCH  29  30
ATOM     30  C   UNL     1      -2.384  13.634  23.977  0.00  0.00    +0.000 A 
ATOM     31  C   UNL     1      -3.464  14.223  24.649  0.00  0.00    +0.000 A 
ATOM     32  C   UNL     1      -3.412  15.558  25.050  0.00  0.00    +0.000 A 
ATOM     33  C   UNL     1      -2.268  16.316  24.813  0.00  0.00    +0.000 A 
ATOM     34  C   UNL     1      -1.166  15.730  24.198  0.00  0.00    +0.000 A 
ATOM     35  C   UNL     1      -1.220  14.395  23.791  0.00  0.00    +0.000 A 
ENDBRANCH  29  30
ENDBRANCH  28  29
ENDBRANCH  17  28
TORSDOF 5
ENDMDL
MODEL 4
REMARK VINA RESULT:      -9.4      1.169      1.900
REMARK  Name = 
REMARK  6 active torsions:
REMARK  status: ('A' for Active; 'I' for Inactive)
REMARK    1  A    between atoms: C_1  and  C_2
REMARK    2  A    between atoms: C_2  and  C_3
REMARK    3  A    between atoms: C_3  and  O_4
REMARK    4  A    between atoms: C_20  and  C_21
REMARK    5  A    between atoms: C_21  and  C_22
REMARK    6  A    between atoms: C_22  and  C_23
REMARK                            x       y       z     vdW  Elec       q    Type
REMARK                         _______ _______ _______ _____ _____    ______ ____
ROOT
ATOM      1  C   UNL     1       2.999   3.513  19.635  0.00  0.00    +0.000 C 
ATOM      2  C   UNL     1       4.497   3.030  19.498  0.00  0.00    +0.000 C 
ATOM      3  O   UNL     1       4.898   1.920  19.836  0.00  0.00    +0.000 OA
ATOM      4  O   UNL     1       5.305   3.845  18.782  0.00  0.00    +0.000 OA
ATOM      5  C   UNL     1       5.288   5.218  19.147  0.00  0.00    +0.000 C 
ATOM      6  C   UNL     1       3.945   5.736  19.519  0.00  0.00    +0.000 A 
ATOM      7  C   UNL     1       2.948   5.005  20.068  0.00  0.00    +0.000 A 
ATOM      8  C   UNL     1       1.881   5.824  20.757  0.00  0.00    +0.000 A 
ATOM      9  C   UNL     1       1.635   7.098  20.340  0.00  0.00    +0.000 A 
ATOM     10  N   UNL     1       2.297   7.470  19.174  0.00  0.00    +0.000 N 
ATOM     11  C   UNL     1       3.482   6.931  18.761  0.00  0.00    +0.000 A 
ATOM     12  O   UNL     1       4.117   7.368  17.804  0.00  0.00    +0.000 OA
ATOM     13  C   UNL     1       1.625   8.513  18.451  0.00  0.00    +0.000 C 
ATOM     14  C   UNL     1       0.736   9.071  19.497  0.00  0.00    +0.000 A 
ATOM     15  C   UNL     1       0.016  10.248  19.391  0.00  0.00    +0.000 A 
ATOM     16  C   UNL     1      -0.561  10.806  20.540  0.00  0.00    +0.000 A 
ATOM     17  C   UNL     1      -1.348  12.017  20.464  0.00  0.00    +0.000 A 
ATOM     18  C   UNL     1      -1.723  12.629  21.659  0.00  0.00    +0.000 A 
ATOM     19  C   UNL     1      -1.330  12.070  22.867  0.00  0.00    +0.000 A 
ATOM     20  C   UNL     1      -0.637  10.840  22.906  0.00  0.00    +0.000 A 
ATOM     21  C   UNL     1      -0.270  10.120  21.753  0.00  0.00    +0.000 A 
ATOM     22  N   UNL     1       0.355   8.869  21.822  0.00  0.00    +0.000 NA
ATOM     23  C   UNL     1       0.785   8.324  20.660  0.00  0.00    +0.000 A 
ENDROOT
BRANCH   1  25
ATOM     24  C   UNL     1       1.654   2.560  21.670  0.00  0.00    +0.000 C 
ATOM     25  C   UNL     1       2.254   2.331  20.296  0.00  0.00    +0.000 C 
ENDBRANCH   1  25
BRANCH   1  26
ATOM     26  O   UNL     1       2.504   3.542  18.258  0.00  0.00    +0.000 OA
ATOM     27  H   UNL     1       1.536   3.447  18.293  0.00  0.00    +0.000 HD
ENDBRANCH   1  26
BRANCH  17  28
ATOM     28  C   UNL     1      -1.899  12.537  19.133  0.00  0.00    +0.000 C 
BRANCH  28  29
ATOM     29  C   UNL     1      -2.860  11.672  18.284  0.00  0.00    +0.000 C 
BRANCH  29  30
ATOM     30  C   UNL     1      -4.321  11.710  18.667  0.00  0.00    +0.000 A 
ATOM     31  C   UNL     1      -5.258  10.818  18.127  0.00  0.00    +0.000 A 
ATOM     32  C   UNL     1      -6.605  10.896  18.483  0.00  0.00    +0.000 A 
ATOM     33  C   UNL     1      -7.031  11.847  19.407  0.00  0.00    +0.000 A 
ATOM     34  C   UNL     1      -6.103  12.703  19.995  0.00  0.00    +0.000 A 
ATOM     35  C   UNL     1      -4.756  12.629  19.634  0.00  0.00    +0.000 A 
ENDBRANCH  29  30
ENDBRANCH  28  29
ENDBRANCH  17  28
TORSDOF 5
ENDMDL
MODEL 5
REMARK VINA RESULT:      -9.3      1.858      3.111
REMARK  Name = 
REMARK  6 active torsions:
REMARK  status: ('A' for Active; 'I' for Inactive)
REMARK    1  A    between atoms: C_1  and  C_2
REMARK    2  A    between atoms: C_2  and  C_3
REMARK    3  A    between atoms: C_3  and  O_4
REMARK    4  A    between atoms: C_20  and  C_21
REMARK    5  A    between atoms: C_21  and  C_22
REMARK    6  A    between atoms: C_22  and  C_23
REMARK                            x       y       z     vdW  Elec       q    Type
REMARK                         _______ _______ _______ _____ _____    ______ ____
ROOT
ATOM      1  C   UNL     1       2.988   3.407  19.622  0.00  0.00    +0.000 C 
ATOM      2  C   UNL     1       4.470   2.870  19.534  0.00  0.00    +0.000 C 
ATOM      3  O   UNL     1       4.818   1.743  19.877  0.00  0.00    +0.000 OA
ATOM      4  O   UNL     1       5.333   3.659  18.853  0.00  0.00    +0.000 OA
ATOM      5  C   UNL     1       5.353   5.029  19.229  0.00  0.00    +0.000 C 
ATOM      6  C   UNL     1       4.018   5.594  19.557  0.00  0.00    +0.000 A 
ATOM      7  C   UNL     1       2.976   4.897  20.065  0.00  0.00    +0.000 A 
ATOM      8  C   UNL     1       1.916   5.751  20.722  0.00  0.00    +0.000 A 
ATOM      9  C   UNL     1       1.732   7.035  20.307  0.00  0.00    +0.000 A 
ATOM     10  N   UNL     1       2.448   7.390  19.168  0.00  0.00    +0.000 N 
ATOM     11  C   UNL     1       3.626   6.810  18.793  0.00  0.00    +0.000 A 
ATOM     12  O   UNL     1       4.310   7.230  17.862  0.00  0.00    +0.000 OA
ATOM     13  C   UNL     1       1.840   8.462  18.430  0.00  0.00    +0.000 C 
ATOM     14  C   UNL     1       0.936   9.046  19.449  0.00  0.00    +0.000 A 
ATOM     15  C   UNL     1       0.263  10.249  19.327  0.00  0.00    +0.000 A 
ATOM     16  C   UNL     1      -0.333  10.820  20.459  0.00  0.00    +0.000 A 
ATOM     17  C   UNL     1      -1.071  12.060  20.365  0.00  0.00    +0.000 A 
ATOM     18  C   UNL     1      -1.466  12.678  21.551  0.00  0.00    +0.000 A 
ATOM     19  C   UNL     1      -1.137  12.096  22.768  0.00  0.00    +0.000 A 
ATOM     20  C   UNL     1      -0.491  10.842  22.821  0.00  0.00    +0.000 A 
ATOM     21  C   UNL     1      -0.110  10.116  21.676  0.00  0.00    +0.000 A 
ATOM     22  N   UNL     1       0.466   8.843  21.757  0.00  0.00    +0.000 NA
ATOM     23  C   UNL     1       0.916   8.289  20.607  0.00  0.00    +0.000 A 
ENDROOT
BRANCH   1  25
ATOM     24  C   UNL     1       1.605   2.461  21.635  0.00  0.00    +0.000 C 
ATOM     25  C   UNL     1       2.177   2.249  20.247  0.00  0.00    +0.000 C 
ENDBRANCH   1  25
BRANCH   1  26
ATOM     26  O   UNL     1       2.543   3.464  18.228  0.00  0.00    +0.000 OA
ATOM     27  H   UNL     1       3.007   4.207  17.804  0.00  0.00    +0.000 HD
ENDBRANCH   1  26
BRANCH  17  28
ATOM     28  C   UNL     1      -1.555  12.608  19.020  0.00  0.00    +0.000 C 
BRANCH  28  29
ATOM     29  C   UNL     1      -0.574  13.314  18.055  0.00  0.00    +0.000 C 
BRANCH  29  30
ATOM     30  C   UNL     1       0.636  13.969  18.680  0.00  0.00    +0.000 A 
ATOM     31  C   UNL     1       1.917  13.408  18.591  0.00  0.00    +0.000 A 
ATOM     32  C   UNL     1       3.010  14.025  19.203  0.00  0.00    +0.000 A 
ATOM     33  C   UNL     1       2.843  15.227  19.886  0.00  0.00    +0.000 A 
ATOM     34  C   UNL     1       1.587  15.825  19.936  0.00  0.00    +0.000 A 
ATOM     35  C   UNL     1       0.492  15.205  19.329  0.00  0.00    +0.000 A 
ENDBRANCH  29  30
ENDBRANCH  28  29
ENDBRANCH  17  28
TORSDOF 5
ENDMDL
MODEL 6
REMARK VINA RESULT:      -9.0      2.935      8.877
REMARK  Name = 
REMARK  6 active torsions:
REMARK  status: ('A' for Active; 'I' for Inactive)
REMARK    1  A    between atoms: C_1  and  C_2
REMARK    2  A    between atoms: C_2  and  C_3
REMARK    3  A    between atoms: C_3  and  O_4
REMARK    4  A    between atoms: C_20  and  C_21
REMARK    5  A    between atoms: C_21  and  C_22
REMARK    6  A    between atoms: C_22  and  C_23
REMARK                            x       y       z     vdW  Elec       q    Type
REMARK                         _______ _______ _______ _____ _____    ______ ____
ROOT
ATOM      1  C   UNL     1      -1.250  10.995  18.809  0.00  0.00    +0.000 C 
ATOM      2  C   UNL     1      -1.505  12.166  19.837  0.00  0.00    +0.000 C 
ATOM      3  O   UNL     1      -2.173  13.167  19.592  0.00  0.00    +0.000 OA
ATOM      4  O   UNL     1      -1.113  11.917  21.108  0.00  0.00    +0.000 OA
ATOM      5  C   UNL     1       0.214  11.436  21.268  0.00  0.00    +0.000 C 
ATOM      6  C   UNL     1       0.650  10.482  20.215  0.00  0.00    +0.000 A 
ATOM      7  C   UNL     1       0.207  10.469  18.937  0.00  0.00    +0.000 A 
ATOM      8  C   UNL     1       1.106   9.728  17.973  0.00  0.00    +0.000 A 
ATOM      9  C   UNL     1       1.887   8.709  18.428  0.00  0.00    +0.000 A 
ATOM     10  N   UNL     1       1.645   8.330  19.745  0.00  0.00    +0.000 N 
ATOM     11  C   UNL     1       1.147   9.165  20.703  0.00  0.00    +0.000 A 
ATOM     12  O   UNL     1       1.070   8.851  21.888  0.00  0.00    +0.000 OA
ATOM     13  C   UNL     1       2.006   6.966  20.015  0.00  0.00    +0.000 C 
ATOM     14  C   UNL     1       2.913   6.671  18.880  0.00  0.00    +0.000 A 
ATOM     15  C   UNL     1       3.718   5.550  18.769  0.00  0.00    +0.000 A 
ATOM     16  C   UNL     1       4.726   5.522  17.796  0.00  0.00    +0.000 A 
ATOM     17  C   UNL     1       5.565   4.357  17.628  0.00  0.00    +0.000 A 
ATOM     18  C   UNL     1       6.672   4.464  16.789  0.00  0.00    +0.000 A 
ATOM     19  C   UNL     1       6.936   5.670  16.154  0.00  0.00    +0.000 A 
ATOM     20  C   UNL     1       6.048   6.761  16.272  0.00  0.00    +0.000 A 
ATOM     21  C   UNL     1       4.873   6.724  17.048  0.00  0.00    +0.000 A 
ATOM     22  N   UNL     1       3.974   7.797  17.092  0.00  0.00    +0.000 NA
ATOM     23  C   UNL     1       2.948   7.712  17.970  0.00  0.00    +0.000 A 
ENDROOT
BRANCH   1  25
ATOM     24  C   UNL     1      -2.492  10.349  16.595  0.00  0.00    +0.000 C 
ATOM     25  C   UNL     1      -1.964  11.436  17.511  0.00  0.00    +0.000 C 
ENDBRANCH   1  25
BRANCH   1  26
ATOM     26  O   UNL     1      -2.057   9.886  19.320  0.00  0.00    +0.000 OA
ATOM     27  H   UNL     1      -2.503  10.198  20.128  0.00  0.00    +0.000 HD
ENDBRANCH   1  26
BRANCH  17  28
ATOM     28  C   UNL     1       5.179   2.996  18.214  0.00  0.00    +0.000 C 
BRANCH  28  29
ATOM     29  C   UNL     1       3.751   2.429  18.023  0.00  0.00    +0.000 C 
BRANCH  29  30
ATOM     30  C   UNL     1       2.793   2.610  19.176  0.00  0.00    +0.000 A 
ATOM     31  C   UNL     1       1.422   2.826  18.980  0.00  0.00    +0.000 A 
ATOM     32  C   UNL     1       0.566   3.015  20.067  0.00  0.00    +0.000 A 
ATOM     33  C   UNL     1       1.064   2.961  21.366  0.00  0.00    +0.000 A 
ATOM     34  C   UNL     1       2.413   2.692  21.580  0.00  0.00    +0.000 A 
ATOM     35  C   UNL     1       3.270   2.509  20.492  0.00  0.00    +0.000 A 
ENDBRANCH  29  30
ENDBRANCH  28  29
ENDBRANCH  17  28
TORSDOF 5
ENDMDL
MODEL 7
REMARK VINA RESULT:      -9.0      2.172      4.609
REMARK  Name = 
REMARK  6 active torsions:
REMARK  status: ('A' for Active; 'I' for Inactive)
REMARK    1  A    between atoms: C_1  and  C_2
REMARK    2  A    between atoms: C_2  and  C_3
REMARK    3  A    between atoms: C_3  and  O_4
REMARK    4  A    between atoms: C_20  and  C_21
REMARK    5  A    between atoms: C_21  and  C_22
REMARK    6  A    between atoms: C_22  and  C_23
REMARK                            x       y       z     vdW  Elec       q    Type
REMARK                         _______ _______ _______ _____ _____    ______ ____
ROOT
ATOM      1  C   UNL     1       5.404   5.914  17.740  0.00  0.00    +0.000 C 
ATOM      2  C   UNL     1       5.517   4.368  17.438  0.00  0.00    +0.000 C 
ATOM      3  O   UNL     1       6.315   3.876  16.645  0.00  0.00    +0.000 OA
ATOM      4  O   UNL     1       4.815   3.562  18.268  0.00  0.00    +0.000 OA
ATOM      5  C   UNL     1       3.448   3.903  18.458  0.00  0.00    +0.000 C 
ATOM      6  C   UNL     1       3.187   5.364  18.534  0.00  0.00    +0.000 A 
ATOM      7  C   UNL     1       3.915   6.324  17.919  0.00  0.00    +0.000 A 
ATOM      8  C   UNL     1       3.204   7.650  17.776  0.00  0.00    +0.000 A 
ATOM      9  C   UNL     1       2.246   8.003  18.678  0.00  0.00    +0.000 A 
ATOM     10  N   UNL     1       2.134   7.152  19.773  0.00  0.00    +0.000 N 
ATOM     11  C   UNL     1       2.468   5.828  19.752  0.00  0.00    +0.000 A 
ATOM     12  O   UNL     1       2.232   5.065  20.687  0.00  0.00    +0.000 OA
ATOM     13  C   UNL     1       1.593   7.799  20.937  0.00  0.00    +0.000 C 
ATOM     14  C   UNL     1       0.957   8.996  20.339  0.00  0.00    +0.000 A 
ATOM     15  C   UNL     1       0.100   9.861  20.998  0.00  0.00    +0.000 A 
ATOM     16  C   UNL     1      -0.648  10.785  20.257  0.00  0.00    +0.000 A 
ATOM     17  C   UNL     1      -1.528  11.726  20.913  0.00  0.00    +0.000 A 
ATOM     18  C   UNL     1      -2.391  12.478  20.118  0.00  0.00    +0.000 A 
ATOM     19  C   UNL     1      -2.384  12.299  18.741  0.00  0.00    +0.000 A 
ATOM     20  C   UNL     1      -1.450  11.435  18.127  0.00  0.00    +0.000 A 
ATOM     21  C   UNL     1      -0.502  10.682  18.845  0.00  0.00    +0.000 A 
ATOM     22  N   UNL     1       0.458   9.887  18.207  0.00  0.00    +0.000 NA
ATOM     23  C   UNL     1       1.236   9.102  18.988  0.00  0.00    +0.000 A 
ENDROOT
BRANCH   1  25
ATOM     24  C   UNL     1       7.500   7.459  17.453  0.00  0.00    +0.000 C 
ATOM     25  C   UNL     1       6.442   6.583  16.811  0.00  0.00    +0.000 C 
ENDBRANCH   1  25
BRANCH   1  26
ATOM     26  O   UNL     1       5.960   6.059  19.086  0.00  0.00    +0.000 OA
ATOM     27  H   UNL     1       5.225   6.290  19.682  0.00  0.00    +0.000 HD
ENDBRANCH   1  26
BRANCH  17  28
ATOM     28  C   UNL     1      -1.420  12.019  22.412  0.00  0.00    +0.000 C 
BRANCH  28  29
ATOM     29  C   UNL     1      -0.742  13.315  22.916  0.00  0.00    +0.000 C 
BRANCH  29  30
ATOM     30  C   UNL     1      -0.112  14.200  21.867  0.00  0.00    +0.000 A 
ATOM     31  C   UNL     1      -0.716  15.388  21.432  0.00  0.00    +0.000 A 
ATOM     32  C   UNL     1      -0.121  16.171  20.442  0.00  0.00    +0.000 A 
ATOM     33  C   UNL     1       1.103  15.794  19.894  0.00  0.00    +0.000 A 
ATOM     34  C   UNL     1       1.743  14.647  20.355  0.00  0.00    +0.000 A 
ATOM     35  C   UNL     1       1.144  13.860  21.342  0.00  0.00    +0.000 A 
ENDBRANCH  29  30
ENDBRANCH  28  29
ENDBRANCH  17  28
TORSDOF 5
ENDMDL
MODEL 8
REMARK VINA RESULT:      -8.9      3.626      9.179
REMARK  Name = 
REMARK  6 active torsions:
REMARK  status: ('A' for Active; 'I' for Inactive)
REMARK    1  A    between atoms: C_1  and  C_2
REMARK    2  A    between atoms: C_2  and  C_3
REMARK    3  A    between atoms: C_3  and  O_4
REMARK    4  A    between atoms: C_20  and  C_21
REMARK    5  A    between atoms: C_21  and  C_22
REMARK    6  A    between atoms: C_22  and  C_23
REMARK                            x       y       z     vdW  Elec       q    Type
REMARK                         _______ _______ _______ _____ _____    ______ ____
ROOT
ATOM      1  C   UNL     1      -0.012  13.192  20.779  0.00  0.00    +0.000 C 
ATOM      2  C   UNL     1      -1.426  13.894  20.729  0.00  0.00    +0.000 C 
ATOM      3  O   UNL     1      -1.773  14.803  21.478  0.00  0.00    +0.000 OA
ATOM      4  O   UNL     1      -2.190  13.581  19.657  0.00  0.00    +0.000 OA
ATOM      5  C   UNL     1      -2.346  12.195  19.387  0.00  0.00    +0.000 C 
ATOM      6  C   UNL     1      -1.122  11.384  19.619  0.00  0.00    +0.000 A 
ATOM      7  C   UNL     1      -0.155  11.666  20.521  0.00  0.00    +0.000 A 
ATOM      8  C   UNL     1       0.726  10.491  20.879  0.00  0.00    +0.000 A 
ATOM      9  C   UNL     1       0.917   9.491  19.973  0.00  0.00    +0.000 A 
ATOM     10  N   UNL     1       0.401   9.744  18.706  0.00  0.00    +0.000 N 
ATOM     11  C   UNL     1      -0.660  10.569  18.461  0.00  0.00    +0.000 A 
ATOM     12  O   UNL     1      -1.185  10.671  17.355  0.00  0.00    +0.000 OA
ATOM     13  C   UNL     1       1.077   9.020  17.666  0.00  0.00    +0.000 C 
ATOM     14  C   UNL     1       1.753   7.953  18.442  0.00  0.00    +0.000 A 
ATOM     15  C   UNL     1       2.375   6.842  17.901  0.00  0.00    +0.000 A 
ATOM     16  C   UNL     1       2.728   5.776  18.739  0.00  0.00    +0.000 A 
ATOM     17  C   UNL     1       3.409   4.612  18.215  0.00  0.00    +0.000 A 
ATOM     18  C   UNL     1       3.552   3.507  19.052  0.00  0.00    +0.000 A 
ATOM     19  C   UNL     1       3.038   3.553  20.341  0.00  0.00    +0.000 A 
ATOM     20  C   UNL     1       2.457   4.736  20.848  0.00  0.00    +0.000 A 
ATOM     21  C   UNL     1       2.325   5.919  20.097  0.00  0.00    +0.000 A 
ATOM     22  N   UNL     1       1.808   7.099  20.646  0.00  0.00    +0.000 NA
ATOM     23  C   UNL     1       1.601   8.138  19.804  0.00  0.00    +0.000 A 
ENDROOT
BRANCH   1  25
ATOM     24  C   UNL     1       1.894  14.778  21.624  0.00  0.00    +0.000 C 
ATOM     25  C   UNL     1       0.730  13.866  21.956  0.00  0.00    +0.000 C 
ENDBRANCH   1  25
BRANCH   1  26
ATOM     26  O   UNL     1       0.673  13.677  19.580  0.00  0.00    +0.000 OA
ATOM     27  H   UNL     1       0.754  12.926  18.966  0.00  0.00    +0.000 HD
ENDBRANCH   1  26
BRANCH  17  28
ATOM     28  C   UNL     1       4.099   4.630  16.849  0.00  0.00    +0.000 C 
BRANCH  28  29
ATOM     29  C   UNL     1       5.628   4.425  16.733  0.00  0.00    +0.000 C 
BRANCH  29  30
ATOM     30  C   UNL     1       6.501   5.489  17.358  0.00  0.00    +0.000 A 
ATOM     31  C   UNL     1       6.514   6.811  16.893  0.00  0.00    +0.000 A 
ATOM     32  C   UNL     1       7.351   7.764  17.476  0.00  0.00    +0.000 A 
ATOM     33  C   UNL     1       8.166   7.417  18.550  0.00  0.00    +0.000 A 
ATOM     34  C   UNL     1       8.124   6.121  19.059  0.00  0.00    +0.000 A 
ATOM     35  C   UNL     1       7.290   5.166  18.472  0.00  0.00    +0.000 A 
ENDBRANCH  29  30
ENDBRANCH  28  29
ENDBRANCH  17  28
TORSDOF 5
ENDMDL
MODEL 9
REMARK VINA RESULT:      -8.8      4.522      9.696
REMARK  Name = 
REMARK  6 active torsions:
REMARK  status: ('A' for Active; 'I' for Inactive)
REMARK    1  A    between atoms: C_1  and  C_2
REMARK    2  A    between atoms: C_2  and  C_3
REMARK    3  A    between atoms: C_3  and  O_4
REMARK    4  A    between atoms: C_20  and  C_21
REMARK    5  A    between atoms: C_21  and  C_22
REMARK    6  A    between atoms: C_22  and  C_23
REMARK                            x       y       z     vdW  Elec       q    Type
REMARK                         _______ _______ _______ _____ _____    ______ ____
ROOT
ATOM      1  C   UNL     1      -4.544  13.765  21.145  0.00  0.00    +0.000 C 
ATOM      2  C   UNL     1      -4.594  15.200  21.803  0.00  0.00    +0.000 C 
ATOM      3  O   UNL     1      -5.417  16.065  21.513  0.00  0.00    +0.000 OA
ATOM      4  O   UNL     1      -3.793  15.372  22.880  0.00  0.00    +0.000 OA
ATOM      5  C   UNL     1      -2.437  14.978  22.717  0.00  0.00    +0.000 C 
ATOM      6  C   UNL     1      -2.251  13.743  21.911  0.00  0.00    +0.000 A 
ATOM      7  C   UNL     1      -3.072  13.321  20.922  0.00  0.00    +0.000 A 
ATOM      8  C   UNL     1      -2.446  12.321  19.978  0.00  0.00    +0.000 A 
ATOM      9  C   UNL     1      -1.448  11.506  20.422  0.00  0.00    +0.000 A 
ATOM     10  N   UNL     1      -1.214  11.563  21.793  0.00  0.00    +0.000 N 
ATOM     11  C   UNL     1      -1.476  12.655  22.570  0.00  0.00    +0.000 A 
ATOM     12  O   UNL     1      -1.135  12.734  23.747  0.00  0.00    +0.000 OA
ATOM     13  C   UNL     1      -0.630  10.359  22.316  0.00  0.00    +0.000 C 
ATOM     14  C   UNL     1      -0.103   9.728  21.083  0.00  0.00    +0.000 A 
ATOM     15  C   UNL     1       0.749   8.637  21.044  0.00  0.00    +0.000 A 
ATOM     16  C   UNL     1       1.392   8.311  19.843  0.00  0.00    +0.000 A 
ATOM     17  C   UNL     1       2.263   7.161  19.754  0.00  0.00    +0.000 A 
ATOM     18  C   UNL     1       3.027   7.006  18.598  0.00  0.00    +0.000 A 
ATOM     19  C   UNL     1       2.934   7.950  17.585  0.00  0.00    +0.000 A 
ATOM     20  C   UNL     1       2.009   9.014  17.667  0.00  0.00    +0.000 A 
ATOM     21  C   UNL     1       1.154   9.215  18.768  0.00  0.00    +0.000 A 
ATOM     22  N   UNL     1       0.198  10.237  18.794  0.00  0.00    +0.000 NA
ATOM     23  C   UNL     1      -0.480  10.426  19.950  0.00  0.00    +0.000 A 
ENDROOT
BRANCH   1  25
ATOM     24  C   UNL     1      -5.903  12.491  19.303  0.00  0.00    +0.000 C 
ATOM     25  C   UNL     1      -5.679  13.764  20.096  0.00  0.00    +0.000 C 
ENDBRANCH   1  25
BRANCH   1  26
ATOM     26  O   UNL     1      -5.013  12.869  22.203  0.00  0.00    +0.000 OA
ATOM     27  H   UNL     1      -5.738  12.335  21.833  0.00  0.00    +0.000 HD
ENDBRANCH   1  26
BRANCH  17  28
ATOM     28  C   UNL     1       2.243   6.053  20.811  0.00  0.00    +0.000 C 
BRANCH  28  29
ATOM     29  C   UNL     1       1.482   4.730  20.555  0.00  0.00    +0.000 C 
BRANCH  29  30
ATOM     30  C   UNL     1       2.170   3.715  19.673  0.00  0.00    +0.000 A 
ATOM     31  C   UNL     1       1.798   3.513  18.337  0.00  0.00    +0.000 A 
ATOM     32  C   UNL     1       2.436   2.548  17.556  0.00  0.00    +0.000 A 
ATOM     33  C   UNL     1       3.476   1.792  18.091  0.00  0.00    +0.000 A 
ATOM     34  C   UNL     1       3.895   2.019  19.399  0.00  0.00    +0.000 A 
ATOM     35  C   UNL     1       3.252   2.980  20.182  0.00  0.00    +0.000 A 
ENDBRANCH  29  30
ENDBRANCH  28  29
ENDBRANCH  17  28
TORSDOF 5
ENDMDL
