MODEL 1
REMARK VINA RESULT:      -7.1      0.000      0.000
REMARK  Name = 
REMARK  10 active torsions:
REMARK  status: ('A' for Active; 'I' for Inactive)
REMARK    1  A    between atoms: C_1  and  C_2
REMARK    2  A    between atoms: C_2  and  C_3
REMARK    3  A    between atoms: C_3  and  C_4
REMARK    4  A    between atoms: C_4  and  C_5
REMARK    5  A    between atoms: C_5  and  C_6
REMARK    6  A    between atoms: C_6  and  N_7
REMARK    7  A    between atoms: N_10  and  C_11
REMARK    8  A    between atoms: C_14  and  C_15
REMARK    9  A    between atoms: C_15  and  C_16
REMARK   10  A    between atoms: C_15  and  C_17
REMARK                            x       y       z     vdW  Elec       q    Type
REMARK                         _______ _______ _______ _____ _____    ______ ____
ROOT
ATOM      1  N   UNL     1       7.091   4.225  14.547  0.00  0.00    +0.000 N 
ATOM      2  C   UNL     1       6.065   4.700  15.351  0.00  0.00    +0.000 C 
ATOM      3  O   UNL     1       5.483   5.749  15.098  0.00  0.00    +0.000 OA
ATOM      4  N   UNL     1       5.825   3.876  16.431  0.00  0.00    +0.000 N 
ATOM      5  H   UNL     1       7.132   3.220  14.469  0.00  0.00    +0.000 HD
ATOM      6  H   UNL     1       6.581   3.258  16.685  0.00  0.00    +0.000 HD
ENDROOT
BRANCH   4   7
ATOM      7  C   UNL     1       4.786   4.054  17.373  0.00  0.00    +0.000 A 
ATOM      8  C   UNL     1       4.979   4.682  18.604  0.00  0.00    +0.000 A 
ATOM      9  C   UNL     1       3.924   4.833  19.509  0.00  0.00    +0.000 A 
ATOM     10  C   UNL     1       2.641   4.369  19.200  0.00  0.00    +0.000 A 
ATOM     11  C   UNL     1       2.446   3.739  17.963  0.00  0.00    +0.000 A 
ATOM     12  C   UNL     1       3.505   3.595  17.052  0.00  0.00    +0.000 A 
BRANCH  10  13
ATOM     13  C   UNL     1       1.512   4.598  20.188  0.00  0.00    +0.000 C 
ATOM     14  C   UNL     1       1.476   3.498  21.250  0.00  0.00    +0.000 C 
ATOM     15  C   UNL     1       1.572   5.984  20.833  0.00  0.00    +0.000 C 
ENDBRANCH  10  13
ENDBRANCH   4   7
BRANCH   1  16
ATOM     16  C   UNL     1       7.385   5.002  13.360  0.00  0.00    +0.000 C 
BRANCH  16  17
ATOM     17  C   UNL     1       7.163   4.240  12.061  0.00  0.00    +0.000 C 
BRANCH  17  18
ATOM     18  C   UNL     1       6.072   3.181  12.251  0.00  0.00    +0.000 C 
BRANCH  18  19
ATOM     19  C   UNL     1       4.676   3.763  12.042  0.00  0.00    +0.000 C 
BRANCH  19  21
ATOM     20  C   UNL     1       3.204   3.989  10.013  0.00  0.00    +0.000 C 
ATOM     21  C   UNL     1       3.919   3.020  10.941  0.00  0.00    +0.000 C 
ENDBRANCH  19  21
ENDBRANCH  18  19
ENDBRANCH  17  18
ENDBRANCH  16  17
ENDBRANCH   1  16
TORSDOF 7
ENDMDL
MODEL 2
REMARK VINA RESULT:      -6.6      0.709      1.485
REMARK  Name = 
REMARK  10 active torsions:
REMARK  status: ('A' for Active; 'I' for Inactive)
REMARK    1  A    between atoms: C_1  and  C_2
REMARK    2  A    between atoms: C_2  and  C_3
REMARK    3  A    between atoms: C_3  and  C_4
REMARK    4  A    between atoms: C_4  and  C_5
REMARK    5  A    between atoms: C_5  and  C_6
REMARK    6  A    between atoms: C_6  and  N_7
REMARK    7  A    between atoms: N_10  and  C_11
REMARK    8  A    between atoms: C_14  and  C_15
REMARK    9  A    between atoms: C_15  and  C_16
REMARK   10  A    between atoms: C_15  and  C_17
REMARK                            x       y       z     vdW  Elec       q    Type
REMARK                         _______ _______ _______ _____ _____    ______ ____
ROOT
ATOM      1  N   UNL     1       6.747   3.838  14.338  0.00  0.00    +0.000 N 
ATOM      2  C   UNL     1       5.921   4.356  15.325  0.00  0.00    +0.000 C 
ATOM      3  O   UNL     1       5.517   5.512  15.283  0.00  0.00    +0.000 OA
ATOM      4  N   UNL     1       5.656   3.437  16.317  0.00  0.00    +0.000 N 
ATOM      5  H   UNL     1       6.594   2.862  14.132  0.00  0.00    +0.000 HD
ATOM      6  H   UNL     1       6.309   2.671  16.390  0.00  0.00    +0.000 HD
ENDROOT
BRANCH   4   7
ATOM      7  C   UNL     1       4.777   3.647  17.405  0.00  0.00    +0.000 A 
ATOM      8  C   UNL     1       3.503   3.081  17.470  0.00  0.00    +0.000 A 
ATOM      9  C   UNL     1       2.664   3.318  18.563  0.00  0.00    +0.000 A 
ATOM     10  C   UNL     1       3.084   4.120  19.629  0.00  0.00    +0.000 A 
ATOM     11  C   UNL     1       4.364   4.687  19.566  0.00  0.00    +0.000 A 
ATOM     12  C   UNL     1       5.209   4.442  18.471  0.00  0.00    +0.000 A 
BRANCH  10  13
ATOM     13  C   UNL     1       2.163   4.311  20.821  0.00  0.00    +0.000 C 
ATOM     14  C   UNL     1       0.736   4.627  20.371  0.00  0.00    +0.000 C 
ATOM     15  C   UNL     1       2.187   3.116  21.776  0.00  0.00    +0.000 C 
ENDBRANCH  10  13
ENDBRANCH   4   7
BRANCH   1  16
ATOM     16  C   UNL     1       7.045   4.718  13.226  0.00  0.00    +0.000 C 
BRANCH  16  17
ATOM     17  C   UNL     1       6.697   4.125  11.868  0.00  0.00    +0.000 C 
BRANCH  17  18
ATOM     18  C   UNL     1       6.173   2.695  12.035  0.00  0.00    +0.000 C 
BRANCH  18  19
ATOM     19  C   UNL     1       4.986   2.417  11.115  0.00  0.00    +0.000 C 
BRANCH  19  21
ATOM     20  C   UNL     1       3.143   3.693   9.970  0.00  0.00    +0.000 C 
ATOM     21  C   UNL     1       3.895   3.478  11.273  0.00  0.00    +0.000 C 
ENDBRANCH  19  21
ENDBRANCH  18  19
ENDBRANCH  17  18
ENDBRANCH  16  17
ENDBRANCH   1  16
TORSDOF 7
ENDMDL
MODEL 3
REMARK VINA RESULT:      -6.6      1.040      1.214
REMARK  Name = 
REMARK  10 active torsions:
REMARK  status: ('A' for Active; 'I' for Inactive)
REMARK    1  A    between atoms: C_1  and  C_2
REMARK    2  A    between atoms: C_2  and  C_3
REMARK    3  A    between atoms: C_3  and  C_4
REMARK    4  A    between atoms: C_4  and  C_5
REMARK    5  A    between atoms: C_5  and  C_6
REMARK    6  A    between atoms: C_6  and  N_7
REMARK    7  A    between atoms: N_10  and  C_11
REMARK    8  A    between atoms: C_14  and  C_15
REMARK    9  A    between atoms: C_15  and  C_16
REMARK   10  A    between atoms: C_15  and  C_17
REMARK                            x       y       z     vdW  Elec       q    Type
REMARK                         _______ _______ _______ _____ _____    ______ ____
ROOT
ATOM      1  N   UNL     1       6.592   5.423  14.513  0.00  0.00    +0.000 N 
ATOM      2  C   UNL     1       5.907   4.738  15.506  0.00  0.00    +0.000 C 
ATOM      3  O   UNL     1       6.085   3.542  15.702  0.00  0.00    +0.000 OA
ATOM      4  N   UNL     1       5.025   5.551  16.186  0.00  0.00    +0.000 N 
ATOM      5  H   UNL     1       6.820   6.379  14.743  0.00  0.00    +0.000 HD
ATOM      6  H   UNL     1       4.749   6.394  15.706  0.00  0.00    +0.000 HD
ENDROOT
BRANCH   4   7
ATOM      7  C   UNL     1       4.254   5.158  17.304  0.00  0.00    +0.000 A 
ATOM      8  C   UNL     1       4.567   5.537  18.611  0.00  0.00    +0.000 A 
ATOM      9  C   UNL     1       3.780   5.122  19.689  0.00  0.00    +0.000 A 
ATOM     10  C   UNL     1       2.649   4.324  19.487  0.00  0.00    +0.000 A 
ATOM     11  C   UNL     1       2.333   3.944  18.175  0.00  0.00    +0.000 A 
ATOM     12  C   UNL     1       3.120   4.368  17.092  0.00  0.00    +0.000 A 
BRANCH  10  13
ATOM     13  C   UNL     1       1.792   3.937  20.679  0.00  0.00    +0.000 C 
ATOM     14  C   UNL     1       0.484   3.284  20.229  0.00  0.00    +0.000 C 
ATOM     15  C   UNL     1       2.540   3.045  21.671  0.00  0.00    +0.000 C 
ENDBRANCH  10  13
ENDBRANCH   4   7
BRANCH   1  16
ATOM     16  C   UNL     1       7.576   4.660  13.772  0.00  0.00    +0.000 C 
BRANCH  16  17
ATOM     17  C   UNL     1       7.217   4.459  12.307  0.00  0.00    +0.000 C 
BRANCH  17  18
ATOM     18  C   UNL     1       6.233   3.294  12.160  0.00  0.00    +0.000 C 
BRANCH  18  19
ATOM     19  C   UNL     1       4.799   3.785  11.973  0.00  0.00    +0.000 C 
BRANCH  19  21
ATOM     20  C   UNL     1       3.104   3.795  10.111  0.00  0.00    +0.000 C 
ATOM     21  C   UNL     1       4.049   2.941  10.941  0.00  0.00    +0.000 C 
ENDBRANCH  19  21
ENDBRANCH  18  19
ENDBRANCH  17  18
ENDBRANCH  16  17
ENDBRANCH   1  16
TORSDOF 7
ENDMDL
MODEL 4
REMARK VINA RESULT:      -6.6      1.133      2.056
REMARK  Name = 
REMARK  10 active torsions:
REMARK  status: ('A' for Active; 'I' for Inactive)
REMARK    1  A    between atoms: C_1  and  C_2
REMARK    2  A    between atoms: C_2  and  C_3
REMARK    3  A    between atoms: C_3  and  C_4
REMARK    4  A    between atoms: C_4  and  C_5
REMARK    5  A    between atoms: C_5  and  C_6
REMARK    6  A    between atoms: C_6  and  N_7
REMARK    7  A    between atoms: N_10  and  C_11
REMARK    8  A    between atoms: C_14  and  C_15
REMARK    9  A    between atoms: C_15  and  C_16
REMARK   10  A    between atoms: C_15  and  C_17
REMARK                            x       y       z     vdW  Elec       q    Type
REMARK                         _______ _______ _______ _____ _____    ______ ____
ROOT
ATOM      1  N   UNL     1       7.366   4.419  14.574  0.00  0.00    +0.000 N 
ATOM      2  C   UNL     1       6.327   4.848  15.389  0.00  0.00    +0.000 C 
ATOM      3  O   UNL     1       5.629   5.809  15.087  0.00  0.00    +0.000 OA
ATOM      4  N   UNL     1       6.220   4.092  16.537  0.00  0.00    +0.000 N 
ATOM      5  H   UNL     1       7.510   3.420  14.569  0.00  0.00    +0.000 HD
ATOM      6  H   UNL     1       7.046   3.576  16.799  0.00  0.00    +0.000 HD
ENDROOT
BRANCH   4   7
ATOM      7  C   UNL     1       5.206   4.235  17.512  0.00  0.00    +0.000 A 
ATOM      8  C   UNL     1       4.069   3.426  17.547  0.00  0.00    +0.000 A 
ATOM      9  C   UNL     1       3.088   3.604  18.527  0.00  0.00    +0.000 A 
ATOM     10  C   UNL     1       3.224   4.591  19.507  0.00  0.00    +0.000 A 
ATOM     11  C   UNL     1       4.366   5.404  19.474  0.00  0.00    +0.000 A 
ATOM     12  C   UNL     1       5.354   5.219  18.494  0.00  0.00    +0.000 A 
BRANCH  10  13
ATOM     13  C   UNL     1       2.161   4.719  20.584  0.00  0.00    +0.000 C 
ATOM     14  C   UNL     1       1.667   6.162  20.703  0.00  0.00    +0.000 C 
ATOM     15  C   UNL     1       0.994   3.754  20.370  0.00  0.00    +0.000 C 
ENDBRANCH  10  13
ENDBRANCH   4   7
BRANCH   1  16
ATOM     16  C   UNL     1       7.529   5.127  13.320  0.00  0.00    +0.000 C 
BRANCH  16  17
ATOM     17  C   UNL     1       7.056   4.336  12.108  0.00  0.00    +0.000 C 
BRANCH  17  18
ATOM     18  C   UNL     1       6.128   3.199  12.549  0.00  0.00    +0.000 C 
BRANCH  18  19
ATOM     19  C   UNL     1       5.691   2.337  11.367  0.00  0.00    +0.000 C 
BRANCH  19  21
ATOM     20  C   UNL     1       6.138  -0.140  11.314  0.00  0.00    +0.000 C 
ATOM     21  C   UNL     1       6.716   1.244  11.062  0.00  0.00    +0.000 C 
ENDBRANCH  19  21
ENDBRANCH  18  19
ENDBRANCH  17  18
ENDBRANCH  16  17
ENDBRANCH   1  16
TORSDOF 7
ENDMDL
MODEL 5
REMARK VINA RESULT:      -6.5      1.229      1.851
REMARK  Name = 
REMARK  10 active torsions:
REMARK  status: ('A' for Active; 'I' for Inactive)
REMARK    1  A    between atoms: C_1  and  C_2
REMARK    2  A    between atoms: C_2  and  C_3
REMARK    3  A    between atoms: C_3  and  C_4
REMARK    4  A    between atoms: C_4  and  C_5
REMARK    5  A    between atoms: C_5  and  C_6
REMARK    6  A    between atoms: C_6  and  N_7
REMARK    7  A    between atoms: N_10  and  C_11
REMARK    8  A    between atoms: C_14  and  C_15
REMARK    9  A    between atoms: C_15  and  C_16
REMARK   10  A    between atoms: C_15  and  C_17
REMARK                            x       y       z     vdW  Elec       q    Type
REMARK                         _______ _______ _______ _____ _____    ______ ____
ROOT
ATOM      1  N   UNL     1       6.921   3.965  14.344  0.00  0.00    +0.000 N 
ATOM      2  C   UNL     1       6.151   4.564  15.331  0.00  0.00    +0.000 C 
ATOM      3  O   UNL     1       5.938   5.771  15.336  0.00  0.00    +0.000 OA
ATOM      4  N   UNL     1       5.707   3.655  16.267  0.00  0.00    +0.000 N 
ATOM      5  H   UNL     1       6.622   3.037  14.084  0.00  0.00    +0.000 HD
ATOM      6  H   UNL     1       6.227   2.792  16.320  0.00  0.00    +0.000 HD
ENDROOT
BRANCH   4   7
ATOM      7  C   UNL     1       4.833   3.953  17.339  0.00  0.00    +0.000 A 
ATOM      8  C   UNL     1       5.228   4.695  18.453  0.00  0.00    +0.000 A 
ATOM      9  C   UNL     1       4.333   4.965  19.493  0.00  0.00    +0.000 A 
ATOM     10  C   UNL     1       3.012   4.508  19.440  0.00  0.00    +0.000 A 
ATOM     11  C   UNL     1       2.615   3.764  18.320  0.00  0.00    +0.000 A 
ATOM     12  C   UNL     1       3.512   3.500  17.273  0.00  0.00    +0.000 A 
BRANCH  10  13
ATOM     13  C   UNL     1       2.058   4.865  20.565  0.00  0.00    +0.000 C 
ATOM     14  C   UNL     1       1.719   6.356  20.550  0.00  0.00    +0.000 C 
ATOM     15  C   UNL     1       0.788   4.012  20.546  0.00  0.00    +0.000 C 
ENDBRANCH  10  13
ENDBRANCH   4   7
BRANCH   1  16
ATOM     16  C   UNL     1       7.395   4.836  13.287  0.00  0.00    +0.000 C 
BRANCH  16  17
ATOM     17  C   UNL     1       7.084   4.324  11.888  0.00  0.00    +0.000 C 
BRANCH  17  18
ATOM     18  C   UNL     1       6.210   3.068  11.968  0.00  0.00    +0.000 C 
BRANCH  18  19
ATOM     19  C   UNL     1       6.921   1.847  11.388  0.00  0.00    +0.000 C 
BRANCH  19  21
ATOM     20  C   UNL     1       6.212  -0.568  11.431  0.00  0.00    +0.000 C 
ATOM     21  C   UNL     1       5.921   0.813  10.867  0.00  0.00    +0.000 C 
ENDBRANCH  19  21
ENDBRANCH  18  19
ENDBRANCH  17  18
ENDBRANCH  16  17
ENDBRANCH   1  16
TORSDOF 7
ENDMDL
MODEL 6
REMARK VINA RESULT:      -6.4      4.541      6.333
REMARK  Name = 
REMARK  10 active torsions:
REMARK  status: ('A' for Active; 'I' for Inactive)
REMARK    1  A    between atoms: C_1  and  C_2
REMARK    2  A    between atoms: C_2  and  C_3
REMARK    3  A    between atoms: C_3  and  C_4
REMARK    4  A    between atoms: C_4  and  C_5
REMARK    5  A    between atoms: C_5  and  C_6
REMARK    6  A    between atoms: C_6  and  N_7
REMARK    7  A    between atoms: N_10  and  C_11
REMARK    8  A    between atoms: C_14  and  C_15
REMARK    9  A    between atoms: C_15  and  C_16
REMARK   10  A    between atoms: C_15  and  C_17
REMARK                            x       y       z     vdW  Elec       q    Type
REMARK                         _______ _______ _______ _____ _____    ______ ____
ROOT
ATOM      1  N   UNL     1       6.800   7.826  17.082  0.00  0.00    +0.000 N 
ATOM      2  C   UNL     1       6.116   6.876  17.826  0.00  0.00    +0.000 C 
ATOM      3  O   UNL     1       6.648   6.286  18.760  0.00  0.00    +0.000 OA
ATOM      4  N   UNL     1       4.830   6.684  17.370  0.00  0.00    +0.000 N 
ATOM      5  H   UNL     1       6.231   8.594  16.758  0.00  0.00    +0.000 HD
ATOM      6  H   UNL     1       4.655   6.977  16.420  0.00  0.00    +0.000 HD
ENDROOT
BRANCH   4   7
ATOM      7  C   UNL     1       3.868   5.845  17.979  0.00  0.00    +0.000 A 
ATOM      8  C   UNL     1       3.153   6.216  19.119  0.00  0.00    +0.000 A 
ATOM      9  C   UNL     1       2.214   5.354  19.692  0.00  0.00    +0.000 A 
ATOM     10  C   UNL     1       1.955   4.099  19.132  0.00  0.00    +0.000 A 
ATOM     11  C   UNL     1       2.671   3.727  17.986  0.00  0.00    +0.000 A 
ATOM     12  C   UNL     1       3.609   4.596  17.406  0.00  0.00    +0.000 A 
BRANCH  10  13
ATOM     13  C   UNL     1       0.890   3.214  19.755  0.00  0.00    +0.000 C 
ATOM     14  C   UNL     1       0.579   2.013  18.861  0.00  0.00    +0.000 C 
ATOM     15  C   UNL     1       1.259   2.766  21.170  0.00  0.00    +0.000 C 
ENDBRANCH  10  13
ENDBRANCH   4   7
BRANCH   1  16
ATOM     16  C   UNL     1       8.149   8.129  17.517  0.00  0.00    +0.000 C 
BRANCH  16  17
ATOM     17  C   UNL     1       8.366   9.598  17.854  0.00  0.00    +0.000 C 
BRANCH  17  18
ATOM     18  C   UNL     1       9.179   9.728  19.145  0.00  0.00    +0.000 C 
BRANCH  18  19
ATOM     19  C   UNL     1       9.895  11.075  19.229  0.00  0.00    +0.000 C 
BRANCH  19  21
ATOM     20  C   UNL     1      10.091  12.909  17.517  0.00  0.00    +0.000 C 
ATOM     21  C   UNL     1      10.478  11.484  17.876  0.00  0.00    +0.000 C 
ENDBRANCH  19  21
ENDBRANCH  18  19
ENDBRANCH  17  18
ENDBRANCH  16  17
ENDBRANCH   1  16
TORSDOF 7
ENDMDL
MODEL 7
REMARK VINA RESULT:      -6.4      5.352      7.285
REMARK  Name = 
REMARK  10 active torsions:
REMARK  status: ('A' for Active; 'I' for Inactive)
REMARK    1  A    between atoms: C_1  and  C_2
REMARK    2  A    between atoms: C_2  and  C_3
REMARK    3  A    between atoms: C_3  and  C_4
REMARK    4  A    between atoms: C_4  and  C_5
REMARK    5  A    between atoms: C_5  and  C_6
REMARK    6  A    between atoms: C_6  and  N_7
REMARK    7  A    between atoms: N_10  and  C_11
REMARK    8  A    between atoms: C_14  and  C_15
REMARK    9  A    between atoms: C_15  and  C_16
REMARK   10  A    between atoms: C_15  and  C_17
REMARK                            x       y       z     vdW  Elec       q    Type
REMARK                         _______ _______ _______ _____ _____    ______ ____
ROOT
ATOM      1  N   UNL     1       7.721   8.724  17.420  0.00  0.00    +0.000 N 
ATOM      2  C   UNL     1       7.160   7.488  17.710  0.00  0.00    +0.000 C 
ATOM      3  O   UNL     1       7.656   6.737  18.543  0.00  0.00    +0.000 OA
ATOM      4  N   UNL     1       6.041   7.231  16.947  0.00  0.00    +0.000 N 
ATOM      5  H   UNL     1       7.051   9.446  17.198  0.00  0.00    +0.000 HD
ATOM      6  H   UNL     1       5.959   7.770  16.098  0.00  0.00    +0.000 HD
ENDROOT
BRANCH   4   7
ATOM      7  C   UNL     1       5.211   6.095  17.080  0.00  0.00    +0.000 A 
ATOM      8  C   UNL     1       5.474   4.885  16.436  0.00  0.00    +0.000 A 
ATOM      9  C   UNL     1       4.625   3.786  16.592  0.00  0.00    +0.000 A 
ATOM     10  C   UNL     1       3.491   3.864  17.407  0.00  0.00    +0.000 A 
ATOM     11  C   UNL     1       3.226   5.079  18.055  0.00  0.00    +0.000 A 
ATOM     12  C   UNL     1       4.084   6.180  17.904  0.00  0.00    +0.000 A 
BRANCH  10  13
ATOM     13  C   UNL     1       2.621   2.634  17.589  0.00  0.00    +0.000 C 
ATOM     14  C   UNL     1       3.382   1.524  18.316  0.00  0.00    +0.000 C 
ATOM     15  C   UNL     1       1.302   2.951  18.296  0.00  0.00    +0.000 C 
ENDBRANCH  10  13
ENDBRANCH   4   7
BRANCH   1  16
ATOM     16  C   UNL     1       8.878   9.102  18.207  0.00  0.00    +0.000 C 
BRANCH  16  17
ATOM     17  C   UNL     1       8.901  10.575  18.588  0.00  0.00    +0.000 C 
BRANCH  17  18
ATOM     18  C   UNL     1      10.118  11.263  17.961  0.00  0.00    +0.000 C 
BRANCH  18  19
ATOM     19  C   UNL     1      10.311  12.677  18.504  0.00  0.00    +0.000 C 
BRANCH  19  21
ATOM     20  C   UNL     1      12.333  11.831  19.741  0.00  0.00    +0.000 C 
ATOM     21  C   UNL     1      11.067  12.667  19.833  0.00  0.00    +0.000 C 
ENDBRANCH  19  21
ENDBRANCH  18  19
ENDBRANCH  17  18
ENDBRANCH  16  17
ENDBRANCH   1  16
TORSDOF 7
ENDMDL
MODEL 8
REMARK VINA RESULT:      -6.2      1.112      1.401
REMARK  Name = 
REMARK  10 active torsions:
REMARK  status: ('A' for Active; 'I' for Inactive)
REMARK    1  A    between atoms: C_1  and  C_2
REMARK    2  A    between atoms: C_2  and  C_3
REMARK    3  A    between atoms: C_3  and  C_4
REMARK    4  A    between atoms: C_4  and  C_5
REMARK    5  A    between atoms: C_5  and  C_6
REMARK    6  A    between atoms: C_6  and  N_7
REMARK    7  A    between atoms: N_10  and  C_11
REMARK    8  A    between atoms: C_14  and  C_15
REMARK    9  A    between atoms: C_15  and  C_16
REMARK   10  A    between atoms: C_15  and  C_17
REMARK                            x       y       z     vdW  Elec       q    Type
REMARK                         _______ _______ _______ _____ _____    ______ ____
ROOT
ATOM      1  N   UNL     1       6.859   5.482  14.042  0.00  0.00    +0.000 N 
ATOM      2  C   UNL     1       6.118   4.817  15.009  0.00  0.00    +0.000 C 
ATOM      3  O   UNL     1       6.147   3.596  15.114  0.00  0.00    +0.000 OA
ATOM      4  N   UNL     1       5.366   5.682  15.774  0.00  0.00    +0.000 N 
ATOM      5  H   UNL     1       7.213   6.382  14.330  0.00  0.00    +0.000 HD
ATOM      6  H   UNL     1       5.187   6.586  15.364  0.00  0.00    +0.000 HD
ENDROOT
BRANCH   4   7
ATOM      7  C   UNL     1       4.580   5.307  16.888  0.00  0.00    +0.000 A 
ATOM      8  C   UNL     1       4.539   6.048  18.070  0.00  0.00    +0.000 A 
ATOM      9  C   UNL     1       3.752   5.640  19.150  0.00  0.00    +0.000 A 
ATOM     10  C   UNL     1       2.972   4.481  19.072  0.00  0.00    +0.000 A 
ATOM     11  C   UNL     1       3.011   3.737  17.885  0.00  0.00    +0.000 A 
ATOM     12  C   UNL     1       3.797   4.152  16.798  0.00  0.00    +0.000 A 
BRANCH  10  13
ATOM     13  C   UNL     1       2.091   4.099  20.248  0.00  0.00    +0.000 C 
ATOM     14  C   UNL     1       1.524   5.339  20.939  0.00  0.00    +0.000 C 
ATOM     15  C   UNL     1       0.975   3.131  19.851  0.00  0.00    +0.000 C 
ENDBRANCH  10  13
ENDBRANCH   4   7
BRANCH   1  16
ATOM     16  C   UNL     1       7.719   4.658  13.216  0.00  0.00    +0.000 C 
BRANCH  16  17
ATOM     17  C   UNL     1       7.162   4.400  11.823  0.00  0.00    +0.000 C 
BRANCH  17  18
ATOM     18  C   UNL     1       7.017   2.894  11.582  0.00  0.00    +0.000 C 
BRANCH  18  19
ATOM     19  C   UNL     1       5.586   2.418  11.821  0.00  0.00    +0.000 C 
BRANCH  19  21
ATOM     20  C   UNL     1       3.488   3.215  10.682  0.00  0.00    +0.000 C 
ATOM     21  C   UNL     1       4.584   3.564  11.675  0.00  0.00    +0.000 C 
ENDBRANCH  19  21
ENDBRANCH  18  19
ENDBRANCH  17  18
ENDBRANCH  16  17
ENDBRANCH   1  16
TORSDOF 7
ENDMDL
MODEL 9
REMARK VINA RESULT:      -6.2      4.116      6.779
REMARK  Name = 
REMARK  10 active torsions:
REMARK  status: ('A' for Active; 'I' for Inactive)
REMARK    1  A    between atoms: C_1  and  C_2
REMARK    2  A    between atoms: C_2  and  C_3
REMARK    3  A    between atoms: C_3  and  C_4
REMARK    4  A    between atoms: C_4  and  C_5
REMARK    5  A    between atoms: C_5  and  C_6
REMARK    6  A    between atoms: C_6  and  N_7
REMARK    7  A    between atoms: N_10  and  C_11
REMARK    8  A    between atoms: C_14  and  C_15
REMARK    9  A    between atoms: C_15  and  C_16
REMARK   10  A    between atoms: C_15  and  C_17
REMARK                            x       y       z     vdW  Elec       q    Type
REMARK                         _______ _______ _______ _____ _____    ______ ____
ROOT
ATOM      1  N   UNL     1       3.775   4.392  17.777  0.00  0.00    +0.000 N 
ATOM      2  C   UNL     1       2.753   5.322  17.911  0.00  0.00    +0.000 C 
ATOM      3  O   UNL     1       1.598   5.056  17.598  0.00  0.00    +0.000 OA
ATOM      4  N   UNL     1       3.208   6.528  18.398  0.00  0.00    +0.000 N 
ATOM      5  H   UNL     1       4.486   4.444  18.492  0.00  0.00    +0.000 HD
ATOM      6  H   UNL     1       4.196   6.700  18.288  0.00  0.00    +0.000 HD
ENDROOT
BRANCH   4   7
ATOM      7  C   UNL     1       2.389   7.635  18.721  0.00  0.00    +0.000 A 
ATOM      8  C   UNL     1       2.038   8.615  17.791  0.00  0.00    +0.000 A 
ATOM      9  C   UNL     1       1.228   9.695  18.153  0.00  0.00    +0.000 A 
ATOM     10  C   UNL     1       0.736   9.818  19.456  0.00  0.00    +0.000 A 
ATOM     11  C   UNL     1       1.086   8.833  20.391  0.00  0.00    +0.000 A 
ATOM     12  C   UNL     1       1.893   7.744  20.024  0.00  0.00    +0.000 A 
BRANCH  10  13
ATOM     13  C   UNL     1      -0.182  10.978  19.796  0.00  0.00    +0.000 C 
ATOM     14  C   UNL     1      -1.386  11.024  18.855  0.00  0.00    +0.000 C 
ATOM     15  C   UNL     1      -0.628  10.961  21.260  0.00  0.00    +0.000 C 
ENDBRANCH  10  13
ENDBRANCH   4   7
BRANCH   1  16
ATOM     16  C   UNL     1       3.385   3.075  17.314  0.00  0.00    +0.000 C 
BRANCH  16  17
ATOM     17  C   UNL     1       3.214   2.060  18.435  0.00  0.00    +0.000 C 
BRANCH  17  18
ATOM     18  C   UNL     1       1.756   2.035  18.906  0.00  0.00    +0.000 C 
BRANCH  18  19
ATOM     19  C   UNL     1       1.644   2.253  20.413  0.00  0.00    +0.000 C 
BRANCH  19  21
ATOM     20  C   UNL     1       2.270   4.489  21.383  0.00  0.00    +0.000 C 
ATOM     21  C   UNL     1       1.165   3.668  20.739  0.00  0.00    +0.000 C 
ENDBRANCH  19  21
ENDBRANCH  18  19
ENDBRANCH  17  18
ENDBRANCH  16  17
ENDBRANCH   1  16
TORSDOF 7
ENDMDL
