MODEL 1
REMARK VINA RESULT:      -7.9      0.000      0.000
REMARK  Name = 
REMARK  10 active torsions:
REMARK  status: ('A' for Active; 'I' for Inactive)
REMARK    1  A    between atoms: C_1  and  O_2
REMARK    2  A    between atoms: O_2  and  C_3
REMARK    3  A    between atoms: C_3  and  C_4
REMARK    4  A    between atoms: C_4  and  N_5
REMARK    5  A    between atoms: C_10  and  N_11
REMARK    6  A    between atoms: C_12  and  C_14
REMARK    7  A    between atoms: C_21  and  C_22
REMARK    8  A    between atoms: N_27  and  C_28
REMARK    9  A    between atoms: C_28  and  C_29
REMARK   10  A    between atoms: C_28  and  C_30
REMARK                            x       y       z     vdW  Elec       q    Type
REMARK                         _______ _______ _______ _____ _____    ______ ____
ROOT
ATOM      1  N   UNL     1      -0.902  10.996  22.042  0.00  0.00    +0.000 N 
ATOM      2  C   UNL     1      -0.815  10.404  23.279  0.00  0.00    +0.000 A 
ATOM      3  N   UNL     1      -0.073   9.331  23.261  0.00  0.00    +0.000 NA
ATOM      4  C   UNL     1       0.349   9.224  21.966  0.00  0.00    +0.000 A 
ATOM      5  C   UNL     1       1.179   8.224  21.441  0.00  0.00    +0.000 A 
ATOM      6  C   UNL     1       1.571   8.263  20.107  0.00  0.00    +0.000 A 
ATOM      7  C   UNL     1       1.163   9.348  19.329  0.00  0.00    +0.000 A 
ATOM      8  C   UNL     1       0.246  10.329  19.788  0.00  0.00    +0.000 A 
ATOM      9  C   UNL     1      -0.129  10.263  21.156  0.00  0.00    +0.000 A 
ENDROOT
BRANCH   8  10
ATOM     10  C   UNL     1      -0.160  11.436  18.880  0.00  0.00    +0.000 C 
ATOM     11  O   UNL     1      -1.121  11.234  18.140  0.00  0.00    +0.000 OA
ATOM     12  N   UNL     1       0.483  12.677  18.892  0.00  0.00    +0.000 N 
ATOM     13  C   UNL     1      -0.161  13.792  18.185  0.00  0.00    +0.000 C 
ATOM     14  C   UNL     1      -0.313  15.013  19.119  0.00  0.00    +0.000 C 
ATOM     15  N   UNL     1       0.955  15.462  19.757  0.00  0.00    +0.000 NA
ATOM     16  C   UNL     1       1.539  14.281  20.448  0.00  0.00    +0.000 C 
ATOM     17  C   UNL     1       1.756  13.056  19.525  0.00  0.00    +0.000 C 
BRANCH  15  18
ATOM     18  C   UNL     1       1.895  16.105  18.805  0.00  0.00    +0.000 C 
ATOM     19  C   UNL     1       1.275  17.329  18.109  0.00  0.00    +0.000 C 
ATOM     20  C   UNL     1       3.180  16.578  19.504  0.00  0.00    +0.000 C 
ENDBRANCH  15  18
ENDBRANCH   8  10
BRANCH   6  21
ATOM     21  N   UNL     1       2.353   7.248  19.498  0.00  0.00    +0.000 N 
ATOM     22  C   UNL     1       2.278   5.895  19.803  0.00  0.00    +0.000 C 
ATOM     23  O   UNL     1       1.567   5.422  20.681  0.00  0.00    +0.000 OA
ATOM     24  H   UNL     1       2.934   7.522  18.719  0.00  0.00    +0.000 HD
BRANCH  22  25
ATOM     25  C   UNL     1       3.192   4.985  18.973  0.00  0.00    +0.000 C 
ATOM     26  C   UNL     1       3.699   3.817  19.845  0.00  0.00    +0.000 C 
ATOM     27  C   UNL     1       2.606   2.786  20.143  0.00  0.00    +0.000 C 
ATOM     28  C   UNL     1       1.937   2.275  18.873  0.00  0.00    +0.000 C 
ATOM     29  C   UNL     1       1.457   3.408  17.971  0.00  0.00    +0.000 C 
ATOM     30  C   UNL     1       2.556   4.433  17.692  0.00  0.00    +0.000 C 
ENDBRANCH  22  25
ENDBRANCH   6  21
BRANCH   1  31
ATOM     31  C   UNL     1      -1.660  12.219  21.857  0.00  0.00    +0.000 C 
BRANCH  31  32
ATOM     32  C   UNL     1      -2.334  12.738  23.120  0.00  0.00    +0.000 C 
BRANCH  32  34
ATOM     33  C   UNL     1      -4.263  12.498  24.447  0.00  0.00    +0.000 C 
ATOM     34  O   UNL     1      -3.705  12.331  23.148  0.00  0.00    +0.000 OA
ENDBRANCH  32  34
ENDBRANCH  31  32
ENDBRANCH   1  31
TORSDOF 7
ENDMDL
MODEL 2
REMARK VINA RESULT:      -7.7      1.434      1.659
REMARK  Name = 
REMARK  10 active torsions:
REMARK  status: ('A' for Active; 'I' for Inactive)
REMARK    1  A    between atoms: C_1  and  O_2
REMARK    2  A    between atoms: O_2  and  C_3
REMARK    3  A    between atoms: C_3  and  C_4
REMARK    4  A    between atoms: C_4  and  N_5
REMARK    5  A    between atoms: C_10  and  N_11
REMARK    6  A    between atoms: C_12  and  C_14
REMARK    7  A    between atoms: C_21  and  C_22
REMARK    8  A    between atoms: N_27  and  C_28
REMARK    9  A    between atoms: C_28  and  C_29
REMARK   10  A    between atoms: C_28  and  C_30
REMARK                            x       y       z     vdW  Elec       q    Type
REMARK                         _______ _______ _______ _____ _____    ______ ____
ROOT
ATOM      1  N   UNL     1      -1.243  11.918  21.945  0.00  0.00    +0.000 N 
ATOM      2  C   UNL     1      -1.556  11.535  23.226  0.00  0.00    +0.000 A 
ATOM      3  N   UNL     1      -1.036  10.380  23.535  0.00  0.00    +0.000 NA
ATOM      4  C   UNL     1      -0.348   9.999  22.419  0.00  0.00    +0.000 A 
ATOM      5  C   UNL     1       0.388   8.817  22.257  0.00  0.00    +0.000 A 
ATOM      6  C   UNL     1       1.082   8.577  21.076  0.00  0.00    +0.000 A 
ATOM      7  C   UNL     1       1.070   9.563  20.089  0.00  0.00    +0.000 A 
ATOM      8  C   UNL     1       0.263  10.728  20.167  0.00  0.00    +0.000 A 
ATOM      9  C   UNL     1      -0.428  10.945  21.388  0.00  0.00    +0.000 A 
ENDROOT
BRANCH   8  10
ATOM     10  C   UNL     1       0.288  11.714  19.053  0.00  0.00    +0.000 C 
ATOM     11  O   UNL     1      -0.476  11.517  18.110  0.00  0.00    +0.000 OA
ATOM     12  N   UNL     1       1.102  12.849  19.086  0.00  0.00    +0.000 N 
ATOM     13  C   UNL     1       0.851  13.906  18.098  0.00  0.00    +0.000 C 
ATOM     14  C   UNL     1       0.673  15.272  18.797  0.00  0.00    +0.000 C 
ATOM     15  N   UNL     1       1.796  15.655  19.696  0.00  0.00    +0.000 NA
ATOM     16  C   UNL     1       1.983  14.538  20.661  0.00  0.00    +0.000 C 
ATOM     17  C   UNL     1       2.220  13.162  19.991  0.00  0.00    +0.000 C 
BRANCH  15  18
ATOM     18  C   UNL     1       3.038  16.011  18.965  0.00  0.00    +0.000 C 
ATOM     19  C   UNL     1       2.756  16.854  17.710  0.00  0.00    +0.000 C 
ATOM     20  C   UNL     1       4.009  16.812  19.848  0.00  0.00    +0.000 C 
ENDBRANCH  15  18
ENDBRANCH   8  10
BRANCH   6  21
ATOM     21  N   UNL     1       1.789   7.373  20.823  0.00  0.00    +0.000 N 
ATOM     22  C   UNL     1       2.318   7.002  19.594  0.00  0.00    +0.000 C 
ATOM     23  O   UNL     1       2.184   7.646  18.561  0.00  0.00    +0.000 OA
ATOM     24  H   UNL     1       2.005   6.792  21.621  0.00  0.00    +0.000 HD
BRANCH  22  25
ATOM     25  C   UNL     1       3.083   5.673  19.584  0.00  0.00    +0.000 C 
ATOM     26  C   UNL     1       2.486   4.717  20.637  0.00  0.00    +0.000 C 
ATOM     27  C   UNL     1       1.118   4.164  20.224  0.00  0.00    +0.000 C 
ATOM     28  C   UNL     1       1.154   3.513  18.846  0.00  0.00    +0.000 C 
ATOM     29  C   UNL     1       1.775   4.421  17.788  0.00  0.00    +0.000 C 
ATOM     30  C   UNL     1       3.133   4.972  18.221  0.00  0.00    +0.000 C 
ENDBRANCH  22  25
ENDBRANCH   6  21
BRANCH   1  31
ATOM     31  C   UNL     1      -1.704  13.189  21.417  0.00  0.00    +0.000 C 
BRANCH  31  32
ATOM     32  C   UNL     1      -3.132  13.171  20.893  0.00  0.00    +0.000 C 
BRANCH  32  34
ATOM     33  C   UNL     1      -4.569  12.236  19.279  0.00  0.00    +0.000 C 
ATOM     34  O   UNL     1      -3.245  12.252  19.803  0.00  0.00    +0.000 OA
ENDBRANCH  32  34
ENDBRANCH  31  32
ENDBRANCH   1  31
TORSDOF 7
ENDMDL
MODEL 3
REMARK VINA RESULT:      -7.6      1.619      2.251
REMARK  Name = 
REMARK  10 active torsions:
REMARK  status: ('A' for Active; 'I' for Inactive)
REMARK    1  A    between atoms: C_1  and  O_2
REMARK    2  A    between atoms: O_2  and  C_3
REMARK    3  A    between atoms: C_3  and  C_4
REMARK    4  A    between atoms: C_4  and  N_5
REMARK    5  A    between atoms: C_10  and  N_11
REMARK    6  A    between atoms: C_12  and  C_14
REMARK    7  A    between atoms: C_21  and  C_22
REMARK    8  A    between atoms: N_27  and  C_28
REMARK    9  A    between atoms: C_28  and  C_29
REMARK   10  A    between atoms: C_28  and  C_30
REMARK                            x       y       z     vdW  Elec       q    Type
REMARK                         _______ _______ _______ _____ _____    ______ ____
ROOT
ATOM      1  N   UNL     1      -0.335  10.350  21.680  0.00  0.00    +0.000 N 
ATOM      2  C   UNL     1      -0.017   9.587  22.776  0.00  0.00    +0.000 A 
ATOM      3  N   UNL     1       0.796   8.611  22.478  0.00  0.00    +0.000 NA
ATOM      4  C   UNL     1       1.025   8.748  21.139  0.00  0.00    +0.000 A 
ATOM      5  C   UNL     1       1.842   7.931  20.346  0.00  0.00    +0.000 A 
ATOM      6  C   UNL     1       2.024   8.215  18.997  0.00  0.00    +0.000 A 
ATOM      7  C   UNL     1       1.421   9.359  18.474  0.00  0.00    +0.000 A 
ATOM      8  C   UNL     1       0.509  10.160  19.210  0.00  0.00    +0.000 A 
ATOM      9  C   UNL     1       0.351   9.846  20.586  0.00  0.00    +0.000 A 
ENDROOT
BRANCH   8  10
ATOM     10  C   UNL     1      -0.113  11.346  18.565  0.00  0.00    +0.000 C 
ATOM     11  O   UNL     1      -1.206  11.185  18.025  0.00  0.00    +0.000 OA
ATOM     12  N   UNL     1       0.482  12.610  18.605  0.00  0.00    +0.000 N 
ATOM     13  C   UNL     1      -0.329  13.767  18.205  0.00  0.00    +0.000 C 
ATOM     14  C   UNL     1      -0.308  14.852  19.304  0.00  0.00    +0.000 C 
ATOM     15  N   UNL     1       1.056  15.288  19.712  0.00  0.00    +0.000 NA
ATOM     16  C   UNL     1       1.807  14.064  20.101  0.00  0.00    +0.000 C 
ATOM     17  C   UNL     1       1.852  12.978  18.999  0.00  0.00    +0.000 C 
BRANCH  15  18
ATOM     18  C   UNL     1       1.748  16.096  18.677  0.00  0.00    +0.000 C 
ATOM     19  C   UNL     1       0.935  17.332  18.259  0.00  0.00    +0.000 C 
ATOM     20  C   UNL     1       3.119  16.593  19.166  0.00  0.00    +0.000 C 
ENDBRANCH  15  18
ENDBRANCH   8  10
BRANCH   6  21
ATOM     21  N   UNL     1       2.783   7.390  18.126  0.00  0.00    +0.000 N 
ATOM     22  C   UNL     1       3.407   6.206  18.494  0.00  0.00    +0.000 C 
ATOM     23  O   UNL     1       3.428   5.760  19.635  0.00  0.00    +0.000 OA
ATOM     24  H   UNL     1       2.784   7.636  17.146  0.00  0.00    +0.000 HD
BRANCH  22  25
ATOM     25  C   UNL     1       4.129   5.466  17.361  0.00  0.00    +0.000 C 
ATOM     26  C   UNL     1       4.874   6.478  16.466  0.00  0.00    +0.000 C 
ATOM     27  C   UNL     1       6.116   7.064  17.146  0.00  0.00    +0.000 C 
ATOM     28  C   UNL     1       7.058   5.979  17.654  0.00  0.00    +0.000 C 
ATOM     29  C   UNL     1       6.342   4.940  18.512  0.00  0.00    +0.000 C 
ATOM     30  C   UNL     1       5.101   4.374  17.824  0.00  0.00    +0.000 C 
ENDBRANCH  22  25
ENDBRANCH   6  21
BRANCH   1  31
ATOM     31  C   UNL     1      -1.205  11.505  21.807  0.00  0.00    +0.000 C 
BRANCH  31  32
ATOM     32  C   UNL     1      -1.625  11.821  23.235  0.00  0.00    +0.000 C 
BRANCH  32  34
ATOM     33  C   UNL     1      -3.634  12.631  22.314  0.00  0.00    +0.000 C 
ATOM     34  O   UNL     1      -3.052  11.832  23.338  0.00  0.00    +0.000 OA
ENDBRANCH  32  34
ENDBRANCH  31  32
ENDBRANCH   1  31
TORSDOF 7
ENDMDL
MODEL 4
REMARK VINA RESULT:      -7.3      0.871      1.204
REMARK  Name = 
REMARK  10 active torsions:
REMARK  status: ('A' for Active; 'I' for Inactive)
REMARK    1  A    between atoms: C_1  and  O_2
REMARK    2  A    between atoms: O_2  and  C_3
REMARK    3  A    between atoms: C_3  and  C_4
REMARK    4  A    between atoms: C_4  and  N_5
REMARK    5  A    between atoms: C_10  and  N_11
REMARK    6  A    between atoms: C_12  and  C_14
REMARK    7  A    between atoms: C_21  and  C_22
REMARK    8  A    between atoms: N_27  and  C_28
REMARK    9  A    between atoms: C_28  and  C_29
REMARK   10  A    between atoms: C_28  and  C_30
REMARK                            x       y       z     vdW  Elec       q    Type
REMARK                         _______ _______ _______ _____ _____    ______ ____
ROOT
ATOM      1  N   UNL     1      -1.072  11.228  21.975  0.00  0.00    +0.000 N 
ATOM      2  C   UNL     1      -1.185  10.816  23.280  0.00  0.00    +0.000 A 
ATOM      3  N   UNL     1      -0.490   9.738  23.519  0.00  0.00    +0.000 NA
ATOM      4  C   UNL     1       0.108   9.441  22.327  0.00  0.00    +0.000 A 
ATOM      5  C   UNL     1       0.965   8.362  22.073  0.00  0.00    +0.000 A 
ATOM      6  C   UNL     1       1.544   8.204  20.818  0.00  0.00    +0.000 A 
ATOM      7  C   UNL     1       1.293   9.174  19.847  0.00  0.00    +0.000 A 
ATOM      8  C   UNL     1       0.359  10.227  20.026  0.00  0.00    +0.000 A 
ATOM      9  C   UNL     1      -0.210  10.362  21.320  0.00  0.00    +0.000 A 
ENDROOT
BRANCH   8  10
ATOM     10  C   UNL     1       0.129  11.200  18.925  0.00  0.00    +0.000 C 
ATOM     11  O   UNL     1      -0.626  10.857  18.017  0.00  0.00    +0.000 OA
ATOM     12  N   UNL     1       0.701  12.476  18.933  0.00  0.00    +0.000 N 
ATOM     13  C   UNL     1       0.193  13.464  17.971  0.00  0.00    +0.000 C 
ATOM     14  C   UNL     1      -0.220  14.764  18.695  0.00  0.00    +0.000 C 
ATOM     15  N   UNL     1       0.846  15.363  19.543  0.00  0.00    +0.000 NA
ATOM     16  C   UNL     1       1.302  14.304  20.484  0.00  0.00    +0.000 C 
ATOM     17  C   UNL     1       1.777  13.005  19.786  0.00  0.00    +0.000 C 
BRANCH  15  18
ATOM     18  C   UNL     1       1.954  15.962  18.757  0.00  0.00    +0.000 C 
ATOM     19  C   UNL     1       1.515  17.228  18.001  0.00  0.00    +0.000 C 
ATOM     20  C   UNL     1       3.142  16.352  19.653  0.00  0.00    +0.000 C 
ENDBRANCH  15  18
ENDBRANCH   8  10
BRANCH   6  21
ATOM     21  N   UNL     1       2.365   7.098  20.476  0.00  0.00    +0.000 N 
ATOM     22  C   UNL     1       1.958   5.771  20.487  0.00  0.00    +0.000 C 
ATOM     23  O   UNL     1       0.853   5.389  20.853  0.00  0.00    +0.000 OA
ATOM     24  H   UNL     1       3.282   7.305  20.105  0.00  0.00    +0.000 HD
BRANCH  22  25
ATOM     25  C   UNL     1       3.015   4.757  20.030  0.00  0.00    +0.000 C 
ATOM     26  C   UNL     1       2.336   3.419  19.671  0.00  0.00    +0.000 C 
ATOM     27  C   UNL     1       1.545   3.490  18.361  0.00  0.00    +0.000 C 
ATOM     28  C   UNL     1       2.395   4.003  17.205  0.00  0.00    +0.000 C 
ATOM     29  C   UNL     1       3.111   5.308  17.542  0.00  0.00    +0.000 C 
ATOM     30  C   UNL     1       3.885   5.224  18.856  0.00  0.00    +0.000 C 
ENDBRANCH  22  25
ENDBRANCH   6  21
BRANCH   1  31
ATOM     31  C   UNL     1      -1.748  12.426  21.514  0.00  0.00    +0.000 C 
BRANCH  31  32
ATOM     32  C   UNL     1      -2.967  12.816  22.338  0.00  0.00    +0.000 C 
BRANCH  32  34
ATOM     33  C   UNL     1      -4.686  13.619  20.944  0.00  0.00    +0.000 C 
ATOM     34  O   UNL     1      -4.166  12.486  21.630  0.00  0.00    +0.000 OA
ENDBRANCH  32  34
ENDBRANCH  31  32
ENDBRANCH   1  31
TORSDOF 7
ENDMDL
MODEL 5
REMARK VINA RESULT:      -7.2      1.535      2.140
REMARK  Name = 
REMARK  10 active torsions:
REMARK  status: ('A' for Active; 'I' for Inactive)
REMARK    1  A    between atoms: C_1  and  O_2
REMARK    2  A    between atoms: O_2  and  C_3
REMARK    3  A    between atoms: C_3  and  C_4
REMARK    4  A    between atoms: C_4  and  N_5
REMARK    5  A    between atoms: C_10  and  N_11
REMARK    6  A    between atoms: C_12  and  C_14
REMARK    7  A    between atoms: C_21  and  C_22
REMARK    8  A    between atoms: N_27  and  C_28
REMARK    9  A    between atoms: C_28  and  C_29
REMARK   10  A    between atoms: C_28  and  C_30
REMARK                            x       y       z     vdW  Elec       q    Type
REMARK                         _______ _______ _______ _____ _____    ______ ____
ROOT
ATOM      1  N   UNL     1      -0.581  10.979  22.023  0.00  0.00    +0.000 N 
ATOM      2  C   UNL     1      -0.446  10.332  23.227  0.00  0.00    +0.000 A 
ATOM      3  N   UNL     1       0.202   9.206  23.111  0.00  0.00    +0.000 NA
ATOM      4  C   UNL     1       0.510   9.119  21.783  0.00  0.00    +0.000 A 
ATOM      5  C   UNL     1       1.212   8.079  21.158  0.00  0.00    +0.000 A 
ATOM      6  C   UNL     1       1.498   8.142  19.799  0.00  0.00    +0.000 A 
ATOM      7  C   UNL     1       1.121   9.286  19.095  0.00  0.00    +0.000 A 
ATOM      8  C   UNL     1       0.327  10.317  19.660  0.00  0.00    +0.000 A 
ATOM      9  C   UNL     1       0.056  10.224  21.051  0.00  0.00    +0.000 A 
ENDROOT
BRANCH   8  10
ATOM     10  C   UNL     1      -0.057  11.488  18.828  0.00  0.00    +0.000 C 
ATOM     11  O   UNL     1      -1.063  11.378  18.130  0.00  0.00    +0.000 OA
ATOM     12  N   UNL     1       0.657  12.689  18.864  0.00  0.00    +0.000 N 
ATOM     13  C   UNL     1       0.047  13.873  18.245  0.00  0.00    +0.000 C 
ATOM     14  C   UNL     1       0.012  15.052  19.241  0.00  0.00    +0.000 C 
ATOM     15  N   UNL     1       1.334  15.396  19.833  0.00  0.00    +0.000 NA
ATOM     16  C   UNL     1       1.881  14.151  20.437  0.00  0.00    +0.000 C 
ATOM     17  C   UNL     1       1.980  12.964  19.448  0.00  0.00    +0.000 C 
BRANCH  15  18
ATOM     18  C   UNL     1       2.262  16.033  18.865  0.00  0.00    +0.000 C 
ATOM     19  C   UNL     1       1.656  17.286  18.211  0.00  0.00    +0.000 C 
ATOM     20  C   UNL     1       3.581  16.457  19.534  0.00  0.00    +0.000 C 
ENDBRANCH  15  18
ENDBRANCH   8  10
BRANCH   6  21
ATOM     21  N   UNL     1       2.144   7.093  19.093  0.00  0.00    +0.000 N 
ATOM     22  C   UNL     1       3.085   7.271  18.088  0.00  0.00    +0.000 C 
ATOM     23  O   UNL     1       3.428   8.360  17.647  0.00  0.00    +0.000 OA
ATOM     24  H   UNL     1       1.974   6.151  19.416  0.00  0.00    +0.000 HD
BRANCH  22  25
ATOM     25  C   UNL     1       3.677   5.979  17.509  0.00  0.00    +0.000 C 
ATOM     26  C   UNL     1       4.851   6.319  16.567  0.00  0.00    +0.000 C 
ATOM     27  C   UNL     1       6.098   6.791  17.322  0.00  0.00    +0.000 C 
ATOM     28  C   UNL     1       6.525   5.801  18.399  0.00  0.00    +0.000 C 
ATOM     29  C   UNL     1       5.376   5.416  19.326  0.00  0.00    +0.000 C 
ATOM     30  C   UNL     1       4.138   4.959  18.557  0.00  0.00    +0.000 C 
ENDBRANCH  22  25
ENDBRANCH   6  21
BRANCH   1  31
ATOM     31  C   UNL     1      -1.249  12.265  21.943  0.00  0.00    +0.000 C 
BRANCH  31  32
ATOM     32  C   UNL     1      -2.698  12.193  21.485  0.00  0.00    +0.000 C 
BRANCH  32  34
ATOM     33  C   UNL     1      -3.124  13.066  23.630  0.00  0.00    +0.000 C 
ATOM     34  O   UNL     1      -3.572  12.171  22.618  0.00  0.00    +0.000 OA
ENDBRANCH  32  34
ENDBRANCH  31  32
ENDBRANCH   1  31
TORSDOF 7
ENDMDL
MODEL 6
REMARK VINA RESULT:      -7.1      1.134      1.464
REMARK  Name = 
REMARK  10 active torsions:
REMARK  status: ('A' for Active; 'I' for Inactive)
REMARK    1  A    between atoms: C_1  and  O_2
REMARK    2  A    between atoms: O_2  and  C_3
REMARK    3  A    between atoms: C_3  and  C_4
REMARK    4  A    between atoms: C_4  and  N_5
REMARK    5  A    between atoms: C_10  and  N_11
REMARK    6  A    between atoms: C_12  and  C_14
REMARK    7  A    between atoms: C_21  and  C_22
REMARK    8  A    between atoms: N_27  and  C_28
REMARK    9  A    between atoms: C_28  and  C_29
REMARK   10  A    between atoms: C_28  and  C_30
REMARK                            x       y       z     vdW  Elec       q    Type
REMARK                         _______ _______ _______ _____ _____    ______ ____
ROOT
ATOM      1  N   UNL     1      -0.852  11.274  21.919  0.00  0.00    +0.000 N 
ATOM      2  C   UNL     1      -0.761  10.434  23.002  0.00  0.00    +0.000 A 
ATOM      3  N   UNL     1      -0.063   9.365  22.739  0.00  0.00    +0.000 NA
ATOM      4  C   UNL     1       0.326   9.516  21.439  0.00  0.00    +0.000 A 
ATOM      5  C   UNL     1       1.104   8.619  20.693  0.00  0.00    +0.000 A 
ATOM      6  C   UNL     1       1.467   8.923  19.385  0.00  0.00    +0.000 A 
ATOM      7  C   UNL     1       1.085  10.159  18.862  0.00  0.00    +0.000 A 
ATOM      8  C   UNL     1       0.218  11.053  19.541  0.00  0.00    +0.000 A 
ATOM      9  C   UNL     1      -0.129  10.716  20.876  0.00  0.00    +0.000 A 
ENDROOT
BRANCH   8  10
ATOM     10  C   UNL     1      -0.163  12.338  18.896  0.00  0.00    +0.000 C 
ATOM     11  O   UNL     1      -1.101  12.313  18.102  0.00  0.00    +0.000 OA
ATOM     12  N   UNL     1       0.476  13.542  19.207  0.00  0.00    +0.000 N 
ATOM     13  C   UNL     1      -0.150  14.791  18.752  0.00  0.00    +0.000 C 
ATOM     14  C   UNL     1      -0.333  15.769  19.933  0.00  0.00    +0.000 C 
ATOM     15  N   UNL     1       0.914  16.057  20.693  0.00  0.00    +0.000 NA
ATOM     16  C   UNL     1       1.481  14.748  21.116  0.00  0.00    +0.000 C 
ATOM     17  C   UNL     1       1.729  13.764  19.947  0.00  0.00    +0.000 C 
BRANCH  15  18
ATOM     18  C   UNL     1       1.880  16.896  19.939  0.00  0.00    +0.000 C 
ATOM     19  C   UNL     1       1.282  18.252  19.529  0.00  0.00    +0.000 C 
ATOM     20  C   UNL     1       3.148  17.184  20.761  0.00  0.00    +0.000 C 
ENDBRANCH  15  18
ENDBRANCH   8  10
BRANCH   6  21
ATOM     21  N   UNL     1       2.195   8.030  18.556  0.00  0.00    +0.000 N 
ATOM     22  C   UNL     1       2.522   6.723  18.888  0.00  0.00    +0.000 C 
ATOM     23  O   UNL     1       2.272   6.199  19.967  0.00  0.00    +0.000 OA
ATOM     24  H   UNL     1       2.403   8.343  17.618  0.00  0.00    +0.000 HD
BRANCH  22  25
ATOM     25  C   UNL     1       3.273   5.939  17.803  0.00  0.00    +0.000 C 
ATOM     26  C   UNL     1       4.793   6.044  18.041  0.00  0.00    +0.000 C 
ATOM     27  C   UNL     1       5.261   5.219  19.244  0.00  0.00    +0.000 C 
ATOM     28  C   UNL     1       4.817   3.764  19.150  0.00  0.00    +0.000 C 
ATOM     29  C   UNL     1       3.322   3.628  18.878  0.00  0.00    +0.000 C 
ATOM     30  C   UNL     1       2.870   4.465  17.682  0.00  0.00    +0.000 C 
ENDBRANCH  22  25
ENDBRANCH   6  21
BRANCH   1  31
ATOM     31  C   UNL     1      -1.565  12.534  22.014  0.00  0.00    +0.000 C 
BRANCH  31  32
ATOM     32  C   UNL     1      -1.303  13.308  23.298  0.00  0.00    +0.000 C 
BRANCH  32  34
ATOM     33  C   UNL     1      -3.533  12.761  23.819  0.00  0.00    +0.000 C 
ATOM     34  O   UNL     1      -2.537  13.777  23.851  0.00  0.00    +0.000 OA
ENDBRANCH  32  34
ENDBRANCH  31  32
ENDBRANCH   1  31
TORSDOF 7
ENDMDL
MODEL 7
REMARK VINA RESULT:      -7.0      2.274      4.876
REMARK  Name = 
REMARK  10 active torsions:
REMARK  status: ('A' for Active; 'I' for Inactive)
REMARK    1  A    between atoms: C_1  and  O_2
REMARK    2  A    between atoms: O_2  and  C_3
REMARK    3  A    between atoms: C_3  and  C_4
REMARK    4  A    between atoms: C_4  and  N_5
REMARK    5  A    between atoms: C_10  and  N_11
REMARK    6  A    between atoms: C_12  and  C_14
REMARK    7  A    between atoms: C_21  and  C_22
REMARK    8  A    between atoms: N_27  and  C_28
REMARK    9  A    between atoms: C_28  and  C_29
REMARK   10  A    between atoms: C_28  and  C_30
REMARK                            x       y       z     vdW  Elec       q    Type
REMARK                         _______ _______ _______ _____ _____    ______ ____
ROOT
ATOM      1  N   UNL     1       1.302  13.517  20.144  0.00  0.00    +0.000 N 
ATOM      2  C   UNL     1       1.962  14.142  19.115  0.00  0.00    +0.000 A 
ATOM      3  N   UNL     1       2.379  13.299  18.211  0.00  0.00    +0.000 NA
ATOM      4  C   UNL     1       1.966  12.077  18.662  0.00  0.00    +0.000 A 
ATOM      5  C   UNL     1       2.176  10.843  18.031  0.00  0.00    +0.000 A 
ATOM      6  C   UNL     1       1.657   9.675  18.580  0.00  0.00    +0.000 A 
ATOM      7  C   UNL     1       0.881   9.775  19.736  0.00  0.00    +0.000 A 
ATOM      8  C   UNL     1       0.725  10.984  20.462  0.00  0.00    +0.000 A 
ATOM      9  C   UNL     1       1.261  12.158  19.871  0.00  0.00    +0.000 A 
ENDROOT
BRANCH   8  10
ATOM     10  C   UNL     1      -0.095  10.994  21.703  0.00  0.00    +0.000 C 
ATOM     11  O   UNL     1       0.421  10.539  22.722  0.00  0.00    +0.000 OA
ATOM     12  N   UNL     1      -1.381  11.540  21.738  0.00  0.00    +0.000 N 
ATOM     13  C   UNL     1      -1.996  11.773  23.051  0.00  0.00    +0.000 C 
ATOM     14  C   UNL     1      -2.483  13.234  23.173  0.00  0.00    +0.000 C 
ATOM     15  N   UNL     1      -3.399  13.670  22.084  0.00  0.00    +0.000 NA
ATOM     16  C   UNL     1      -2.705  13.403  20.795  0.00  0.00    +0.000 C 
ATOM     17  C   UNL     1      -2.253  11.932  20.618  0.00  0.00    +0.000 C 
BRANCH  15  18
ATOM     18  C   UNL     1      -4.744  13.046  22.164  0.00  0.00    +0.000 C 
ATOM     19  C   UNL     1      -5.415  13.277  23.529  0.00  0.00    +0.000 C 
ATOM     20  C   UNL     1      -5.693  13.599  21.087  0.00  0.00    +0.000 C 
ENDBRANCH  15  18
ENDBRANCH   8  10
BRANCH   6  21
ATOM     21  N   UNL     1       1.890   8.389  18.028  0.00  0.00    +0.000 N 
ATOM     22  C   UNL     1       2.262   7.266  18.755  0.00  0.00    +0.000 C 
ATOM     23  O   UNL     1       2.494   7.266  19.958  0.00  0.00    +0.000 OA
ATOM     24  H   UNL     1       1.673   8.264  17.049  0.00  0.00    +0.000 HD
BRANCH  22  25
ATOM     25  C   UNL     1       2.408   5.976  17.938  0.00  0.00    +0.000 C 
ATOM     26  C   UNL     1       3.852   5.852  17.410  0.00  0.00    +0.000 C 
ATOM     27  C   UNL     1       4.858   5.506  18.513  0.00  0.00    +0.000 C 
ATOM     28  C   UNL     1       4.448   4.263  19.294  0.00  0.00    +0.000 C 
ATOM     29  C   UNL     1       3.010   4.339  19.799  0.00  0.00    +0.000 C 
ATOM     30  C   UNL     1       2.023   4.695  18.689  0.00  0.00    +0.000 C 
ENDBRANCH  22  25
ENDBRANCH   6  21
BRANCH   1  31
ATOM     31  C   UNL     1       0.735  14.284  21.237  0.00  0.00    +0.000 C 
BRANCH  31  32
ATOM     32  C   UNL     1       1.648  15.374  21.780  0.00  0.00    +0.000 C 
BRANCH  32  34
ATOM     33  C   UNL     1       3.760  15.747  22.750  0.00  0.00    +0.000 C 
ATOM     34  O   UNL     1       2.737  14.789  22.500  0.00  0.00    +0.000 OA
ENDBRANCH  32  34
ENDBRANCH  31  32
ENDBRANCH   1  31
TORSDOF 7
ENDMDL
MODEL 8
REMARK VINA RESULT:      -6.9      1.434      1.724
REMARK  Name = 
REMARK  10 active torsions:
REMARK  status: ('A' for Active; 'I' for Inactive)
REMARK    1  A    between atoms: C_1  and  O_2
REMARK    2  A    between atoms: O_2  and  C_3
REMARK    3  A    between atoms: C_3  and  C_4
REMARK    4  A    between atoms: C_4  and  N_5
REMARK    5  A    between atoms: C_10  and  N_11
REMARK    6  A    between atoms: C_12  and  C_14
REMARK    7  A    between atoms: C_21  and  C_22
REMARK    8  A    between atoms: N_27  and  C_28
REMARK    9  A    between atoms: C_28  and  C_29
REMARK   10  A    between atoms: C_28  and  C_30
REMARK                            x       y       z     vdW  Elec       q    Type
REMARK                         _______ _______ _______ _____ _____    ______ ____
ROOT
ATOM      1  N   UNL     1      -0.115  10.389  21.865  0.00  0.00    +0.000 N 
ATOM      2  C   UNL     1       0.240   9.738  23.022  0.00  0.00    +0.000 A 
ATOM      3  N   UNL     1       0.947   8.667  22.788  0.00  0.00    +0.000 NA
ATOM      4  C   UNL     1       1.069   8.623  21.428  0.00  0.00    +0.000 A 
ATOM      5  C   UNL     1       1.749   7.649  20.685  0.00  0.00    +0.000 A 
ATOM      6  C   UNL     1       1.833   7.752  19.300  0.00  0.00    +0.000 A 
ATOM      7  C   UNL     1       1.274   8.873  18.685  0.00  0.00    +0.000 A 
ATOM      8  C   UNL     1       0.493   9.831  19.382  0.00  0.00    +0.000 A 
ATOM      9  C   UNL     1       0.433   9.699  20.795  0.00  0.00    +0.000 A 
ENDROOT
BRANCH   8  10
ATOM     10  C   UNL     1      -0.092  10.980  18.641  0.00  0.00    +0.000 C 
ATOM     11  O   UNL     1      -1.139  10.780  18.028  0.00  0.00    +0.000 OA
ATOM     12  N   UNL     1       0.483  12.253  18.673  0.00  0.00    +0.000 N 
ATOM     13  C   UNL     1      -0.309  13.381  18.164  0.00  0.00    +0.000 C 
ATOM     14  C   UNL     1      -0.385  14.511  19.214  0.00  0.00    +0.000 C 
ATOM     15  N   UNL     1       0.938  14.983  19.706  0.00  0.00    +0.000 NA
ATOM     16  C   UNL     1       1.673  13.788  20.202  0.00  0.00    +0.000 C 
ATOM     17  C   UNL     1       1.815  12.658  19.153  0.00  0.00    +0.000 C 
BRANCH  15  18
ATOM     18  C   UNL     1       1.698  15.758  18.693  0.00  0.00    +0.000 C 
ATOM     19  C   UNL     1       0.972  17.049  18.278  0.00  0.00    +0.000 C 
ATOM     20  C   UNL     1       3.090  16.161  19.210  0.00  0.00    +0.000 C 
ENDBRANCH  15  18
ENDBRANCH   8  10
BRANCH   6  21
ATOM     21  N   UNL     1       2.449   6.767  18.485  0.00  0.00    +0.000 N 
ATOM     22  C   UNL     1       3.662   6.921  17.828  0.00  0.00    +0.000 C 
ATOM     23  O   UNL     1       4.321   7.953  17.825  0.00  0.00    +0.000 OA
ATOM     24  H   UNL     1       2.016   5.854  18.463  0.00  0.00    +0.000 HD
BRANCH  22  25
ATOM     25  C   UNL     1       4.144   5.693  17.045  0.00  0.00    +0.000 C 
ATOM     26  C   UNL     1       5.633   5.430  17.349  0.00  0.00    +0.000 C 
ATOM     27  C   UNL     1       5.859   4.871  18.758  0.00  0.00    +0.000 C 
ATOM     28  C   UNL     1       5.015   3.631  19.025  0.00  0.00    +0.000 C 
ATOM     29  C   UNL     1       3.540   3.848  18.698  0.00  0.00    +0.000 C 
ATOM     30  C   UNL     1       3.334   4.415  17.295  0.00  0.00    +0.000 C 
ENDBRANCH  22  25
ENDBRANCH   6  21
BRANCH   1  31
ATOM     31  C   UNL     1      -0.881  11.620  21.912  0.00  0.00    +0.000 C 
BRANCH  31  32
ATOM     32  C   UNL     1      -1.860  11.707  23.075  0.00  0.00    +0.000 C 
BRANCH  32  34
ATOM     33  C   UNL     1      -3.835  12.733  23.841  0.00  0.00    +0.000 C 
ATOM     34  O   UNL     1      -2.873  12.677  22.793  0.00  0.00    +0.000 OA
ENDBRANCH  32  34
ENDBRANCH  31  32
ENDBRANCH   1  31
TORSDOF 7
ENDMDL
MODEL 9
REMARK VINA RESULT:      -6.9      2.216      4.533
REMARK  Name = 
REMARK  10 active torsions:
REMARK  status: ('A' for Active; 'I' for Inactive)
REMARK    1  A    between atoms: C_1  and  O_2
REMARK    2  A    between atoms: O_2  and  C_3
REMARK    3  A    between atoms: C_3  and  C_4
REMARK    4  A    between atoms: C_4  and  N_5
REMARK    5  A    between atoms: C_10  and  N_11
REMARK    6  A    between atoms: C_12  and  C_14
REMARK    7  A    between atoms: C_21  and  C_22
REMARK    8  A    between atoms: N_27  and  C_28
REMARK    9  A    between atoms: C_28  and  C_29
REMARK   10  A    between atoms: C_28  and  C_30
REMARK                            x       y       z     vdW  Elec       q    Type
REMARK                         _______ _______ _______ _____ _____    ______ ____
ROOT
ATOM      1  N   UNL     1       1.842  12.045  19.334  0.00  0.00    +0.000 N 
ATOM      2  C   UNL     1       2.358  12.382  18.107  0.00  0.00    +0.000 A 
ATOM      3  N   UNL     1       2.625  11.333  17.379  0.00  0.00    +0.000 NA
ATOM      4  C   UNL     1       2.259  10.271  18.157  0.00  0.00    +0.000 A 
ATOM      5  C   UNL     1       2.353   8.916  17.812  0.00  0.00    +0.000 A 
ATOM      6  C   UNL     1       1.899   7.934  18.686  0.00  0.00    +0.000 A 
ATOM      7  C   UNL     1       1.301   8.338  19.881  0.00  0.00    +0.000 A 
ATOM      8  C   UNL     1       1.272   9.688  20.316  0.00  0.00    +0.000 A 
ATOM      9  C   UNL     1       1.739  10.665  19.397  0.00  0.00    +0.000 A 
ENDROOT
BRANCH   8  10
ATOM     10  C   UNL     1       0.641  10.026  21.620  0.00  0.00    +0.000 C 
ATOM     11  O   UNL     1       1.261   9.731  22.639  0.00  0.00    +0.000 OA
ATOM     12  N   UNL     1      -0.583  10.696  21.699  0.00  0.00    +0.000 N 
ATOM     13  C   UNL     1      -0.985  11.245  23.001  0.00  0.00    +0.000 C 
ATOM     14  C   UNL     1      -1.340  12.743  22.874  0.00  0.00    +0.000 C 
ATOM     15  N   UNL     1      -2.368  13.046  21.841  0.00  0.00    +0.000 NA
ATOM     16  C   UNL     1      -1.886  12.461  20.560  0.00  0.00    +0.000 C 
ATOM     17  C   UNL     1      -1.574  10.946  20.640  0.00  0.00    +0.000 C 
BRANCH  15  18
ATOM     18  C   UNL     1      -3.730  12.591  22.216  0.00  0.00    +0.000 C 
ATOM     19  C   UNL     1      -4.188  13.169  23.566  0.00  0.00    +0.000 C 
ATOM     20  C   UNL     1      -4.776  12.997  21.165  0.00  0.00    +0.000 C 
ENDBRANCH  15  18
ENDBRANCH   8  10
BRANCH   6  21
ATOM     21  N   UNL     1       2.027   6.545  18.427  0.00  0.00    +0.000 N 
ATOM     22  C   UNL     1       3.028   5.729  18.936  0.00  0.00    +0.000 C 
ATOM     23  O   UNL     1       3.960   6.124  19.625  0.00  0.00    +0.000 OA
ATOM     24  H   UNL     1       1.277   6.104  17.913  0.00  0.00    +0.000 HD
BRANCH  22  25
ATOM     25  C   UNL     1       2.925   4.247  18.550  0.00  0.00    +0.000 C 
ATOM     26  C   UNL     1       3.599   3.378  19.631  0.00  0.00    +0.000 C 
ATOM     27  C   UNL     1       2.783   3.305  20.926  0.00  0.00    +0.000 C 
ATOM     28  C   UNL     1       1.348   2.858  20.675  0.00  0.00    +0.000 C 
ATOM     29  C   UNL     1       0.664   3.676  19.583  0.00  0.00    +0.000 C 
ATOM     30  C   UNL     1       1.496   3.747  18.304  0.00  0.00    +0.000 C 
ENDBRANCH  22  25
ENDBRANCH   6  21
BRANCH   1  31
ATOM     31  C   UNL     1       1.453  13.073  20.283  0.00  0.00    +0.000 C 
BRANCH  31  32
ATOM     32  C   UNL     1       2.616  13.719  21.021  0.00  0.00    +0.000 C 
BRANCH  32  34
ATOM     33  C   UNL     1       2.072  15.876  21.793  0.00  0.00    +0.000 C 
ATOM     34  O   UNL     1       2.131  14.493  22.123  0.00  0.00    +0.000 OA
ENDBRANCH  32  34
ENDBRANCH  31  32
ENDBRANCH   1  31
TORSDOF 7
ENDMDL
