MODEL 1
REMARK VINA RESULT:      -7.7      0.000      0.000
REMARK  Name = 
REMARK  5 active torsions:
REMARK  status: ('A' for Active; 'I' for Inactive)
REMARK    1  A    between atoms: C_2  and  C_3
REMARK    2  A    between atoms: C_10  and  C_12
REMARK    3  A    between atoms: C_12  and  N_13
REMARK    4  A    between atoms: C_14  and  C_16
REMARK    5  A    between atoms: C_19  and  C_20
REMARK                            x       y       z     vdW  Elec       q    Type
REMARK                         _______ _______ _______ _____ _____    ______ ____
ROOT
ATOM      1  N   UNL     1       1.915   8.092  19.461  0.00  0.00    +0.000 N 
ATOM      2  C   UNL     1       1.586   9.034  18.482  0.00  0.00    +0.000 C 
ATOM      3  O   UNL     1       2.119   9.037  17.387  0.00  0.00    +0.000 OA
ATOM      4  H   UNL     1       1.311   7.983  20.263  0.00  0.00    +0.000 HD
ENDROOT
BRANCH   2   5
ATOM      5  C   UNL     1       0.575  10.024  18.881  0.00  0.00    +0.000 A 
ATOM      6  C   UNL     1       0.725  10.890  19.944  0.00  0.00    +0.000 A 
ATOM      7  S   UNL     1      -0.654  11.868  20.131  0.00  0.00    +0.000 S 
ATOM      8  C   UNL     1      -1.403  11.067  18.798  0.00  0.00    +0.000 A 
ATOM      9  N   UNL     1      -0.635  10.184  18.187  0.00  0.00    +0.000 NA
BRANCH   8  10
ATOM     10  C   UNL     1      -2.787  11.407  18.433  0.00  0.00    +0.000 A 
ATOM     11  C   UNL     1      -3.299  11.068  17.171  0.00  0.00    +0.000 A 
ATOM     12  C   UNL     1      -4.612  11.405  16.819  0.00  0.00    +0.000 A 
ATOM     13  C   UNL     1      -5.426  12.075  17.729  0.00  0.00    +0.000 A 
ATOM     14 CL   UNL     1      -7.030  12.509  17.291  0.00  0.00    +0.000 Cl
ATOM     15  C   UNL     1      -4.947  12.400  18.994  0.00  0.00    +0.000 A 
ATOM     16  C   UNL     1      -3.637  12.065  19.343  0.00  0.00    +0.000 A 
ENDBRANCH   8  10
ENDBRANCH   2   5
BRANCH   1  17
ATOM     17  C   UNL     1       2.891   7.057  19.148  0.00  0.00    +0.000 C 
BRANCH  17  25
ATOM     18  C   UNL     1       4.438   4.422  18.156  0.00  0.00    +0.000 C 
ATOM     19  C   UNL     1       4.225   3.149  17.348  0.00  0.00    +0.000 C 
ATOM     20  C   UNL     1       3.239   2.324  18.164  0.00  0.00    +0.000 C 
ATOM     21  F   UNL     1       2.174   2.000  17.396  0.00  0.00    +0.000 F 
ATOM     22  F   UNL     1       3.813   1.171  18.569  0.00  0.00    +0.000 F 
ATOM     23  C   UNL     1       2.809   3.173  19.353  0.00  0.00    +0.000 C 
ATOM     24  N   UNL     1       3.224   4.526  19.015  0.00  0.00    +0.000 N 
ATOM     25  C   UNL     1       2.530   5.608  19.564  0.00  0.00    +0.000 C 
ATOM     26  O   UNL     1       1.610   5.412  20.366  0.00  0.00    +0.000 OA
BRANCH  18  28
ATOM     27  N   UNL     1       4.684   6.663  16.528  0.00  0.00    +0.000 NA
ATOM     28  C   UNL     1       4.573   5.646  17.266  0.00  0.00    +0.000 C 
ENDBRANCH  18  28
ENDBRANCH  17  25
ENDBRANCH   1  17
TORSDOF 5
ENDMDL
MODEL 2
REMARK VINA RESULT:      -7.7      7.586      9.159
REMARK  Name = 
REMARK  5 active torsions:
REMARK  status: ('A' for Active; 'I' for Inactive)
REMARK    1  A    between atoms: C_2  and  C_3
REMARK    2  A    between atoms: C_10  and  C_12
REMARK    3  A    between atoms: C_12  and  N_13
REMARK    4  A    between atoms: C_14  and  C_16
REMARK    5  A    between atoms: C_19  and  C_20
REMARK                            x       y       z     vdW  Elec       q    Type
REMARK                         _______ _______ _______ _____ _____    ______ ____
ROOT
ATOM      1  N   UNL     1       8.222   7.390  18.294  0.00  0.00    +0.000 N 
ATOM      2  C   UNL     1       7.843   8.654  17.829  0.00  0.00    +0.000 C 
ATOM      3  O   UNL     1       6.969   8.795  16.991  0.00  0.00    +0.000 OA
ATOM      4  H   UNL     1       8.783   7.322  19.131  0.00  0.00    +0.000 HD
ENDROOT
BRANCH   2   5
ATOM      5  C   UNL     1       8.586   9.782  18.406  0.00  0.00    +0.000 A 
ATOM      6  C   UNL     1       9.144   9.771  19.668  0.00  0.00    +0.000 A 
ATOM      7  S   UNL     1       9.897  11.256  20.014  0.00  0.00    +0.000 S 
ATOM      8  C   UNL     1       9.417  11.859  18.469  0.00  0.00    +0.000 A 
ATOM      9  N   UNL     1       8.809  10.975  17.700  0.00  0.00    +0.000 NA
BRANCH   8  10
ATOM     10  C   UNL     1       9.708  13.257  18.115  0.00  0.00    +0.000 A 
ATOM     11  C   UNL     1      10.866  13.588  17.396  0.00  0.00    +0.000 A 
ATOM     12  C   UNL     1      11.150  14.921  17.072  0.00  0.00    +0.000 A 
ATOM     13  C   UNL     1      10.272  15.932  17.457  0.00  0.00    +0.000 A 
ATOM     14 CL   UNL     1      10.628  17.570  17.080  0.00  0.00    +0.000 Cl
ATOM     15  C   UNL     1       9.106  15.624  18.150  0.00  0.00    +0.000 A 
ATOM     16  C   UNL     1       8.825  14.295  18.473  0.00  0.00    +0.000 A 
ENDBRANCH   8  10
ENDBRANCH   2   5
BRANCH   1  17
ATOM     17  C   UNL     1       7.524   6.214  17.796  0.00  0.00    +0.000 C 
BRANCH  17  25
ATOM     18  C   UNL     1       5.045   4.291  17.098  0.00  0.00    +0.000 C 
ATOM     19  C   UNL     1       3.552   4.133  17.353  0.00  0.00    +0.000 C 
ATOM     20  C   UNL     1       3.436   3.828  18.840  0.00  0.00    +0.000 C 
ATOM     21  F   UNL     1       2.597   4.717  19.420  0.00  0.00    +0.000 F 
ATOM     22  F   UNL     1       2.917   2.596  19.027  0.00  0.00    +0.000 F 
ATOM     23  C   UNL     1       4.832   3.934  19.438  0.00  0.00    +0.000 C 
ATOM     24  N   UNL     1       5.617   4.634  18.433  0.00  0.00    +0.000 N 
ATOM     25  C   UNL     1       6.727   5.383  18.834  0.00  0.00    +0.000 C 
ATOM     26  O   UNL     1       7.062   5.404  20.023  0.00  0.00    +0.000 OA
BRANCH  18  28
ATOM     27  N   UNL     1       5.584   6.302  15.254  0.00  0.00    +0.000 NA
ATOM     28  C   UNL     1       5.339   5.390  16.090  0.00  0.00    +0.000 C 
ENDBRANCH  18  28
ENDBRANCH  17  25
ENDBRANCH   1  17
TORSDOF 5
ENDMDL
MODEL 3
REMARK VINA RESULT:      -7.7      3.547      4.572
REMARK  Name = 
REMARK  5 active torsions:
REMARK  status: ('A' for Active; 'I' for Inactive)
REMARK    1  A    between atoms: C_2  and  C_3
REMARK    2  A    between atoms: C_10  and  C_12
REMARK    3  A    between atoms: C_12  and  N_13
REMARK    4  A    between atoms: C_14  and  C_16
REMARK    5  A    between atoms: C_19  and  C_20
REMARK                            x       y       z     vdW  Elec       q    Type
REMARK                         _______ _______ _______ _____ _____    ______ ____
ROOT
ATOM      1  N   UNL     1       4.345   6.304  18.618  0.00  0.00    +0.000 N 
ATOM      2  C   UNL     1       3.144   6.281  19.334  0.00  0.00    +0.000 C 
ATOM      3  O   UNL     1       2.789   5.300  19.965  0.00  0.00    +0.000 OA
ATOM      4  H   UNL     1       4.707   7.188  18.294  0.00  0.00    +0.000 HD
ENDROOT
BRANCH   2   5
ATOM      5  C   UNL     1       2.341   7.509  19.250  0.00  0.00    +0.000 A 
ATOM      6  C   UNL     1       2.308   8.331  18.143  0.00  0.00    +0.000 A 
ATOM      7  S   UNL     1       1.301   9.675  18.413  0.00  0.00    +0.000 S 
ATOM      8  C   UNL     1       0.976   9.111  20.011  0.00  0.00    +0.000 A 
ATOM      9  N   UNL     1       1.513   7.939  20.300  0.00  0.00    +0.000 NA
BRANCH   8  10
ATOM     10  C   UNL     1       0.151   9.928  20.915  0.00  0.00    +0.000 A 
ATOM     11  C   UNL     1      -0.051   9.539  22.248  0.00  0.00    +0.000 A 
ATOM     12  C   UNL     1      -0.849  10.310  23.103  0.00  0.00    +0.000 A 
ATOM     13  C   UNL     1      -1.442  11.480  22.634  0.00  0.00    +0.000 A 
ATOM     14 CL   UNL     1      -2.439  12.415  23.676  0.00  0.00    +0.000 Cl
ATOM     15  C   UNL     1      -1.236  11.896  21.323  0.00  0.00    +0.000 A 
ATOM     16  C   UNL     1      -0.442  11.126  20.472  0.00  0.00    +0.000 A 
ENDBRANCH   8  10
ENDBRANCH   2   5
BRANCH   1  17
ATOM     17  C   UNL     1       5.217   5.139  18.663  0.00  0.00    +0.000 C 
BRANCH  17  25
ATOM     18  C   UNL     1       7.006   4.958  15.999  0.00  0.00    +0.000 C 
ATOM     19  C   UNL     1       6.904   5.083  14.485  0.00  0.00    +0.000 C 
ATOM     20  C   UNL     1       6.044   3.905  14.049  0.00  0.00    +0.000 C 
ATOM     21  F   UNL     1       4.993   4.354  13.325  0.00  0.00    +0.000 F 
ATOM     22  F   UNL     1       6.755   3.072  13.260  0.00  0.00    +0.000 F 
ATOM     23  C   UNL     1       5.568   3.196  15.310  0.00  0.00    +0.000 C 
ATOM     24  N   UNL     1       5.819   4.141  16.387  0.00  0.00    +0.000 N 
ATOM     25  C   UNL     1       5.032   4.085  17.541  0.00  0.00    +0.000 C 
ATOM     26  O   UNL     1       4.169   3.209  17.660  0.00  0.00    +0.000 OA
BRANCH  18  28
ATOM     27  N   UNL     1       6.947   7.436  17.260  0.00  0.00    +0.000 NA
ATOM     28  C   UNL     1       6.974   6.312  16.688  0.00  0.00    +0.000 C 
ENDBRANCH  18  28
ENDBRANCH  17  25
ENDBRANCH   1  17
TORSDOF 5
ENDMDL
MODEL 4
REMARK VINA RESULT:      -7.4      5.499      9.713
REMARK  Name = 
REMARK  5 active torsions:
REMARK  status: ('A' for Active; 'I' for Inactive)
REMARK    1  A    between atoms: C_2  and  C_3
REMARK    2  A    between atoms: C_10  and  C_12
REMARK    3  A    between atoms: C_12  and  N_13
REMARK    4  A    between atoms: C_14  and  C_16
REMARK    5  A    between atoms: C_19  and  C_20
REMARK                            x       y       z     vdW  Elec       q    Type
REMARK                         _______ _______ _______ _____ _____    ______ ____
ROOT
ATOM      1  N   UNL     1      -0.514  10.473  18.107  0.00  0.00    +0.000 N 
ATOM      2  C   UNL     1       0.704  10.503  18.795  0.00  0.00    +0.000 C 
ATOM      3  O   UNL     1       1.207  11.550  19.165  0.00  0.00    +0.000 OA
ATOM      4  H   UNL     1      -1.002   9.595  18.010  0.00  0.00    +0.000 HD
ENDROOT
BRANCH   2   5
ATOM      5  C   UNL     1       1.332   9.194  19.014  0.00  0.00    +0.000 A 
ATOM      6  C   UNL     1       1.327   8.531  20.224  0.00  0.00    +0.000 A 
ATOM      7  S   UNL     1       2.176   7.061  20.118  0.00  0.00    +0.000 S 
ATOM      8  C   UNL     1       2.538   7.391  18.462  0.00  0.00    +0.000 A 
ATOM      9  N   UNL     1       1.982   8.490  17.987  0.00  0.00    +0.000 NA
BRANCH   8  10
ATOM     10  C   UNL     1       3.401   6.465  17.711  0.00  0.00    +0.000 A 
ATOM     11  C   UNL     1       3.179   5.081  17.761  0.00  0.00    +0.000 A 
ATOM     12  C   UNL     1       4.010   4.199  17.057  0.00  0.00    +0.000 A 
ATOM     13  C   UNL     1       5.062   4.697  16.292  0.00  0.00    +0.000 A 
ATOM     14 CL   UNL     1       6.096   3.616  15.446  0.00  0.00    +0.000 Cl
ATOM     15  C   UNL     1       5.286   6.067  16.209  0.00  0.00    +0.000 A 
ATOM     16  C   UNL     1       4.458   6.944  16.913  0.00  0.00    +0.000 A 
ENDBRANCH   8  10
ENDBRANCH   2   5
BRANCH   1  17
ATOM     17  C   UNL     1      -1.221  11.722  17.865  0.00  0.00    +0.000 C 
BRANCH  17  25
ATOM     18  C   UNL     1      -4.344  10.980  17.714  0.00  0.00    +0.000 C 
ATOM     19  C   UNL     1      -5.716  11.626  17.580  0.00  0.00    +0.000 C 
ATOM     20  C   UNL     1      -5.912  12.406  18.873  0.00  0.00    +0.000 C 
ATOM     21  F   UNL     1      -6.195  13.697  18.584  0.00  0.00    +0.000 F 
ATOM     22  F   UNL     1      -6.956  11.908  19.569  0.00  0.00    +0.000 F 
ATOM     23  C   UNL     1      -4.619  12.301  19.670  0.00  0.00    +0.000 C 
ATOM     24  N   UNL     1      -3.630  11.824  18.715  0.00  0.00    +0.000 N 
ATOM     25  C   UNL     1      -2.283  12.138  18.915  0.00  0.00    +0.000 C 
ATOM     26  O   UNL     1      -1.937  12.769  19.919  0.00  0.00    +0.000 OA
BRANCH  18  28
ATOM     27  N   UNL     1      -2.966  10.944  15.299  0.00  0.00    +0.000 NA
ATOM     28  C   UNL     1      -3.591  10.960  16.394  0.00  0.00    +0.000 C 
ENDBRANCH  18  28
ENDBRANCH  17  25
ENDBRANCH   1  17
TORSDOF 5
ENDMDL
MODEL 5
REMARK VINA RESULT:      -7.2      5.440      9.792
REMARK  Name = 
REMARK  5 active torsions:
REMARK  status: ('A' for Active; 'I' for Inactive)
REMARK    1  A    between atoms: C_2  and  C_3
REMARK    2  A    between atoms: C_10  and  C_12
REMARK    3  A    between atoms: C_12  and  N_13
REMARK    4  A    between atoms: C_14  and  C_16
REMARK    5  A    between atoms: C_19  and  C_20
REMARK                            x       y       z     vdW  Elec       q    Type
REMARK                         _______ _______ _______ _____ _____    ______ ____
ROOT
ATOM      1  N   UNL     1       0.644   9.315  19.873  0.00  0.00    +0.000 N 
ATOM      2  C   UNL     1       1.336   8.483  20.758  0.00  0.00    +0.000 C 
ATOM      3  O   UNL     1       1.494   8.779  21.929  0.00  0.00    +0.000 OA
ATOM      4  H   UNL     1       0.347   8.947  18.981  0.00  0.00    +0.000 HD
ENDROOT
BRANCH   2   5
ATOM      5  C   UNL     1       1.871   7.248  20.168  0.00  0.00    +0.000 A 
ATOM      6  C   UNL     1       1.725   5.999  20.735  0.00  0.00    +0.000 A 
ATOM      7  S   UNL     1       2.498   4.810  19.797  0.00  0.00    +0.000 S 
ATOM      8  C   UNL     1       3.019   6.025  18.687  0.00  0.00    +0.000 A 
ATOM      9  N   UNL     1       2.567   7.237  18.948  0.00  0.00    +0.000 NA
BRANCH   8  10
ATOM     10  C   UNL     1       3.892   5.653  17.562  0.00  0.00    +0.000 A 
ATOM     11  C   UNL     1       4.524   6.639  16.790  0.00  0.00    +0.000 A 
ATOM     12  C   UNL     1       5.342   6.284  15.709  0.00  0.00    +0.000 A 
ATOM     13  C   UNL     1       5.542   4.941  15.400  0.00  0.00    +0.000 A 
ATOM     14 CL   UNL     1       6.528   4.504  14.062  0.00  0.00    +0.000 Cl
ATOM     15  C   UNL     1       4.944   3.946  16.167  0.00  0.00    +0.000 A 
ATOM     16  C   UNL     1       4.127   4.301  17.242  0.00  0.00    +0.000 A 
ENDBRANCH   8  10
ENDBRANCH   2   5
BRANCH   1  17
ATOM     17  C   UNL     1       0.058  10.550  20.375  0.00  0.00    +0.000 C 
BRANCH  17  25
ATOM     18  C   UNL     1      -2.159  12.586  21.499  0.00  0.00    +0.000 C 
ATOM     19  C   UNL     1      -3.660  12.703  21.730  0.00  0.00    +0.000 C 
ATOM     20  C   UNL     1      -4.273  12.725  20.337  0.00  0.00    +0.000 C 
ATOM     21  F   UNL     1      -5.205  11.750  20.236  0.00  0.00    +0.000 F 
ATOM     22  F   UNL     1      -4.893  13.904  20.115  0.00  0.00    +0.000 F 
ATOM     23  C   UNL     1      -3.145  12.501  19.338  0.00  0.00    +0.000 C 
ATOM     24  N   UNL     1      -2.038  11.995  20.135  0.00  0.00    +0.000 N 
ATOM     25  C   UNL     1      -1.079  11.177  19.528  0.00  0.00    +0.000 C 
ATOM     26  O   UNL     1      -1.151  10.932  18.320  0.00  0.00    +0.000 OA
BRANCH  18  28
ATOM     27  N   UNL     1      -0.936  10.953  23.389  0.00  0.00    +0.000 NA
ATOM     28  C   UNL     1      -1.491  11.694  22.532  0.00  0.00    +0.000 C 
ENDBRANCH  18  28
ENDBRANCH  17  25
ENDBRANCH   1  17
TORSDOF 5
ENDMDL
MODEL 6
REMARK VINA RESULT:      -7.2      5.234      9.729
REMARK  Name = 
REMARK  5 active torsions:
REMARK  status: ('A' for Active; 'I' for Inactive)
REMARK    1  A    between atoms: C_2  and  C_3
REMARK    2  A    between atoms: C_10  and  C_12
REMARK    3  A    between atoms: C_12  and  N_13
REMARK    4  A    between atoms: C_14  and  C_16
REMARK    5  A    between atoms: C_19  and  C_20
REMARK                            x       y       z     vdW  Elec       q    Type
REMARK                         _______ _______ _______ _____ _____    ______ ____
ROOT
ATOM      1  N   UNL     1      -1.042  10.539  18.135  0.00  0.00    +0.000 N 
ATOM      2  C   UNL     1       0.229  10.724  18.687  0.00  0.00    +0.000 C 
ATOM      3  O   UNL     1       0.698  11.834  18.866  0.00  0.00    +0.000 OA
ATOM      4  H   UNL     1      -1.481   9.633  18.202  0.00  0.00    +0.000 HD
ENDROOT
BRANCH   2   5
ATOM      5  C   UNL     1       0.956   9.489  19.010  0.00  0.00    +0.000 A 
ATOM      6  C   UNL     1       1.044   8.959  20.281  0.00  0.00    +0.000 A 
ATOM      7  S   UNL     1       1.990   7.545  20.288  0.00  0.00    +0.000 S 
ATOM      8  C   UNL     1       2.264   7.721  18.592  0.00  0.00    +0.000 A 
ATOM      9  N   UNL     1       1.614   8.725  18.032  0.00  0.00    +0.000 NA
BRANCH   8  10
ATOM     10  C   UNL     1       3.160   6.781  17.902  0.00  0.00    +0.000 A 
ATOM     11  C   UNL     1       2.939   5.397  17.973  0.00  0.00    +0.000 A 
ATOM     12  C   UNL     1       3.801   4.501  17.328  0.00  0.00    +0.000 A 
ATOM     13  C   UNL     1       4.885   4.984  16.598  0.00  0.00    +0.000 A 
ATOM     14 CL   UNL     1       5.957   3.886  15.824  0.00  0.00    +0.000 Cl
ATOM     15  C   UNL     1       5.110   6.352  16.494  0.00  0.00    +0.000 A 
ATOM     16  C   UNL     1       4.251   7.244  17.139  0.00  0.00    +0.000 A 
ENDBRANCH   8  10
ENDBRANCH   2   5
BRANCH   1  17
ATOM     17  C   UNL     1      -1.847  11.707  17.804  0.00  0.00    +0.000 C 
BRANCH  17  25
ATOM     18  C   UNL     1      -4.483  12.623  19.397  0.00  0.00    +0.000 C 
ATOM     19  C   UNL     1      -5.700  12.053  20.113  0.00  0.00    +0.000 C 
ATOM     20  C   UNL     1      -6.528  11.394  19.018  0.00  0.00    +0.000 C 
ATOM     21  F   UNL     1      -6.767  10.103  19.345  0.00  0.00    +0.000 F 
ATOM     22  F   UNL     1      -7.723  12.010  18.899  0.00  0.00    +0.000 F 
ATOM     23  C   UNL     1      -5.730  11.485  17.725  0.00  0.00    +0.000 C 
ATOM     24  N   UNL     1      -4.378  11.821  18.144  0.00  0.00    +0.000 N 
ATOM     25  C   UNL     1      -3.301  11.444  17.336  0.00  0.00    +0.000 C 
ATOM     26  O   UNL     1      -3.504  10.877  16.258  0.00  0.00    +0.000 OA
BRANCH  18  28
ATOM     27  N   UNL     1      -2.167  12.378  20.917  0.00  0.00    +0.000 NA
ATOM     28  C   UNL     1      -3.217  12.489  20.228  0.00  0.00    +0.000 C 
ENDBRANCH  18  28
ENDBRANCH  17  25
ENDBRANCH   1  17
TORSDOF 5
ENDMDL
MODEL 7
REMARK VINA RESULT:      -7.1      1.093      1.186
REMARK  Name = 
REMARK  5 active torsions:
REMARK  status: ('A' for Active; 'I' for Inactive)
REMARK    1  A    between atoms: C_2  and  C_3
REMARK    2  A    between atoms: C_10  and  C_12
REMARK    3  A    between atoms: C_12  and  N_13
REMARK    4  A    between atoms: C_14  and  C_16
REMARK    5  A    between atoms: C_19  and  C_20
REMARK                            x       y       z     vdW  Elec       q    Type
REMARK                         _______ _______ _______ _____ _____    ______ ____
ROOT
ATOM      1  N   UNL     1       1.524   8.573  19.266  0.00  0.00    +0.000 N 
ATOM      2  C   UNL     1       1.489   9.572  18.288  0.00  0.00    +0.000 C 
ATOM      3  O   UNL     1       2.226   9.549  17.319  0.00  0.00    +0.000 OA
ATOM      4  H   UNL     1       0.765   8.506  19.928  0.00  0.00    +0.000 HD
ENDROOT
BRANCH   2   5
ATOM      5  C   UNL     1       0.520  10.651  18.529  0.00  0.00    +0.000 A 
ATOM      6  C   UNL     1       0.870  11.918  18.950  0.00  0.00    +0.000 A 
ATOM      7  S   UNL     1      -0.509  12.892  19.157  0.00  0.00    +0.000 S 
ATOM      8  C   UNL     1      -1.515  11.565  18.702  0.00  0.00    +0.000 A 
ATOM      9  N   UNL     1      -0.859  10.482  18.327  0.00  0.00    +0.000 NA
BRANCH   8  10
ATOM     10  C   UNL     1      -2.978  11.716  18.749  0.00  0.00    +0.000 A 
ATOM     11  C   UNL     1      -3.783  11.203  17.721  0.00  0.00    +0.000 A 
ATOM     12  C   UNL     1      -5.175  11.359  17.758  0.00  0.00    +0.000 A 
ATOM     13  C   UNL     1      -5.771  12.021  18.830  0.00  0.00    +0.000 A 
ATOM     14 CL   UNL     1      -7.476  12.234  18.867  0.00  0.00    +0.000 Cl
ATOM     15  C   UNL     1      -4.994  12.517  19.871  0.00  0.00    +0.000 A 
ATOM     16  C   UNL     1      -3.607  12.361  19.831  0.00  0.00    +0.000 A 
ENDBRANCH   8  10
ENDBRANCH   2   5
BRANCH   1  17
ATOM     17  C   UNL     1       2.437   7.451  19.099  0.00  0.00    +0.000 C 
BRANCH  17  25
ATOM     18  C   UNL     1       4.380   4.897  19.265  0.00  0.00    +0.000 C 
ATOM     19  C   UNL     1       4.401   3.398  18.997  0.00  0.00    +0.000 C 
ATOM     20  C   UNL     1       3.444   2.801  20.019  0.00  0.00    +0.000 C 
ATOM     21  F   UNL     1       2.508   2.059  19.383  0.00  0.00    +0.000 F 
ATOM     22  F   UNL     1       4.108   1.980  20.861  0.00  0.00    +0.000 F 
ATOM     23  C   UNL     1       2.799   3.956  20.771  0.00  0.00    +0.000 C 
ATOM     24  N   UNL     1       3.081   5.132  19.961  0.00  0.00    +0.000 N 
ATOM     25  C   UNL     1       2.211   6.225  20.021  0.00  0.00    +0.000 C 
ATOM     26  O   UNL     1       1.246   6.207  20.791  0.00  0.00    +0.000 OA
BRANCH  18  28
ATOM     27  N   UNL     1       4.518   6.382  16.918  0.00  0.00    +0.000 NA
ATOM     28  C   UNL     1       4.456   5.708  17.983  0.00  0.00    +0.000 C 
ENDBRANCH  18  28
ENDBRANCH  17  25
ENDBRANCH   1  17
TORSDOF 5
ENDMDL
MODEL 8
REMARK VINA RESULT:      -7.1      2.337      2.831
REMARK  Name = 
REMARK  5 active torsions:
REMARK  status: ('A' for Active; 'I' for Inactive)
REMARK    1  A    between atoms: C_2  and  C_3
REMARK    2  A    between atoms: C_10  and  C_12
REMARK    3  A    between atoms: C_12  and  N_13
REMARK    4  A    between atoms: C_14  and  C_16
REMARK    5  A    between atoms: C_19  and  C_20
REMARK                            x       y       z     vdW  Elec       q    Type
REMARK                         _______ _______ _______ _____ _____    ______ ____
ROOT
ATOM      1  N   UNL     1       1.702   8.622  19.430  0.00  0.00    +0.000 N 
ATOM      2  C   UNL     1       1.607   9.687  18.529  0.00  0.00    +0.000 C 
ATOM      3  O   UNL     1       2.138   9.653  17.433  0.00  0.00    +0.000 OA
ATOM      4  H   UNL     1       1.080   8.592  20.224  0.00  0.00    +0.000 HD
ENDROOT
BRANCH   2   5
ATOM      5  C   UNL     1       0.843  10.847  19.009  0.00  0.00    +0.000 A 
ATOM      6  C   UNL     1       1.143  12.154  18.684  0.00  0.00    +0.000 A 
ATOM      7  S   UNL     1       0.071  13.233  19.444  0.00  0.00    +0.000 S 
ATOM      8  C   UNL     1      -0.731  11.904  20.199  0.00  0.00    +0.000 A 
ATOM      9  N   UNL     1      -0.285  10.715  19.835  0.00  0.00    +0.000 NA
BRANCH   8  10
ATOM     10  C   UNL     1      -1.820  12.162  21.154  0.00  0.00    +0.000 A 
ATOM     11  C   UNL     1      -1.677  11.829  22.509  0.00  0.00    +0.000 A 
ATOM     12  C   UNL     1      -2.719  12.062  23.416  0.00  0.00    +0.000 A 
ATOM     13  C   UNL     1      -3.909  12.637  22.974  0.00  0.00    +0.000 A 
ATOM     14 CL   UNL     1      -5.197  12.903  24.080  0.00  0.00    +0.000 Cl
ATOM     15  C   UNL     1      -4.064  12.996  21.640  0.00  0.00    +0.000 A 
ATOM     16  C   UNL     1      -3.024  12.763  20.738  0.00  0.00    +0.000 A 
ENDBRANCH   8  10
ENDBRANCH   2   5
BRANCH   1  17
ATOM     17  C   UNL     1       2.421   7.420  19.031  0.00  0.00    +0.000 C 
BRANCH  17  25
ATOM     18  C   UNL     1       4.505   4.979  19.178  0.00  0.00    +0.000 C 
ATOM     19  C   UNL     1       4.610   3.485  18.903  0.00  0.00    +0.000 C 
ATOM     20  C   UNL     1       3.693   2.830  19.926  0.00  0.00    +0.000 C 
ATOM     21  F   UNL     1       2.797   2.040  19.291  0.00  0.00    +0.000 F 
ATOM     22  F   UNL     1       4.405   2.045  20.761  0.00  0.00    +0.000 F 
ATOM     23  C   UNL     1       2.987   3.944  20.686  0.00  0.00    +0.000 C 
ATOM     24  N   UNL     1       3.198   5.137  19.880  0.00  0.00    +0.000 N 
ATOM     25  C   UNL     1       2.269   6.179  19.948  0.00  0.00    +0.000 C 
ATOM     26  O   UNL     1       1.310   6.104  20.722  0.00  0.00    +0.000 OA
BRANCH  18  28
ATOM     27  N   UNL     1       4.551   6.478  16.836  0.00  0.00    +0.000 NA
ATOM     28  C   UNL     1       4.530   5.798  17.898  0.00  0.00    +0.000 C 
ENDBRANCH  18  28
ENDBRANCH  17  25
ENDBRANCH   1  17
TORSDOF 5
ENDMDL
MODEL 9
REMARK VINA RESULT:      -7.1      5.389      9.911
REMARK  Name = 
REMARK  5 active torsions:
REMARK  status: ('A' for Active; 'I' for Inactive)
REMARK    1  A    between atoms: C_2  and  C_3
REMARK    2  A    between atoms: C_10  and  C_12
REMARK    3  A    between atoms: C_12  and  N_13
REMARK    4  A    between atoms: C_14  and  C_16
REMARK    5  A    between atoms: C_19  and  C_20
REMARK                            x       y       z     vdW  Elec       q    Type
REMARK                         _______ _______ _______ _____ _____    ______ ____
ROOT
ATOM      1  N   UNL     1      -0.391  10.407  19.808  0.00  0.00    +0.000 N 
ATOM      2  C   UNL     1       0.860  10.275  19.197  0.00  0.00    +0.000 C 
ATOM      3  O   UNL     1       1.397  11.207  18.624  0.00  0.00    +0.000 OA
ATOM      4  H   UNL     1      -0.702   9.694  20.450  0.00  0.00    +0.000 HD
ENDROOT
BRANCH   2   5
ATOM      5  C   UNL     1       1.459   8.936  19.279  0.00  0.00    +0.000 A 
ATOM      6  C   UNL     1       1.414   8.142  20.406  0.00  0.00    +0.000 A 
ATOM      7  S   UNL     1       2.238   6.676  20.151  0.00  0.00    +0.000 S 
ATOM      8  C   UNL     1       2.643   7.182  18.551  0.00  0.00    +0.000 A 
ATOM      9  N   UNL     1       2.118   8.339  18.192  0.00  0.00    +0.000 NA
BRANCH   8  10
ATOM     10  C   UNL     1       3.505   6.330  17.718  0.00  0.00    +0.000 A 
ATOM     11  C   UNL     1       4.516   6.892  16.924  0.00  0.00    +0.000 A 
ATOM     12  C   UNL     1       5.327   6.081  16.119  0.00  0.00    +0.000 A 
ATOM     13  C   UNL     1       5.138   4.701  16.110  0.00  0.00    +0.000 A 
ATOM     14 CL   UNL     1       6.116   3.706  15.107  0.00  0.00    +0.000 Cl
ATOM     15  C   UNL     1       4.157   4.119  16.907  0.00  0.00    +0.000 A 
ATOM     16  C   UNL     1       3.349   4.930  17.707  0.00  0.00    +0.000 A 
ENDBRANCH   8  10
ENDBRANCH   2   5
BRANCH   1  17
ATOM     17  C   UNL     1      -1.050  11.706  19.798  0.00  0.00    +0.000 C 
BRANCH  17  25
ATOM     18  C   UNL     1      -3.728  12.978  21.037  0.00  0.00    +0.000 C 
ATOM     19  C   UNL     1      -5.142  12.600  21.458  0.00  0.00    +0.000 C 
ATOM     20  C   UNL     1      -5.854  12.233  20.163  0.00  0.00    +0.000 C 
ATOM     21  F   UNL     1      -6.381  10.992  20.272  0.00  0.00    +0.000 F 
ATOM     22  F   UNL     1      -6.872  13.088  19.929  0.00  0.00    +0.000 F 
ATOM     23  C   UNL     1      -4.823  12.286  19.044  0.00  0.00    +0.000 C 
ATOM     24  N   UNL     1      -3.536  12.298  19.723  0.00  0.00    +0.000 N 
ATOM     25  C   UNL     1      -2.413  11.790  19.064  0.00  0.00    +0.000 C 
ATOM     26  O   UNL     1      -2.508  11.385  17.901  0.00  0.00    +0.000 OA
BRANCH  18  28
ATOM     27  N   UNL     1      -1.826  12.120  22.875  0.00  0.00    +0.000 NA
ATOM     28  C   UNL     1      -2.688  12.509  22.041  0.00  0.00    +0.000 C 
ENDBRANCH  18  28
ENDBRANCH  17  25
ENDBRANCH   1  17
TORSDOF 5
ENDMDL
