MODEL 1
REMARK VINA RESULT:      -7.0      0.000      0.000
REMARK  Name = 
REMARK  4 active torsions:
REMARK  status: ('A' for Active; 'I' for Inactive)
REMARK    1  A    between atoms: C_2  and  C_11
REMARK    2  A    between atoms: N_3  and  C_4
REMARK    3  A    between atoms: C_9  and  O_10
REMARK    4  A    between atoms: C_13  and  O_14
REMARK                            x       y       z     vdW  Elec       q    Type
REMARK                         _______ _______ _______ _____ _____    ______ ____
ROOT
ATOM      1  O   UNL     1       3.450   3.195  16.857  0.00  0.00    +0.000 OA
ATOM      2  C   UNL     1       4.248   3.908  17.456  0.00  0.00    +0.000 C 
ATOM      3  N   UNL     1       4.167   4.317  18.771  0.00  0.00    +0.000 N 
ATOM      4  H   UNL     1       4.803   5.031  19.110  0.00  0.00    +0.000 HD
ENDROOT
BRANCH   3   5
ATOM      5  C   UNL     1       3.194   3.846  19.668  0.00  0.00    +0.000 A 
ATOM      6  N   UNL     1       1.982   4.437  19.698  0.00  0.00    +0.000 NA
ATOM      7  C   UNL     1       1.064   3.976  20.567  0.00  0.00    +0.000 A 
ATOM      8  C   UNL     1       1.297   2.927  21.438  0.00  0.00    +0.000 A 
ATOM      9  C   UNL     1       2.544   2.309  21.403  0.00  0.00    +0.000 A 
ATOM     10  C   UNL     1       3.502   2.764  20.497  0.00  0.00    +0.000 A 
BRANCH  10  11
ATOM     11  O   UNL     1       4.737   2.175  20.440  0.00  0.00    +0.000 OA
ATOM     12  H   UNL     1       5.258   2.620  19.748  0.00  0.00    +0.000 HD
ENDBRANCH  10  11
ENDBRANCH   3   5
BRANCH   2  13
ATOM     13  C   UNL     1       5.408   4.429  16.675  0.00  0.00    +0.000 A 
ATOM     14  C   UNL     1       6.056   5.544  17.172  0.00  0.00    +0.000 A 
ATOM     15  C   UNL     1       7.072   6.018  16.394  0.00  0.00    +0.000 A 
ATOM     16  N   UNL     1       7.435   5.472  15.229  0.00  0.00    +0.000 NA
ATOM     17  C   UNL     1       6.740   4.391  14.844  0.00  0.00    +0.000 A 
ATOM     18  N   UNL     1       5.732   3.812  15.517  0.00  0.00    +0.000 NA
BRANCH  15  19
ATOM     19  O   UNL     1       7.789   7.115  16.772  0.00  0.00    +0.000 OA
ATOM     20  H   UNL     1       8.489   7.267  16.117  0.00  0.00    +0.000 HD
ENDBRANCH  15  19
ENDBRANCH   2  13
TORSDOF 4
ENDMDL
MODEL 2
REMARK VINA RESULT:      -6.9      1.779      2.503
REMARK  Name = 
REMARK  4 active torsions:
REMARK  status: ('A' for Active; 'I' for Inactive)
REMARK    1  A    between atoms: C_2  and  C_11
REMARK    2  A    between atoms: N_3  and  C_4
REMARK    3  A    between atoms: C_9  and  O_10
REMARK    4  A    between atoms: C_13  and  O_14
REMARK                            x       y       z     vdW  Elec       q    Type
REMARK                         _______ _______ _______ _____ _____    ______ ____
ROOT
ATOM      1  O   UNL     1       4.715   5.646  18.999  0.00  0.00    +0.000 OA
ATOM      2  C   UNL     1       4.720   4.737  18.176  0.00  0.00    +0.000 C 
ATOM      3  N   UNL     1       4.011   3.555  18.244  0.00  0.00    +0.000 N 
ATOM      4  H   UNL     1       4.215   2.814  17.582  0.00  0.00    +0.000 HD
ENDROOT
BRANCH   3   5
ATOM      5  C   UNL     1       3.055   3.284  19.237  0.00  0.00    +0.000 A 
ATOM      6  N   UNL     1       3.467   2.916  20.468  0.00  0.00    +0.000 NA
ATOM      7  C   UNL     1       2.537   2.654  21.404  0.00  0.00    +0.000 A 
ATOM      8  C   UNL     1       1.176   2.739  21.172  0.00  0.00    +0.000 A 
ATOM      9  C   UNL     1       0.748   3.128  19.906  0.00  0.00    +0.000 A 
ATOM     10  C   UNL     1       1.699   3.417  18.928  0.00  0.00    +0.000 A 
BRANCH  10  11
ATOM     11  O   UNL     1       1.307   3.803  17.673  0.00  0.00    +0.000 OA
ATOM     12  H   UNL     1       1.817   4.594  17.422  0.00  0.00    +0.000 HD
ENDBRANCH  10  11
ENDBRANCH   3   5
BRANCH   2  13
ATOM     13  C   UNL     1       5.617   4.899  16.995  0.00  0.00    +0.000 A 
ATOM     14  C   UNL     1       5.467   3.999  15.958  0.00  0.00    +0.000 A 
ATOM     15  C   UNL     1       6.349   4.150  14.927  0.00  0.00    +0.000 A 
ATOM     16  N   UNL     1       7.302   5.087  14.894  0.00  0.00    +0.000 NA
ATOM     17  C   UNL     1       7.355   5.909  15.953  0.00  0.00    +0.000 A 
ATOM     18  N   UNL     1       6.544   5.883  17.022  0.00  0.00    +0.000 NA
BRANCH  15  19
ATOM     19  O   UNL     1       6.308   3.322  13.844  0.00  0.00    +0.000 OA
ATOM     20  H   UNL     1       5.567   3.592  13.278  0.00  0.00    +0.000 HD
ENDBRANCH  15  19
ENDBRANCH   2  13
TORSDOF 4
ENDMDL
MODEL 3
REMARK VINA RESULT:      -6.9      1.695      2.197
REMARK  Name = 
REMARK  4 active torsions:
REMARK  status: ('A' for Active; 'I' for Inactive)
REMARK    1  A    between atoms: C_2  and  C_11
REMARK    2  A    between atoms: N_3  and  C_4
REMARK    3  A    between atoms: C_9  and  O_10
REMARK    4  A    between atoms: C_13  and  O_14
REMARK                            x       y       z     vdW  Elec       q    Type
REMARK                         _______ _______ _______ _____ _____    ______ ____
ROOT
ATOM      1  O   UNL     1       5.768   3.987  19.088  0.00  0.00    +0.000 OA
ATOM      2  C   UNL     1       5.112   4.193  18.072  0.00  0.00    +0.000 C 
ATOM      3  N   UNL     1       3.746   4.062  17.928  0.00  0.00    +0.000 N 
ATOM      4  H   UNL     1       3.337   4.110  17.001  0.00  0.00    +0.000 HD
ENDROOT
BRANCH   3   5
ATOM      5  C   UNL     1       2.879   3.793  19.000  0.00  0.00    +0.000 A 
ATOM      6  N   UNL     1       2.672   4.741  19.937  0.00  0.00    +0.000 NA
ATOM      7  C   UNL     1       1.843   4.463  20.960  0.00  0.00    +0.000 A 
ATOM      8  C   UNL     1       1.193   3.251  21.106  0.00  0.00    +0.000 A 
ATOM      9  C   UNL     1       1.397   2.274  20.136  0.00  0.00    +0.000 A 
ATOM     10  C   UNL     1       2.241   2.551  19.061  0.00  0.00    +0.000 A 
BRANCH  10  11
ATOM     11  O   UNL     1       2.460   1.609  18.091  0.00  0.00    +0.000 OA
ATOM     12  H   UNL     1       1.734   0.962  18.122  0.00  0.00    +0.000 HD
ENDBRANCH  10  11
ENDBRANCH   3   5
BRANCH   2  13
ATOM     13  C   UNL     1       5.868   4.585  16.847  0.00  0.00    +0.000 A 
ATOM     14  C   UNL     1       5.718   3.787  15.728  0.00  0.00    +0.000 A 
ATOM     15  C   UNL     1       6.475   4.151  14.652  0.00  0.00    +0.000 A 
ATOM     16  N   UNL     1       7.312   5.193  14.648  0.00  0.00    +0.000 NA
ATOM     17  C   UNL     1       7.376   5.900  15.786  0.00  0.00    +0.000 A 
ATOM     18  N   UNL     1       6.680   5.664  16.910  0.00  0.00    +0.000 NA
BRANCH  15  19
ATOM     19  O   UNL     1       6.419   3.443  13.487  0.00  0.00    +0.000 OA
ATOM     20  H   UNL     1       6.402   4.069  12.746  0.00  0.00    +0.000 HD
ENDBRANCH  15  19
ENDBRANCH   2  13
TORSDOF 4
ENDMDL
MODEL 4
REMARK VINA RESULT:      -6.8      1.225      1.695
REMARK  Name = 
REMARK  4 active torsions:
REMARK  status: ('A' for Active; 'I' for Inactive)
REMARK    1  A    between atoms: C_2  and  C_11
REMARK    2  A    between atoms: N_3  and  C_4
REMARK    3  A    between atoms: C_9  and  O_10
REMARK    4  A    between atoms: C_13  and  O_14
REMARK                            x       y       z     vdW  Elec       q    Type
REMARK                         _______ _______ _______ _____ _____    ______ ____
ROOT
ATOM      1  O   UNL     1       5.486   3.509  19.365  0.00  0.00    +0.000 OA
ATOM      2  C   UNL     1       5.006   4.129  18.422  0.00  0.00    +0.000 C 
ATOM      3  N   UNL     1       3.667   4.275  18.123  0.00  0.00    +0.000 N 
ATOM      4  H   UNL     1       3.398   4.679  17.232  0.00  0.00    +0.000 HD
ENDROOT
BRANCH   3   5
ATOM      5  C   UNL     1       2.635   3.827  18.963  0.00  0.00    +0.000 A 
ATOM      6  N   UNL     1       2.368   4.501  20.101  0.00  0.00    +0.000 NA
ATOM      7  C   UNL     1       1.381   4.053  20.897  0.00  0.00    +0.000 A 
ATOM      8  C   UNL     1       0.622   2.932  20.614  0.00  0.00    +0.000 A 
ATOM      9  C   UNL     1       0.888   2.239  19.436  0.00  0.00    +0.000 A 
ATOM     10  C   UNL     1       1.899   2.698  18.592  0.00  0.00    +0.000 A 
BRANCH  10  11
ATOM     11  O   UNL     1       2.182   2.037  17.427  0.00  0.00    +0.000 OA
ATOM     12  H   UNL     1       1.573   2.355  16.738  0.00  0.00    +0.000 HD
ENDBRANCH  10  11
ENDBRANCH   3   5
BRANCH   2  13
ATOM     13  C   UNL     1       5.965   4.759  17.468  0.00  0.00    +0.000 A 
ATOM     14  C   UNL     1       6.448   6.012  17.791  0.00  0.00    +0.000 A 
ATOM     15  C   UNL     1       7.275   6.572  16.860  0.00  0.00    +0.000 A 
ATOM     16  N   UNL     1       7.609   5.980  15.709  0.00  0.00    +0.000 NA
ATOM     17  C   UNL     1       7.086   4.763  15.500  0.00  0.00    +0.000 A 
ATOM     18  N   UNL     1       6.275   4.091  16.334  0.00  0.00    +0.000 NA
BRANCH  15  19
ATOM     19  O   UNL     1       7.816   7.808  17.058  0.00  0.00    +0.000 OA
ATOM     20  H   UNL     1       7.691   8.332  16.251  0.00  0.00    +0.000 HD
ENDBRANCH  15  19
ENDBRANCH   2  13
TORSDOF 4
ENDMDL
MODEL 5
REMARK VINA RESULT:      -6.8      1.351      1.632
REMARK  Name = 
REMARK  4 active torsions:
REMARK  status: ('A' for Active; 'I' for Inactive)
REMARK    1  A    between atoms: C_2  and  C_11
REMARK    2  A    between atoms: N_3  and  C_4
REMARK    3  A    between atoms: C_9  and  O_10
REMARK    4  A    between atoms: C_13  and  O_14
REMARK                            x       y       z     vdW  Elec       q    Type
REMARK                         _______ _______ _______ _____ _____    ______ ____
ROOT
ATOM      1  O   UNL     1       3.261   3.602  16.811  0.00  0.00    +0.000 OA
ATOM      2  C   UNL     1       4.201   4.139  17.388  0.00  0.00    +0.000 C 
ATOM      3  N   UNL     1       4.310   4.384  18.742  0.00  0.00    +0.000 N 
ATOM      4  H   UNL     1       5.063   4.972  19.081  0.00  0.00    +0.000 HD
ENDROOT
BRANCH   3   5
ATOM      5  C   UNL     1       3.384   3.916  19.688  0.00  0.00    +0.000 A 
ATOM      6  N   UNL     1       2.231   4.591  19.875  0.00  0.00    +0.000 NA
ATOM      7  C   UNL     1       1.358   4.131  20.790  0.00  0.00    +0.000 A 
ATOM      8  C   UNL     1       1.581   3.002  21.555  0.00  0.00    +0.000 A 
ATOM      9  C   UNL     1       2.765   2.297  21.359  0.00  0.00    +0.000 A 
ATOM     10  C   UNL     1       3.674   2.751  20.404  0.00  0.00    +0.000 A 
BRANCH  10  11
ATOM     11  O   UNL     1       4.847   2.077  20.188  0.00  0.00    +0.000 OA
ATOM     12  H   UNL     1       5.406   2.173  20.979  0.00  0.00    +0.000 HD
ENDBRANCH  10  11
ENDBRANCH   3   5
BRANCH   2  13
ATOM     13  C   UNL     1       5.330   4.620  16.539  0.00  0.00    +0.000 A 
ATOM     14  C   UNL     1       5.398   4.140  15.245  0.00  0.00    +0.000 A 
ATOM     15  C   UNL     1       6.480   4.562  14.528  0.00  0.00    +0.000 A 
ATOM     16  N   UNL     1       7.424   5.374  15.012  0.00  0.00    +0.000 NA
ATOM     17  C   UNL     1       7.256   5.781  16.279  0.00  0.00    +0.000 A 
ATOM     18  N   UNL     1       6.236   5.458  17.091  0.00  0.00    +0.000 NA
BRANCH  15  19
ATOM     19  O   UNL     1       6.664   4.157  13.238  0.00  0.00    +0.000 OA
ATOM     20  H   UNL     1       7.513   3.692  13.180  0.00  0.00    +0.000 HD
ENDBRANCH  15  19
ENDBRANCH   2  13
TORSDOF 4
ENDMDL
MODEL 6
REMARK VINA RESULT:      -6.8      1.113      1.629
REMARK  Name = 
REMARK  4 active torsions:
REMARK  status: ('A' for Active; 'I' for Inactive)
REMARK    1  A    between atoms: C_2  and  C_11
REMARK    2  A    between atoms: N_3  and  C_4
REMARK    3  A    between atoms: C_9  and  O_10
REMARK    4  A    between atoms: C_13  and  O_14
REMARK                            x       y       z     vdW  Elec       q    Type
REMARK                         _______ _______ _______ _____ _____    ______ ____
ROOT
ATOM      1  O   UNL     1       4.134   2.444  17.149  0.00  0.00    +0.000 OA
ATOM      2  C   UNL     1       4.440   3.593  17.453  0.00  0.00    +0.000 C 
ATOM      3  N   UNL     1       3.866   4.367  18.441  0.00  0.00    +0.000 N 
ATOM      4  H   UNL     1       4.097   5.354  18.496  0.00  0.00    +0.000 HD
ENDROOT
BRANCH   3   5
ATOM      5  C   UNL     1       2.910   3.880  19.347  0.00  0.00    +0.000 A 
ATOM      6  N   UNL     1       3.270   3.650  20.627  0.00  0.00    +0.000 NA
ATOM      7  C   UNL     1       2.343   3.177  21.480  0.00  0.00    +0.000 A 
ATOM      8  C   UNL     1       1.037   2.908  21.114  0.00  0.00    +0.000 A 
ATOM      9  C   UNL     1       0.660   3.153  19.797  0.00  0.00    +0.000 A 
ATOM     10  C   UNL     1       1.604   3.657  18.903  0.00  0.00    +0.000 A 
BRANCH  10  11
ATOM     11  O   UNL     1       1.262   3.908  17.601  0.00  0.00    +0.000 OA
ATOM     12  H   UNL     1       2.079   4.007  17.082  0.00  0.00    +0.000 HD
ENDBRANCH  10  11
ENDBRANCH   3   5
BRANCH   2  13
ATOM     13  C   UNL     1       5.514   4.243  16.648  0.00  0.00    +0.000 A 
ATOM     14  C   UNL     1       6.115   5.366  17.184  0.00  0.00    +0.000 A 
ATOM     15  C   UNL     1       7.049   5.960  16.385  0.00  0.00    +0.000 A 
ATOM     16  N   UNL     1       7.377   5.517  15.167  0.00  0.00    +0.000 NA
ATOM     17  C   UNL     1       6.734   4.418  14.748  0.00  0.00    +0.000 A 
ATOM     18  N   UNL     1       5.808   3.727  15.434  0.00  0.00    +0.000 NA
BRANCH  15  19
ATOM     19  O   UNL     1       7.713   7.078  16.798  0.00  0.00    +0.000 OA
ATOM     20  H   UNL     1       8.524   7.165  16.274  0.00  0.00    +0.000 HD
ENDBRANCH  15  19
ENDBRANCH   2  13
TORSDOF 4
ENDMDL
MODEL 7
REMARK VINA RESULT:      -6.8      1.552      1.969
REMARK  Name = 
REMARK  4 active torsions:
REMARK  status: ('A' for Active; 'I' for Inactive)
REMARK    1  A    between atoms: C_2  and  C_11
REMARK    2  A    between atoms: N_3  and  C_4
REMARK    3  A    between atoms: C_9  and  O_10
REMARK    4  A    between atoms: C_13  and  O_14
REMARK                            x       y       z     vdW  Elec       q    Type
REMARK                         _______ _______ _______ _____ _____    ______ ____
ROOT
ATOM      1  O   UNL     1       5.872   4.663  19.361  0.00  0.00    +0.000 OA
ATOM      2  C   UNL     1       5.268   4.393  18.328  0.00  0.00    +0.000 C 
ATOM      3  N   UNL     1       4.028   3.796  18.225  0.00  0.00    +0.000 N 
ATOM      4  H   UNL     1       3.701   3.484  17.318  0.00  0.00    +0.000 HD
ENDROOT
BRANCH   3   5
ATOM      5  C   UNL     1       3.207   3.528  19.333  0.00  0.00    +0.000 A 
ATOM      6  N   UNL     1       2.038   4.189  19.464  0.00  0.00    +0.000 NA
ATOM      7  C   UNL     1       1.267   3.923  20.535  0.00  0.00    +0.000 A 
ATOM      8  C   UNL     1       1.610   3.009  21.513  0.00  0.00    +0.000 A 
ATOM      9  C   UNL     1       2.811   2.318  21.376  0.00  0.00    +0.000 A 
ATOM     10  C   UNL     1       3.615   2.570  20.265  0.00  0.00    +0.000 A 
BRANCH  10  11
ATOM     11  O   UNL     1       4.802   1.905  20.103  0.00  0.00    +0.000 OA
ATOM     12  H   UNL     1       5.245   1.853  20.968  0.00  0.00    +0.000 HD
ENDBRANCH  10  11
ENDBRANCH   3   5
BRANCH   2  13
ATOM     13  C   UNL     1       5.959   4.700  17.042  0.00  0.00    +0.000 A 
ATOM     14  C   UNL     1       5.725   3.849  15.979  0.00  0.00    +0.000 A 
ATOM     15  C   UNL     1       6.425   4.136  14.842  0.00  0.00    +0.000 A 
ATOM     16  N   UNL     1       7.284   5.155  14.733  0.00  0.00    +0.000 NA
ATOM     17  C   UNL     1       7.431   5.918  15.826  0.00  0.00    +0.000 A 
ATOM     18  N   UNL     1       6.797   5.761  16.999  0.00  0.00    +0.000 NA
BRANCH  15  19
ATOM     19  O   UNL     1       6.285   3.369  13.723  0.00  0.00    +0.000 OA
ATOM     20  H   UNL     1       5.764   2.583  13.951  0.00  0.00    +0.000 HD
ENDBRANCH  15  19
ENDBRANCH   2  13
TORSDOF 4
ENDMDL
MODEL 8
REMARK VINA RESULT:      -6.7      1.681      2.384
REMARK  Name = 
REMARK  4 active torsions:
REMARK  status: ('A' for Active; 'I' for Inactive)
REMARK    1  A    between atoms: C_2  and  C_11
REMARK    2  A    between atoms: N_3  and  C_4
REMARK    3  A    between atoms: C_9  and  O_10
REMARK    4  A    between atoms: C_13  and  O_14
REMARK                            x       y       z     vdW  Elec       q    Type
REMARK                         _______ _______ _______ _____ _____    ______ ____
ROOT
ATOM      1  O   UNL     1       5.578   3.450  19.296  0.00  0.00    +0.000 OA
ATOM      2  C   UNL     1       5.083   4.376  18.661  0.00  0.00    +0.000 C 
ATOM      3  N   UNL     1       3.746   4.710  18.591  0.00  0.00    +0.000 N 
ATOM      4  H   UNL     1       3.440   5.398  17.913  0.00  0.00    +0.000 HD
ENDROOT
BRANCH   3   5
ATOM      5  C   UNL     1       2.754   4.092  19.371  0.00  0.00    +0.000 A 
ATOM      6  N   UNL     1       2.820   4.179  20.716  0.00  0.00    +0.000 NA
ATOM      7  C   UNL     1       1.865   3.575  21.446  0.00  0.00    +0.000 A 
ATOM      8  C   UNL     1       0.817   2.864  20.892  0.00  0.00    +0.000 A 
ATOM      9  C   UNL     1       0.740   2.780  19.504  0.00  0.00    +0.000 A 
ATOM     10  C   UNL     1       1.714   3.412  18.731  0.00  0.00    +0.000 A 
BRANCH  10  11
ATOM     11  O   UNL     1       1.664   3.347  17.364  0.00  0.00    +0.000 OA
ATOM     12  H   UNL     1       1.676   4.255  17.013  0.00  0.00    +0.000 HD
ENDBRANCH  10  11
ENDBRANCH   3   5
BRANCH   2  13
ATOM     13  C   UNL     1       6.012   5.206  17.841  0.00  0.00    +0.000 A 
ATOM     14  C   UNL     1       6.249   4.796  16.543  0.00  0.00    +0.000 A 
ATOM     15  C   UNL     1       7.151   5.553  15.852  0.00  0.00    +0.000 A 
ATOM     16  N   UNL     1       7.779   6.616  16.364  0.00  0.00    +0.000 NA
ATOM     17  C   UNL     1       7.470   6.926  17.632  0.00  0.00    +0.000 A 
ATOM     18  N   UNL     1       6.594   6.281  18.419  0.00  0.00    +0.000 NA
BRANCH  15  19
ATOM     19  O   UNL     1       7.475   5.250  14.561  0.00  0.00    +0.000 OA
ATOM     20  H   UNL     1       7.021   5.877  13.975  0.00  0.00    +0.000 HD
ENDBRANCH  15  19
ENDBRANCH   2  13
TORSDOF 4
ENDMDL
MODEL 9
REMARK VINA RESULT:      -6.6      1.522      1.811
REMARK  Name = 
REMARK  4 active torsions:
REMARK  status: ('A' for Active; 'I' for Inactive)
REMARK    1  A    between atoms: C_2  and  C_11
REMARK    2  A    between atoms: N_3  and  C_4
REMARK    3  A    between atoms: C_9  and  O_10
REMARK    4  A    between atoms: C_13  and  O_14
REMARK                            x       y       z     vdW  Elec       q    Type
REMARK                         _______ _______ _______ _____ _____    ______ ____
ROOT
ATOM      1  O   UNL     1       5.566   3.547  19.332  0.00  0.00    +0.000 OA
ATOM      2  C   UNL     1       5.062   4.124  18.374  0.00  0.00    +0.000 C 
ATOM      3  N   UNL     1       3.718   4.221  18.079  0.00  0.00    +0.000 N 
ATOM      4  H   UNL     1       3.431   4.589  17.179  0.00  0.00    +0.000 HD
ENDROOT
BRANCH   3   5
ATOM      5  C   UNL     1       2.704   3.766  18.939  0.00  0.00    +0.000 A 
ATOM      6  N   UNL     1       2.175   2.540  18.748  0.00  0.00    +0.000 NA
ATOM      7  C   UNL     1       1.201   2.124  19.578  0.00  0.00    +0.000 A 
ATOM      8  C   UNL     1       0.708   2.889  20.619  0.00  0.00    +0.000 A 
ATOM      9  C   UNL     1       1.259   4.151  20.825  0.00  0.00    +0.000 A 
ATOM     10  C   UNL     1       2.279   4.592  19.983  0.00  0.00    +0.000 A 
BRANCH  10  11
ATOM     11  O   UNL     1       2.840   5.829  20.163  0.00  0.00    +0.000 OA
ATOM     12  H   UNL     1       2.878   6.277  19.299  0.00  0.00    +0.000 HD
ENDBRANCH  10  11
ENDBRANCH   3   5
BRANCH   2  13
ATOM     13  C   UNL     1       5.997   4.753  17.395  0.00  0.00    +0.000 A 
ATOM     14  C   UNL     1       6.486   6.008  17.705  0.00  0.00    +0.000 A 
ATOM     15  C   UNL     1       7.289   6.567  16.752  0.00  0.00    +0.000 A 
ATOM     16  N   UNL     1       7.595   5.974  15.594  0.00  0.00    +0.000 NA
ATOM     17  C   UNL     1       7.067   4.756  15.400  0.00  0.00    +0.000 A 
ATOM     18  N   UNL     1       6.278   4.085  16.254  0.00  0.00    +0.000 NA
BRANCH  15  19
ATOM     19  O   UNL     1       7.834   7.804  16.936  0.00  0.00    +0.000 OA
ATOM     20  H   UNL     1       7.118   8.430  17.126  0.00  0.00    +0.000 HD
ENDBRANCH  15  19
ENDBRANCH   2  13
TORSDOF 4
ENDMDL
