MODEL 1
REMARK VINA RESULT:      -6.0      0.000      0.000
REMARK  Name = 
REMARK  12 active torsions:
REMARK  status: ('A' for Active; 'I' for Inactive)
REMARK    1  A    between atoms: C_1  and  C_2
REMARK    2  A    between atoms: C_2  and  O_3
REMARK    3  A    between atoms: O_3  and  C_4
REMARK    4  A    between atoms: C_4  and  C_6
REMARK    5  A    between atoms: C_7  and  C_8
REMARK    6  A    between atoms: N_9  and  C_10
REMARK    7  A    between atoms: C_13  and  C_14
REMARK    8  A    between atoms: C_20  and  O_21
REMARK    9  A    between atoms: C_22  and  C_23
REMARK   10  A    between atoms: C_23  and  N_24
REMARK   11  A    between atoms: N_24  and  C_25
REMARK   12  A    between atoms: N_24  and  C_26
REMARK                            x       y       z     vdW  Elec       q    Type
REMARK                         _______ _______ _______ _____ _____    ______ ____
ROOT
ATOM      1  C   UNL     1       3.363   4.588  19.364  0.00  0.00    +0.000 A 
ATOM      2  C   UNL     1       2.564   5.185  20.370  0.00  0.00    +0.000 A 
ATOM      3  C   UNL     1       1.970   4.479  21.573  0.00  0.00    +0.000 C 
ATOM      4  N   UNL     1       2.305   6.499  20.080  0.00  0.00    +0.000 N 
ATOM      5  C   UNL     1       2.920   6.746  18.897  0.00  0.00    +0.000 A 
ATOM      6  C   UNL     1       2.966   7.976  18.222  0.00  0.00    +0.000 A 
ATOM      7  C   UNL     1       3.639   8.064  17.013  0.00  0.00    +0.000 A 
ATOM      8  C   UNL     1       4.309   6.956  16.482  0.00  0.00    +0.000 A 
ATOM      9  C   UNL     1       4.333   5.719  17.192  0.00  0.00    +0.000 A 
ATOM     10  C   UNL     1       3.582   5.623  18.411  0.00  0.00    +0.000 A 
ENDROOT
BRANCH   4  11
ATOM     11  C   UNL     1       1.494   7.431  20.862  0.00  0.00    +0.000 A 
ATOM     12  C   UNL     1       0.083   7.427  20.789  0.00  0.00    +0.000 A 
ATOM     13  C   UNL     1      -0.687   8.329  21.522  0.00  0.00    +0.000 A 
ATOM     14  C   UNL     1      -0.075   9.260  22.368  0.00  0.00    +0.000 A 
ATOM     15  C   UNL     1      -0.897  10.236  23.155  0.00  0.00    +0.000 C 
ATOM     16  C   UNL     1       1.319   9.274  22.468  0.00  0.00    +0.000 A 
ATOM     17  C   UNL     1       2.093   8.381  21.721  0.00  0.00    +0.000 A 
ENDBRANCH   4  11
BRANCH   1  18
ATOM     18  C   UNL     1       3.844   3.142  19.416  0.00  0.00    +0.000 C 
ATOM     19  O   UNL     1       4.952   2.907  19.869  0.00  0.00    +0.000 OA
BRANCH  18  20
ATOM     20  O   UNL     1       3.138   2.094  18.919  0.00  0.00    +0.000 OA
BRANCH  20  22
ATOM     21  C   UNL     1       0.756   2.434  18.644  0.00  0.00    +0.000 C 
ATOM     22  C   UNL     1       1.882   1.696  19.364  0.00  0.00    +0.000 C 
ENDBRANCH  20  22
ENDBRANCH  18  20
ENDBRANCH   1  18
BRANCH   8  23
ATOM     23  O   UNL     1       4.944   7.097  15.297  0.00  0.00    +0.000 OA
ATOM     24  H   UNL     1       4.673   6.615  14.502  0.00  0.00    +0.000 HD
ENDBRANCH   8  23
BRANCH   9  25
ATOM     25  C   UNL     1       5.152   4.550  16.689  0.00  0.00    +0.000 C 
BRANCH  25  26
ATOM     26  N   UNL     1       6.503   4.893  16.200  0.00  0.00    +0.000 NA
ATOM     27  C   UNL     1       7.522   4.537  17.214  0.00  0.00    +0.000 C 
ATOM     28  C   UNL     1       6.773   4.116  14.977  0.00  0.00    +0.000 C 
ENDBRANCH  25  26
ENDBRANCH   9  25
TORSDOF 7
ENDMDL
MODEL 2
REMARK VINA RESULT:      -5.8      5.447      9.466
REMARK  Name = 
REMARK  12 active torsions:
REMARK  status: ('A' for Active; 'I' for Inactive)
REMARK    1  A    between atoms: C_1  and  C_2
REMARK    2  A    between atoms: C_2  and  O_3
REMARK    3  A    between atoms: O_3  and  C_4
REMARK    4  A    between atoms: C_4  and  C_6
REMARK    5  A    between atoms: C_7  and  C_8
REMARK    6  A    between atoms: N_9  and  C_10
REMARK    7  A    between atoms: C_13  and  C_14
REMARK    8  A    between atoms: C_20  and  O_21
REMARK    9  A    between atoms: C_22  and  C_23
REMARK   10  A    between atoms: C_23  and  N_24
REMARK   11  A    between atoms: N_24  and  C_25
REMARK   12  A    between atoms: N_24  and  C_26
REMARK                            x       y       z     vdW  Elec       q    Type
REMARK                         _______ _______ _______ _____ _____    ______ ____
ROOT
ATOM      1  C   UNL     1      -1.201  11.516  20.834  0.00  0.00    +0.000 A 
ATOM      2  C   UNL     1      -0.083  10.648  20.805  0.00  0.00    +0.000 A 
ATOM      3  C   UNL     1       0.961  10.502  21.896  0.00  0.00    +0.000 C 
ATOM      4  N   UNL     1       0.006   9.994  19.605  0.00  0.00    +0.000 N 
ATOM      5  C   UNL     1      -1.038  10.441  18.862  0.00  0.00    +0.000 A 
ATOM      6  C   UNL     1      -1.381  10.018  17.568  0.00  0.00    +0.000 A 
ATOM      7  C   UNL     1      -2.483  10.577  16.940  0.00  0.00    +0.000 A 
ATOM      8  C   UNL     1      -3.282  11.522  17.596  0.00  0.00    +0.000 A 
ATOM      9  C   UNL     1      -2.988  11.906  18.938  0.00  0.00    +0.000 A 
ATOM     10  C   UNL     1      -1.810  11.367  19.555  0.00  0.00    +0.000 A 
ENDROOT
BRANCH   4  11
ATOM     11  C   UNL     1       1.038   9.045  19.192  0.00  0.00    +0.000 A 
ATOM     12  C   UNL     1       1.380   7.928  19.986  0.00  0.00    +0.000 A 
ATOM     13  C   UNL     1       2.378   7.034  19.597  0.00  0.00    +0.000 A 
ATOM     14  C   UNL     1       3.060   7.216  18.391  0.00  0.00    +0.000 A 
ATOM     15  C   UNL     1       4.137   6.262  17.968  0.00  0.00    +0.000 C 
ATOM     16  C   UNL     1       2.729   8.305  17.579  0.00  0.00    +0.000 A 
ATOM     17  C   UNL     1       1.742   9.211  17.976  0.00  0.00    +0.000 A 
ENDBRANCH   4  11
BRANCH   1  18
ATOM     18  C   UNL     1      -1.584  12.359  22.045  0.00  0.00    +0.000 C 
ATOM     19  O   UNL     1      -0.925  13.353  22.303  0.00  0.00    +0.000 OA
BRANCH  18  20
ATOM     20  O   UNL     1      -2.580  12.031  22.907  0.00  0.00    +0.000 OA
BRANCH  20  22
ATOM     21  C   UNL     1      -4.258  12.368  24.622  0.00  0.00    +0.000 C 
ATOM     22  C   UNL     1      -3.541  12.915  23.389  0.00  0.00    +0.000 C 
ENDBRANCH  20  22
ENDBRANCH  18  20
ENDBRANCH   1  18
BRANCH   8  23
ATOM     23  O   UNL     1      -4.340  12.038  16.934  0.00  0.00    +0.000 OA
ATOM     24  H   UNL     1      -4.581  11.757  16.039  0.00  0.00    +0.000 HD
ENDBRANCH   8  23
BRANCH   9  25
ATOM     25  C   UNL     1      -3.910  12.834  19.700  0.00  0.00    +0.000 C 
BRANCH  25  26
ATOM     26  N   UNL     1      -5.353  12.593  19.497  0.00  0.00    +0.000 NA
ATOM     27  C   UNL     1      -5.934  11.929  20.685  0.00  0.00    +0.000 C 
ATOM     28  C   UNL     1      -6.026  13.891  19.312  0.00  0.00    +0.000 C 
ENDBRANCH  25  26
ENDBRANCH   9  25
TORSDOF 7
ENDMDL
MODEL 3
REMARK VINA RESULT:      -5.8      2.004      6.565
REMARK  Name = 
REMARK  12 active torsions:
REMARK  status: ('A' for Active; 'I' for Inactive)
REMARK    1  A    between atoms: C_1  and  C_2
REMARK    2  A    between atoms: C_2  and  O_3
REMARK    3  A    between atoms: O_3  and  C_4
REMARK    4  A    between atoms: C_4  and  C_6
REMARK    5  A    between atoms: C_7  and  C_8
REMARK    6  A    between atoms: N_9  and  C_10
REMARK    7  A    between atoms: C_13  and  C_14
REMARK    8  A    between atoms: C_20  and  O_21
REMARK    9  A    between atoms: C_22  and  C_23
REMARK   10  A    between atoms: C_23  and  N_24
REMARK   11  A    between atoms: N_24  and  C_25
REMARK   12  A    between atoms: N_24  and  C_26
REMARK                            x       y       z     vdW  Elec       q    Type
REMARK                         _______ _______ _______ _____ _____    ______ ____
ROOT
ATOM      1  C   UNL     1       2.763   5.286  19.727  0.00  0.00    +0.000 A 
ATOM      2  C   UNL     1       3.673   4.697  18.816  0.00  0.00    +0.000 A 
ATOM      3  C   UNL     1       4.286   3.314  18.935  0.00  0.00    +0.000 C 
ATOM      4  N   UNL     1       4.021   5.576  17.825  0.00  0.00    +0.000 N 
ATOM      5  C   UNL     1       3.350   6.724  18.096  0.00  0.00    +0.000 A 
ATOM      6  C   UNL     1       3.361   7.898  17.326  0.00  0.00    +0.000 A 
ATOM      7  C   UNL     1       2.620   8.992  17.744  0.00  0.00    +0.000 A 
ATOM      8  C   UNL     1       1.826   8.925  18.896  0.00  0.00    +0.000 A 
ATOM      9  C   UNL     1       1.747   7.715  19.647  0.00  0.00    +0.000 A 
ATOM     10  C   UNL     1       2.567   6.610  19.241  0.00  0.00    +0.000 A 
ENDROOT
BRANCH   4  11
ATOM     11  C   UNL     1       4.956   5.343  16.726  0.00  0.00    +0.000 A 
ATOM     12  C   UNL     1       6.270   5.862  16.748  0.00  0.00    +0.000 A 
ATOM     13  C   UNL     1       7.155   5.653  15.690  0.00  0.00    +0.000 A 
ATOM     14  C   UNL     1       6.763   4.902  14.577  0.00  0.00    +0.000 A 
ATOM     15  C   UNL     1       7.707   4.678  13.434  0.00  0.00    +0.000 C 
ATOM     16  C   UNL     1       5.473   4.365  14.539  0.00  0.00    +0.000 A 
ATOM     17  C   UNL     1       4.579   4.589  15.590  0.00  0.00    +0.000 A 
ENDBRANCH   4  11
BRANCH   1  18
ATOM     18  C   UNL     1       2.168   4.548  20.922  0.00  0.00    +0.000 C 
ATOM     19  O   UNL     1       2.745   4.605  21.995  0.00  0.00    +0.000 OA
BRANCH  18  20
ATOM     20  O   UNL     1       1.063   3.764  20.849  0.00  0.00    +0.000 OA
BRANCH  20  22
ATOM     21  C   UNL     1       0.653   2.457  18.852  0.00  0.00    +0.000 C 
ATOM     22  C   UNL     1       1.034   2.473  20.330  0.00  0.00    +0.000 C 
ENDBRANCH  20  22
ENDBRANCH  18  20
ENDBRANCH   1  18
BRANCH   8  23
ATOM     23  O   UNL     1       1.128  10.024  19.259  0.00  0.00    +0.000 OA
ATOM     24  H   UNL     1       0.457  10.425  18.688  0.00  0.00    +0.000 HD
ENDBRANCH   8  23
BRANCH   9  25
ATOM     25  C   UNL     1       0.802   7.591  20.823  0.00  0.00    +0.000 C 
BRANCH  25  26
ATOM     26  N   UNL     1       0.564   8.841  21.574  0.00  0.00    +0.000 NA
ATOM     27  C   UNL     1      -0.713   8.757  22.317  0.00  0.00    +0.000 C 
ATOM     28  C   UNL     1       1.658   9.024  22.544  0.00  0.00    +0.000 C 
ENDBRANCH  25  26
ENDBRANCH   9  25
TORSDOF 7
ENDMDL
MODEL 4
REMARK VINA RESULT:      -5.7      1.836      4.278
REMARK  Name = 
REMARK  12 active torsions:
REMARK  status: ('A' for Active; 'I' for Inactive)
REMARK    1  A    between atoms: C_1  and  C_2
REMARK    2  A    between atoms: C_2  and  O_3
REMARK    3  A    between atoms: O_3  and  C_4
REMARK    4  A    between atoms: C_4  and  C_6
REMARK    5  A    between atoms: C_7  and  C_8
REMARK    6  A    between atoms: N_9  and  C_10
REMARK    7  A    between atoms: C_13  and  C_14
REMARK    8  A    between atoms: C_20  and  O_21
REMARK    9  A    between atoms: C_22  and  C_23
REMARK   10  A    between atoms: C_23  and  N_24
REMARK   11  A    between atoms: N_24  and  C_25
REMARK   12  A    between atoms: N_24  and  C_26
REMARK                            x       y       z     vdW  Elec       q    Type
REMARK                         _______ _______ _______ _____ _____    ______ ____
ROOT
ATOM      1  C   UNL     1       3.773   6.587  18.093  0.00  0.00    +0.000 A 
ATOM      2  C   UNL     1       3.039   7.789  18.252  0.00  0.00    +0.000 A 
ATOM      3  C   UNL     1       3.255   9.075  17.478  0.00  0.00    +0.000 C 
ATOM      4  N   UNL     1       2.138   7.686  19.278  0.00  0.00    +0.000 N 
ATOM      5  C   UNL     1       2.292   6.436  19.783  0.00  0.00    +0.000 A 
ATOM      6  C   UNL     1       1.549   5.861  20.826  0.00  0.00    +0.000 A 
ATOM      7  C   UNL     1       1.834   4.565  21.229  0.00  0.00    +0.000 A 
ATOM      8  C   UNL     1       2.819   3.810  20.580  0.00  0.00    +0.000 A 
ATOM      9  C   UNL     1       3.531   4.356  19.471  0.00  0.00    +0.000 A 
ATOM     10  C   UNL     1       3.272   5.718  19.103  0.00  0.00    +0.000 A 
ENDROOT
BRANCH   4  11
ATOM     11  C   UNL     1       1.228   8.723  19.761  0.00  0.00    +0.000 A 
ATOM     12  C   UNL     1       0.399   9.451  18.879  0.00  0.00    +0.000 A 
ATOM     13  C   UNL     1      -0.455  10.453  19.340  0.00  0.00    +0.000 A 
ATOM     14  C   UNL     1      -0.523  10.753  20.704  0.00  0.00    +0.000 A 
ATOM     15  C   UNL     1      -1.434  11.832  21.207  0.00  0.00    +0.000 C 
ATOM     16  C   UNL     1       0.277  10.036  21.599  0.00  0.00    +0.000 A 
ATOM     17  C   UNL     1       1.146   9.044  21.136  0.00  0.00    +0.000 A 
ENDBRANCH   4  11
BRANCH   1  18
ATOM     18  C   UNL     1       4.830   6.381  17.014  0.00  0.00    +0.000 C 
ATOM     19  O   UNL     1       4.582   5.635  16.082  0.00  0.00    +0.000 OA
BRANCH  18  20
ATOM     20  O   UNL     1       6.073   6.926  17.062  0.00  0.00    +0.000 OA
BRANCH  20  22
ATOM     21  C   UNL     1       7.536   6.009  18.760  0.00  0.00    +0.000 C 
ATOM     22  C   UNL     1       7.248   6.213  17.275  0.00  0.00    +0.000 C 
ENDBRANCH  20  22
ENDBRANCH  18  20
ENDBRANCH   1  18
BRANCH   8  23
ATOM     23  O   UNL     1       3.059   2.555  21.019  0.00  0.00    +0.000 OA
ATOM     24  H   UNL     1       2.891   1.773  20.473  0.00  0.00    +0.000 HD
ENDBRANCH   8  23
BRANCH   9  25
ATOM     25  C   UNL     1       4.512   3.512  18.686  0.00  0.00    +0.000 C 
BRANCH  25  26
ATOM     26  N   UNL     1       3.905   2.600  17.696  0.00  0.00    +0.000 NA
ATOM     27  C   UNL     1       3.799   1.233  18.254  0.00  0.00    +0.000 C 
ATOM     28  C   UNL     1       2.547   3.080  17.381  0.00  0.00    +0.000 C 
ENDBRANCH  25  26
ENDBRANCH   9  25
TORSDOF 7
ENDMDL
MODEL 5
REMARK VINA RESULT:      -5.7      4.935      9.122
REMARK  Name = 
REMARK  12 active torsions:
REMARK  status: ('A' for Active; 'I' for Inactive)
REMARK    1  A    between atoms: C_1  and  C_2
REMARK    2  A    between atoms: C_2  and  O_3
REMARK    3  A    between atoms: O_3  and  C_4
REMARK    4  A    between atoms: C_4  and  C_6
REMARK    5  A    between atoms: C_7  and  C_8
REMARK    6  A    between atoms: N_9  and  C_10
REMARK    7  A    between atoms: C_13  and  C_14
REMARK    8  A    between atoms: C_20  and  O_21
REMARK    9  A    between atoms: C_22  and  C_23
REMARK   10  A    between atoms: C_23  and  N_24
REMARK   11  A    between atoms: N_24  and  C_25
REMARK   12  A    between atoms: N_24  and  C_26
REMARK                            x       y       z     vdW  Elec       q    Type
REMARK                         _______ _______ _______ _____ _____    ______ ____
ROOT
ATOM      1  C   UNL     1      -0.522  10.987  21.372  0.00  0.00    +0.000 A 
ATOM      2  C   UNL     1       0.498  10.011  21.257  0.00  0.00    +0.000 A 
ATOM      3  C   UNL     1       1.499   9.636  22.334  0.00  0.00    +0.000 C 
ATOM      4  N   UNL     1       0.541   9.487  19.993  0.00  0.00    +0.000 N 
ATOM      5  C   UNL     1      -0.434  10.121  19.294  0.00  0.00    +0.000 A 
ATOM      6  C   UNL     1      -0.794   9.882  17.959  0.00  0.00    +0.000 A 
ATOM      7  C   UNL     1      -1.817  10.621  17.387  0.00  0.00    +0.000 A 
ATOM      8  C   UNL     1      -2.524  11.569  18.137  0.00  0.00    +0.000 A 
ATOM      9  C   UNL     1      -2.219  11.771  19.516  0.00  0.00    +0.000 A 
ATOM     10  C   UNL     1      -1.117  11.045  20.080  0.00  0.00    +0.000 A 
ENDROOT
BRANCH   4  11
ATOM     11  C   UNL     1       1.475   8.483  19.485  0.00  0.00    +0.000 A 
ATOM     12  C   UNL     1       2.185   8.673  18.279  0.00  0.00    +0.000 A 
ATOM     13  C   UNL     1       3.062   7.705  17.788  0.00  0.00    +0.000 A 
ATOM     14  C   UNL     1       3.273   6.518  18.494  0.00  0.00    +0.000 A 
ATOM     15  C   UNL     1       4.210   5.471  17.970  0.00  0.00    +0.000 C 
ATOM     16  C   UNL     1       2.594   6.312  19.699  0.00  0.00    +0.000 A 
ATOM     17  C   UNL     1       1.701   7.274  20.183  0.00  0.00    +0.000 A 
ENDBRANCH   4  11
BRANCH   1  18
ATOM     18  C   UNL     1      -0.838  11.729  22.666  0.00  0.00    +0.000 C 
ATOM     19  O   UNL     1      -1.699  11.282  23.406  0.00  0.00    +0.000 OA
BRANCH  18  20
ATOM     20  O   UNL     1      -0.266  12.909  23.016  0.00  0.00    +0.000 OA
BRANCH  20  22
ATOM     21  C   UNL     1      -1.358  14.631  24.324  0.00  0.00    +0.000 C 
ATOM     22  C   UNL     1      -0.893  14.150  22.952  0.00  0.00    +0.000 C 
ENDBRANCH  20  22
ENDBRANCH  18  20
ENDBRANCH   1  18
BRANCH   8  23
ATOM     23  O   UNL     1      -3.509  12.266  17.527  0.00  0.00    +0.000 OA
ATOM     24  H   UNL     1      -4.271  11.834  17.114  0.00  0.00    +0.000 HD
ENDBRANCH   8  23
BRANCH   9  25
ATOM     25  C   UNL     1      -3.052  12.704  20.368  0.00  0.00    +0.000 C 
BRANCH  25  26
ATOM     26  N   UNL     1      -4.179  12.067  21.080  0.00  0.00    +0.000 NA
ATOM     27  C   UNL     1      -4.439  12.768  22.358  0.00  0.00    +0.000 C 
ATOM     28  C   UNL     1      -5.386  12.167  20.240  0.00  0.00    +0.000 C 
ENDBRANCH  25  26
ENDBRANCH   9  25
TORSDOF 7
ENDMDL
MODEL 6
REMARK VINA RESULT:      -5.7      5.007      9.055
REMARK  Name = 
REMARK  12 active torsions:
REMARK  status: ('A' for Active; 'I' for Inactive)
REMARK    1  A    between atoms: C_1  and  C_2
REMARK    2  A    between atoms: C_2  and  O_3
REMARK    3  A    between atoms: O_3  and  C_4
REMARK    4  A    between atoms: C_4  and  C_6
REMARK    5  A    between atoms: C_7  and  C_8
REMARK    6  A    between atoms: N_9  and  C_10
REMARK    7  A    between atoms: C_13  and  C_14
REMARK    8  A    between atoms: C_20  and  O_21
REMARK    9  A    between atoms: C_22  and  C_23
REMARK   10  A    between atoms: C_23  and  N_24
REMARK   11  A    between atoms: N_24  and  C_25
REMARK   12  A    between atoms: N_24  and  C_26
REMARK                            x       y       z     vdW  Elec       q    Type
REMARK                         _______ _______ _______ _____ _____    ______ ____
ROOT
ATOM      1  C   UNL     1      -0.446  11.071  21.174  0.00  0.00    +0.000 A 
ATOM      2  C   UNL     1       0.560  10.077  21.093  0.00  0.00    +0.000 A 
ATOM      3  C   UNL     1       1.572   9.743  22.172  0.00  0.00    +0.000 C 
ATOM      4  N   UNL     1       0.577   9.490  19.855  0.00  0.00    +0.000 N 
ATOM      5  C   UNL     1      -0.400  10.102  19.141  0.00  0.00    +0.000 A 
ATOM      6  C   UNL     1      -0.784   9.801  17.825  0.00  0.00    +0.000 A 
ATOM      7  C   UNL     1      -1.807  10.525  17.232  0.00  0.00    +0.000 A 
ATOM      8  C   UNL     1      -2.491  11.518  17.944  0.00  0.00    +0.000 A 
ATOM      9  C   UNL     1      -2.161  11.784  19.306  0.00  0.00    +0.000 A 
ATOM     10  C   UNL     1      -1.060  11.072  19.889  0.00  0.00    +0.000 A 
ENDROOT
BRANCH   4  11
ATOM     11  C   UNL     1       1.491   8.450  19.385  0.00  0.00    +0.000 A 
ATOM     12  C   UNL     1       1.661   7.238  20.090  0.00  0.00    +0.000 A 
ATOM     13  C   UNL     1       2.547   6.255  19.648  0.00  0.00    +0.000 A 
ATOM     14  C   UNL     1       3.284   6.442  18.475  0.00  0.00    +0.000 A 
ATOM     15  C   UNL     1       4.242   5.393  17.997  0.00  0.00    +0.000 C 
ATOM     16  C   UNL     1       3.122   7.627  17.751  0.00  0.00    +0.000 A 
ATOM     17  C   UNL     1       2.248   8.620  18.202  0.00  0.00    +0.000 A 
ENDBRANCH   4  11
BRANCH   1  18
ATOM     18  C   UNL     1      -0.733  11.881  22.434  0.00  0.00    +0.000 C 
ATOM     19  O   UNL     1      -1.441  11.392  23.299  0.00  0.00    +0.000 OA
BRANCH  18  20
ATOM     20  O   UNL     1      -0.305  13.155  22.624  0.00  0.00    +0.000 OA
BRANCH  20  22
ATOM     21  C   UNL     1       0.111  15.373  21.745  0.00  0.00    +0.000 C 
ATOM     22  C   UNL     1       0.454  13.885  21.715  0.00  0.00    +0.000 C 
ENDBRANCH  20  22
ENDBRANCH  18  20
ENDBRANCH   1  18
BRANCH   8  23
ATOM     23  O   UNL     1      -3.476  12.196  17.315  0.00  0.00    +0.000 OA
ATOM     24  H   UNL     1      -3.359  12.586  16.436  0.00  0.00    +0.000 HD
ENDBRANCH   8  23
BRANCH   9  25
ATOM     25  C   UNL     1      -2.970  12.769  20.123  0.00  0.00    +0.000 C 
BRANCH  25  26
ATOM     26  N   UNL     1      -4.260  12.257  20.628  0.00  0.00    +0.000 NA
ATOM     27  C   UNL     1      -4.456  12.663  22.039  0.00  0.00    +0.000 C 
ATOM     28  C   UNL     1      -5.348  12.839  19.821  0.00  0.00    +0.000 C 
ENDBRANCH  25  26
ENDBRANCH   9  25
TORSDOF 7
ENDMDL
MODEL 7
REMARK VINA RESULT:      -5.7      5.825      9.932
REMARK  Name = 
REMARK  12 active torsions:
REMARK  status: ('A' for Active; 'I' for Inactive)
REMARK    1  A    between atoms: C_1  and  C_2
REMARK    2  A    between atoms: C_2  and  O_3
REMARK    3  A    between atoms: O_3  and  C_4
REMARK    4  A    between atoms: C_4  and  C_6
REMARK    5  A    between atoms: C_7  and  C_8
REMARK    6  A    between atoms: N_9  and  C_10
REMARK    7  A    between atoms: C_13  and  C_14
REMARK    8  A    between atoms: C_20  and  O_21
REMARK    9  A    between atoms: C_22  and  C_23
REMARK   10  A    between atoms: C_23  and  N_24
REMARK   11  A    between atoms: N_24  and  C_25
REMARK   12  A    between atoms: N_24  and  C_26
REMARK                            x       y       z     vdW  Elec       q    Type
REMARK                         _______ _______ _______ _____ _____    ______ ____
ROOT
ATOM      1  C   UNL     1      -1.653  12.505  20.145  0.00  0.00    +0.000 A 
ATOM      2  C   UNL     1      -0.453  11.754  20.182  0.00  0.00    +0.000 A 
ATOM      3  C   UNL     1       0.807  12.123  20.941  0.00  0.00    +0.000 C 
ATOM      4  N   UNL     1      -0.527  10.662  19.358  0.00  0.00    +0.000 N 
ATOM      5  C   UNL     1      -1.757  10.711  18.787  0.00  0.00    +0.000 A 
ATOM      6  C   UNL     1      -2.302   9.772  17.898  0.00  0.00    +0.000 A 
ATOM      7  C   UNL     1      -3.580   9.969  17.399  0.00  0.00    +0.000 A 
ATOM      8  C   UNL     1      -4.349  11.066  17.807  0.00  0.00    +0.000 A 
ATOM      9  C   UNL     1      -3.837  11.989  18.766  0.00  0.00    +0.000 A 
ATOM     10  C   UNL     1      -2.490  11.809  19.228  0.00  0.00    +0.000 A 
ENDROOT
BRANCH   4  11
ATOM     11  C   UNL     1       0.520   9.673  19.108  0.00  0.00    +0.000 A 
ATOM     12  C   UNL     1       0.915   8.746  20.098  0.00  0.00    +0.000 A 
ATOM     13  C   UNL     1       1.927   7.815  19.863  0.00  0.00    +0.000 A 
ATOM     14  C   UNL     1       2.569   7.766  18.622  0.00  0.00    +0.000 A 
ATOM     15  C   UNL     1       3.661   6.771  18.363  0.00  0.00    +0.000 C 
ATOM     16  C   UNL     1       2.185   8.663  17.621  0.00  0.00    +0.000 A 
ATOM     17  C   UNL     1       1.184   9.608  17.862  0.00  0.00    +0.000 A 
ENDBRANCH   4  11
BRANCH   1  18
ATOM     18  C   UNL     1      -1.889  13.761  20.978  0.00  0.00    +0.000 C 
ATOM     19  O   UNL     1      -1.764  14.851  20.447  0.00  0.00    +0.000 OA
BRANCH  18  20
ATOM     20  O   UNL     1      -2.161  13.743  22.308  0.00  0.00    +0.000 OA
BRANCH  20  22
ATOM     21  C   UNL     1      -2.001  11.550  23.326  0.00  0.00    +0.000 C 
ATOM     22  C   UNL     1      -2.879  12.746  22.962  0.00  0.00    +0.000 C 
ENDBRANCH  20  22
ENDBRANCH  18  20
ENDBRANCH   1  18
BRANCH   8  23
ATOM     23  O   UNL     1      -5.587  11.212  17.284  0.00  0.00    +0.000 OA
ATOM     24  H   UNL     1      -5.737  11.568  16.396  0.00  0.00    +0.000 HD
ENDBRANCH   8  23
BRANCH   9  25
ATOM     25  C   UNL     1      -4.700  13.109  19.304  0.00  0.00    +0.000 C 
BRANCH  25  26
ATOM     26  N   UNL     1      -6.043  12.703  19.766  0.00  0.00    +0.000 NA
ATOM     27  C   UNL     1      -6.124  12.781  21.242  0.00  0.00    +0.000 C 
ATOM     28  C   UNL     1      -7.038  13.628  19.195  0.00  0.00    +0.000 C 
ENDBRANCH  25  26
ENDBRANCH   9  25
TORSDOF 7
ENDMDL
MODEL 8
REMARK VINA RESULT:      -5.6      4.920      8.989
REMARK  Name = 
REMARK  12 active torsions:
REMARK  status: ('A' for Active; 'I' for Inactive)
REMARK    1  A    between atoms: C_1  and  C_2
REMARK    2  A    between atoms: C_2  and  O_3
REMARK    3  A    between atoms: O_3  and  C_4
REMARK    4  A    between atoms: C_4  and  C_6
REMARK    5  A    between atoms: C_7  and  C_8
REMARK    6  A    between atoms: N_9  and  C_10
REMARK    7  A    between atoms: C_13  and  C_14
REMARK    8  A    between atoms: C_20  and  O_21
REMARK    9  A    between atoms: C_22  and  C_23
REMARK   10  A    between atoms: C_23  and  N_24
REMARK   11  A    between atoms: N_24  and  C_25
REMARK   12  A    between atoms: N_24  and  C_26
REMARK                            x       y       z     vdW  Elec       q    Type
REMARK                         _______ _______ _______ _____ _____    ______ ____
ROOT
ATOM      1  C   UNL     1      -0.467  10.737  21.356  0.00  0.00    +0.000 A 
ATOM      2  C   UNL     1       0.580   9.798  21.190  0.00  0.00    +0.000 A 
ATOM      3  C   UNL     1       1.570   9.370  22.256  0.00  0.00    +0.000 C 
ATOM      4  N   UNL     1       0.658   9.367  19.893  0.00  0.00    +0.000 N 
ATOM      5  C   UNL     1      -0.321  10.027  19.223  0.00  0.00    +0.000 A 
ATOM      6  C   UNL     1      -0.652   9.876  17.868  0.00  0.00    +0.000 A 
ATOM      7  C   UNL     1      -1.684  10.630  17.332  0.00  0.00    +0.000 A 
ATOM      8  C   UNL     1      -2.428  11.504  18.134  0.00  0.00    +0.000 A 
ATOM      9  C   UNL     1      -2.151  11.613  19.529  0.00  0.00    +0.000 A 
ATOM     10  C   UNL     1      -1.042  10.874  20.060  0.00  0.00    +0.000 A 
ENDROOT
BRANCH   4  11
ATOM     11  C   UNL     1       1.625   8.425  19.332  0.00  0.00    +0.000 A 
ATOM     12  C   UNL     1       2.315   8.699  18.130  0.00  0.00    +0.000 A 
ATOM     13  C   UNL     1       3.224   7.790  17.588  0.00  0.00    +0.000 A 
ATOM     14  C   UNL     1       3.489   6.581  18.238  0.00  0.00    +0.000 A 
ATOM     15  C   UNL     1       4.461   5.597  17.658  0.00  0.00    +0.000 C 
ATOM     16  C   UNL     1       2.830   6.294  19.437  0.00  0.00    +0.000 A 
ATOM     17  C   UNL     1       1.905   7.195  19.971  0.00  0.00    +0.000 A 
ENDBRANCH   4  11
BRANCH   1  18
ATOM     18  C   UNL     1      -0.824  11.376  22.694  0.00  0.00    +0.000 C 
ATOM     19  O   UNL     1      -1.448  10.721  23.511  0.00  0.00    +0.000 OA
BRANCH  18  20
ATOM     20  O   UNL     1      -0.551  12.669  23.008  0.00  0.00    +0.000 OA
BRANCH  20  22
ATOM     21  C   UNL     1      -0.843  14.940  23.798  0.00  0.00    +0.000 C 
ATOM     22  C   UNL     1      -1.444  13.548  23.611  0.00  0.00    +0.000 C 
ENDBRANCH  20  22
ENDBRANCH  18  20
ENDBRANCH   1  18
BRANCH   8  23
ATOM     23  O   UNL     1      -3.420  12.219  17.557  0.00  0.00    +0.000 OA
ATOM     24  H   UNL     1      -3.745  13.050  17.931  0.00  0.00    +0.000 HD
ENDBRANCH   8  23
BRANCH   9  25
ATOM     25  C   UNL     1      -3.023  12.461  20.430  0.00  0.00    +0.000 C 
BRANCH  25  26
ATOM     26  N   UNL     1      -3.041  13.903  20.112  0.00  0.00    +0.000 NA
ATOM     27  C   UNL     1      -3.900  14.630  21.074  0.00  0.00    +0.000 C 
ATOM     28  C   UNL     1      -1.669  14.429  20.223  0.00  0.00    +0.000 C 
ENDBRANCH  25  26
ENDBRANCH   9  25
TORSDOF 7
ENDMDL
MODEL 9
REMARK VINA RESULT:      -5.6      6.113     10.273
REMARK  Name = 
REMARK  12 active torsions:
REMARK  status: ('A' for Active; 'I' for Inactive)
REMARK    1  A    between atoms: C_1  and  C_2
REMARK    2  A    between atoms: C_2  and  O_3
REMARK    3  A    between atoms: O_3  and  C_4
REMARK    4  A    between atoms: C_4  and  C_6
REMARK    5  A    between atoms: C_7  and  C_8
REMARK    6  A    between atoms: N_9  and  C_10
REMARK    7  A    between atoms: C_13  and  C_14
REMARK    8  A    between atoms: C_20  and  O_21
REMARK    9  A    between atoms: C_22  and  C_23
REMARK   10  A    between atoms: C_23  and  N_24
REMARK   11  A    between atoms: N_24  and  C_25
REMARK   12  A    between atoms: N_24  and  C_26
REMARK                            x       y       z     vdW  Elec       q    Type
REMARK                         _______ _______ _______ _____ _____    ______ ____
ROOT
ATOM      1  C   UNL     1      -1.994  12.526  20.242  0.00  0.00    +0.000 A 
ATOM      2  C   UNL     1      -0.770  11.814  20.283  0.00  0.00    +0.000 A 
ATOM      3  C   UNL     1       0.457  12.195  21.089  0.00  0.00    +0.000 C 
ATOM      4  N   UNL     1      -0.785  10.754  19.416  0.00  0.00    +0.000 N 
ATOM      5  C   UNL     1      -2.001  10.784  18.813  0.00  0.00    +0.000 A 
ATOM      6  C   UNL     1      -2.489   9.863  17.874  0.00  0.00    +0.000 A 
ATOM      7  C   UNL     1      -3.759  10.036  17.348  0.00  0.00    +0.000 A 
ATOM      8  C   UNL     1      -4.576  11.091  17.776  0.00  0.00    +0.000 A 
ATOM      9  C   UNL     1      -4.121  11.992  18.784  0.00  0.00    +0.000 A 
ATOM     10  C   UNL     1      -2.782  11.839  19.276  0.00  0.00    +0.000 A 
ENDROOT
BRANCH   4  11
ATOM     11  C   UNL     1       0.301   9.810  19.157  0.00  0.00    +0.000 A 
ATOM     12  C   UNL     1       0.972   9.774  17.914  0.00  0.00    +0.000 A 
ATOM     13  C   UNL     1       1.996   8.861  17.664  0.00  0.00    +0.000 A 
ATOM     14  C   UNL     1       2.398   7.959  18.654  0.00  0.00    +0.000 A 
ATOM     15  C   UNL     1       3.494   6.970  18.391  0.00  0.00    +0.000 C 
ATOM     16  C   UNL     1       1.759   7.985  19.898  0.00  0.00    +0.000 A 
ATOM     17  C   UNL     1       0.721   8.888  20.144  0.00  0.00    +0.000 A 
ENDBRANCH   4  11
BRANCH   1  18
ATOM     18  C   UNL     1      -2.294  13.739  21.115  0.00  0.00    +0.000 C 
ATOM     19  O   UNL     1      -2.639  13.561  22.272  0.00  0.00    +0.000 OA
BRANCH  18  20
ATOM     20  O   UNL     1      -2.271  15.018  20.662  0.00  0.00    +0.000 OA
BRANCH  20  22
ATOM     21  C   UNL     1      -0.096  15.935  21.205  0.00  0.00    +0.000 C 
ATOM     22  C   UNL     1      -1.153  15.659  20.138  0.00  0.00    +0.000 C 
ENDBRANCH  20  22
ENDBRANCH  18  20
ENDBRANCH   1  18
BRANCH   8  23
ATOM     23  O   UNL     1      -5.804  11.215  17.225  0.00  0.00    +0.000 OA
ATOM     24  H   UNL     1      -6.563  10.691  17.522  0.00  0.00    +0.000 HD
ENDBRANCH   8  23
BRANCH   9  25
ATOM     25  C   UNL     1      -5.037  13.061  19.341  0.00  0.00    +0.000 C 
BRANCH  25  26
ATOM     26  N   UNL     1      -6.211  12.559  20.084  0.00  0.00    +0.000 NA
ATOM     27  C   UNL     1      -5.962  12.627  21.542  0.00  0.00    +0.000 C 
ATOM     28  C   UNL     1      -7.369  13.415  19.769  0.00  0.00    +0.000 C 
ENDBRANCH  25  26
ENDBRANCH   9  25
TORSDOF 7
ENDMDL
