MODEL 1
REMARK VINA RESULT:      -7.5      0.000      0.000
REMARK  Name = 
REMARK  8 active torsions:
REMARK  status: ('A' for Active; 'I' for Inactive)
REMARK    1  A    between atoms: C_1  and  O_2
REMARK    2  A    between atoms: O_2  and  C_3
REMARK    3  A    between atoms: C_9  and  C_10
REMARK    4  A    between atoms: N_12  and  C_13
REMARK    5  A    between atoms: C_13  and  C_14
REMARK    6  A    between atoms: N_21  and  C_22
REMARK    7  A    between atoms: C_22  and  C_23
REMARK    8  A    between atoms: C_27  and  C_28
REMARK                            x       y       z     vdW  Elec       q    Type
REMARK                         _______ _______ _______ _____ _____    ______ ____
ROOT
ATOM      1  C   UNL     1      -0.221  13.053  21.406  0.00  0.00    +0.000 A 
ATOM      2  C   UNL     1      -0.535  12.381  22.516  0.00  0.00    +0.000 A 
ATOM      3  C   UNL     1      -0.611  10.921  22.521  0.00  0.00    +0.000 A 
ATOM      4  O   UNL     1      -0.790  10.357  23.598  0.00  0.00    +0.000 OA
ATOM      5  N   UNL     1      -0.443  10.292  21.300  0.00  0.00    +0.000 N 
ATOM      6  C   UNL     1      -0.150  10.989  20.105  0.00  0.00    +0.000 A 
ATOM      7  C   UNL     1       0.003  12.350  20.124  0.00  0.00    +0.000 A 
ATOM      8  C   UNL     1       0.027  10.077  18.896  0.00  0.00    +0.000 C 
ATOM      9  C   UNL     1       1.381   9.348  18.933  0.00  0.00    +0.000 C 
ATOM     10  N   UNL     1       1.363   8.071  19.679  0.00  0.00    +0.000 NA
ATOM     11  C   UNL     1       0.982   8.245  21.101  0.00  0.00    +0.000 C 
ATOM     12  C   UNL     1      -0.425   8.820  21.336  0.00  0.00    +0.000 C 
ENDROOT
BRANCH   7  13
ATOM     13  C   UNL     1       0.488  13.113  18.879  0.00  0.00    +0.000 C 
ATOM     14  O   UNL     1      -0.239  13.382  17.922  0.00  0.00    +0.000 OA
ATOM     15  N   UNL     1       1.818  13.447  18.838  0.00  0.00    +0.000 N 
ATOM     16  H   UNL     1       2.342  13.413  19.703  0.00  0.00    +0.000 HD
BRANCH  15  17
ATOM     17  C   UNL     1       2.441  14.148  17.739  0.00  0.00    +0.000 C 
BRANCH  17  18
ATOM     18  C   UNL     1       3.454  15.096  18.278  0.00  0.00    +0.000 A 
ATOM     19  C   UNL     1       3.640  16.459  18.138  0.00  0.00    +0.000 A 
ATOM     20  C   UNL     1       4.765  16.798  18.930  0.00  0.00    +0.000 A 
ATOM     21  C   UNL     1       5.198  15.627  19.501  0.00  0.00    +0.000 A 
ATOM     22  O   UNL     1       4.415  14.585  19.109  0.00  0.00    +0.000 OA
ENDBRANCH  17  18
ENDBRANCH  15  17
ENDBRANCH   7  13
BRANCH   1  24
ATOM     23  C   UNL     1       1.097  14.938  22.018  0.00  0.00    +0.000 C 
ATOM     24  O   UNL     1      -0.085  14.431  21.391  0.00  0.00    +0.000 OA
ENDBRANCH   1  24
BRANCH  10  25
ATOM     25  C   UNL     1       2.686   7.413  19.635  0.00  0.00    +0.000 C 
BRANCH  25  26
ATOM     26  C   UNL     1       2.722   6.086  18.906  0.00  0.00    +0.000 A 
ATOM     27  C   UNL     1       3.610   5.888  17.839  0.00  0.00    +0.000 A 
ATOM     28  C   UNL     1       3.722   4.637  17.233  0.00  0.00    +0.000 A 
ATOM     29  C   UNL     1       2.954   3.567  17.690  0.00  0.00    +0.000 A 
ATOM     30  C   UNL     1       2.042   3.744  18.741  0.00  0.00    +0.000 A 
ATOM     31  C   UNL     1       1.922   5.014  19.332  0.00  0.00    +0.000 A 
BRANCH  30  32
ATOM     32  C   UNL     1       1.221   2.591  19.262  0.00  0.00    +0.000 C 
ATOM     33  F   UNL     1       1.901   1.410  19.296  0.00  0.00    +0.000 F 
ATOM     34  F   UNL     1       0.783   2.800  20.536  0.00  0.00    +0.000 F 
ATOM     35  F   UNL     1       0.106   2.357  18.517  0.00  0.00    +0.000 F 
ENDBRANCH  30  32
ENDBRANCH  25  26
ENDBRANCH  10  25
TORSDOF 7
ENDMDL
MODEL 2
REMARK VINA RESULT:      -7.4      3.261      5.885
REMARK  Name = 
REMARK  8 active torsions:
REMARK  status: ('A' for Active; 'I' for Inactive)
REMARK    1  A    between atoms: C_1  and  O_2
REMARK    2  A    between atoms: O_2  and  C_3
REMARK    3  A    between atoms: C_9  and  C_10
REMARK    4  A    between atoms: N_12  and  C_13
REMARK    5  A    between atoms: C_13  and  C_14
REMARK    6  A    between atoms: N_21  and  C_22
REMARK    7  A    between atoms: C_22  and  C_23
REMARK    8  A    between atoms: C_27  and  C_28
REMARK                            x       y       z     vdW  Elec       q    Type
REMARK                         _______ _______ _______ _____ _____    ______ ____
ROOT
ATOM      1  C   UNL     1      -3.483  12.175  19.249  0.00  0.00    +0.000 A 
ATOM      2  C   UNL     1      -3.352  11.562  18.071  0.00  0.00    +0.000 A 
ATOM      3  C   UNL     1      -2.101  10.903  17.697  0.00  0.00    +0.000 A 
ATOM      4  O   UNL     1      -2.080  10.257  16.651  0.00  0.00    +0.000 OA
ATOM      5  N   UNL     1      -1.044  11.041  18.580  0.00  0.00    +0.000 N 
ATOM      6  C   UNL     1      -1.152  11.722  19.814  0.00  0.00    +0.000 A 
ATOM      7  C   UNL     1      -2.351  12.265  20.196  0.00  0.00    +0.000 A 
ATOM      8  C   UNL     1       0.135  11.710  20.631  0.00  0.00    +0.000 C 
ATOM      9  C   UNL     1       0.377  10.339  21.283  0.00  0.00    +0.000 C 
ATOM     10  N   UNL     1       1.111   9.380  20.428  0.00  0.00    +0.000 NA
ATOM     11  C   UNL     1       0.401   9.082  19.162  0.00  0.00    +0.000 C 
ATOM     12  C   UNL     1       0.176  10.292  18.237  0.00  0.00    +0.000 C 
ENDROOT
BRANCH   7  13
ATOM     13  C   UNL     1      -2.542  12.860  21.603  0.00  0.00    +0.000 C 
ATOM     14  O   UNL     1      -1.921  13.840  22.014  0.00  0.00    +0.000 OA
ATOM     15  N   UNL     1      -3.414  12.208  22.436  0.00  0.00    +0.000 N 
ATOM     16  H   UNL     1      -4.063  11.550  22.023  0.00  0.00    +0.000 HD
BRANCH  15  17
ATOM     17  C   UNL     1      -3.698  12.622  23.791  0.00  0.00    +0.000 C 
BRANCH  17  18
ATOM     18  C   UNL     1      -5.092  13.137  23.861  0.00  0.00    +0.000 A 
ATOM     19  C   UNL     1      -5.640  14.399  23.712  0.00  0.00    +0.000 A 
ATOM     20  C   UNL     1      -7.042  14.250  23.852  0.00  0.00    +0.000 A 
ATOM     21  C   UNL     1      -7.265  12.915  24.079  0.00  0.00    +0.000 A 
ATOM     22  O   UNL     1      -6.089  12.229  24.093  0.00  0.00    +0.000 OA
ENDBRANCH  17  18
ENDBRANCH  15  17
ENDBRANCH   7  13
BRANCH   1  24
ATOM     23  C   UNL     1      -5.740  12.691  18.696  0.00  0.00    +0.000 C 
ATOM     24  O   UNL     1      -4.676  12.755  19.650  0.00  0.00    +0.000 OA
ENDBRANCH   1  24
BRANCH  10  25
ATOM     25  C   UNL     1       1.338   8.104  21.138  0.00  0.00    +0.000 C 
BRANCH  25  26
ATOM     26  C   UNL     1       1.831   6.963  20.272  0.00  0.00    +0.000 A 
ATOM     27  C   UNL     1       2.583   7.225  19.118  0.00  0.00    +0.000 A 
ATOM     28  C   UNL     1       3.127   6.178  18.374  0.00  0.00    +0.000 A 
ATOM     29  C   UNL     1       2.934   4.858  18.780  0.00  0.00    +0.000 A 
ATOM     30  C   UNL     1       2.168   4.569  19.918  0.00  0.00    +0.000 A 
ATOM     31  C   UNL     1       1.606   5.630  20.648  0.00  0.00    +0.000 A 
BRANCH  30  32
ATOM     32  C   UNL     1       1.970   3.147  20.382  0.00  0.00    +0.000 C 
ATOM     33  F   UNL     1       1.644   2.286  19.377  0.00  0.00    +0.000 F 
ATOM     34  F   UNL     1       3.090   2.630  20.962  0.00  0.00    +0.000 F 
ATOM     35  F   UNL     1       0.979   3.027  21.309  0.00  0.00    +0.000 F 
ENDBRANCH  30  32
ENDBRANCH  25  26
ENDBRANCH  10  25
TORSDOF 7
ENDMDL
MODEL 3
REMARK VINA RESULT:      -7.4      3.739      6.255
REMARK  Name = 
REMARK  8 active torsions:
REMARK  status: ('A' for Active; 'I' for Inactive)
REMARK    1  A    between atoms: C_1  and  O_2
REMARK    2  A    between atoms: O_2  and  C_3
REMARK    3  A    between atoms: C_9  and  C_10
REMARK    4  A    between atoms: N_12  and  C_13
REMARK    5  A    between atoms: C_13  and  C_14
REMARK    6  A    between atoms: N_21  and  C_22
REMARK    7  A    between atoms: C_22  and  C_23
REMARK    8  A    between atoms: C_27  and  C_28
REMARK                            x       y       z     vdW  Elec       q    Type
REMARK                         _______ _______ _______ _____ _____    ______ ____
ROOT
ATOM      1  C   UNL     1      -4.553  11.880  18.962  0.00  0.00    +0.000 A 
ATOM      2  C   UNL     1      -4.418  11.104  17.884  0.00  0.00    +0.000 A 
ATOM      3  C   UNL     1      -3.106  10.614  17.464  0.00  0.00    +0.000 A 
ATOM      4  O   UNL     1      -3.061   9.811  16.535  0.00  0.00    +0.000 OA
ATOM      5  N   UNL     1      -2.017  11.083  18.178  0.00  0.00    +0.000 N 
ATOM      6  C   UNL     1      -2.136  11.938  19.297  0.00  0.00    +0.000 A 
ATOM      7  C   UNL     1      -3.375  12.325  19.737  0.00  0.00    +0.000 A 
ATOM      8  C   UNL     1      -0.800  12.289  19.942  0.00  0.00    +0.000 C 
ATOM      9  C   UNL     1      -0.243  11.113  20.761  0.00  0.00    +0.000 C 
ATOM     10  N   UNL     1       0.577  10.161  19.979  0.00  0.00    +0.000 NA
ATOM     11  C   UNL     1      -0.179   9.532  18.870  0.00  0.00    +0.000 C 
ATOM     12  C   UNL     1      -0.714  10.507  17.807  0.00  0.00    +0.000 C 
ENDROOT
BRANCH   7  13
ATOM     13  C   UNL     1      -3.543  13.113  21.048  0.00  0.00    +0.000 C 
ATOM     14  O   UNL     1      -3.330  14.322  21.145  0.00  0.00    +0.000 OA
ATOM     15  N   UNL     1      -3.894  12.392  22.160  0.00  0.00    +0.000 N 
ATOM     16  H   UNL     1      -4.268  11.462  22.024  0.00  0.00    +0.000 HD
BRANCH  15  17
ATOM     17  C   UNL     1      -4.078  12.970  23.473  0.00  0.00    +0.000 C 
BRANCH  17  18
ATOM     18  C   UNL     1      -5.521  13.279  23.671  0.00  0.00    +0.000 A 
ATOM     19  C   UNL     1      -6.213  14.458  23.875  0.00  0.00    +0.000 A 
ATOM     20  C   UNL     1      -7.586  14.114  23.956  0.00  0.00    +0.000 A 
ATOM     21  C   UNL     1      -7.648  12.751  23.799  0.00  0.00    +0.000 A 
ATOM     22  O   UNL     1      -6.400  12.231  23.631  0.00  0.00    +0.000 OA
ENDBRANCH  17  18
ENDBRANCH  15  17
ENDBRANCH   7  13
BRANCH   1  24
ATOM     23  C   UNL     1      -6.363  13.402  18.691  0.00  0.00    +0.000 C 
ATOM     24  O   UNL     1      -5.792  12.307  19.413  0.00  0.00    +0.000 OA
ENDBRANCH   1  24
BRANCH  10  25
ATOM     25  C   UNL     1       1.107   9.085  20.843  0.00  0.00    +0.000 C 
BRANCH  25  26
ATOM     26  C   UNL     1       1.628   7.867  20.109  0.00  0.00    +0.000 A 
ATOM     27  C   UNL     1       2.305   8.012  18.889  0.00  0.00    +0.000 A 
ATOM     28  C   UNL     1       2.878   6.907  18.261  0.00  0.00    +0.000 A 
ATOM     29  C   UNL     1       2.790   5.645  18.847  0.00  0.00    +0.000 A 
ATOM     30  C   UNL     1       2.100   5.470  20.056  0.00  0.00    +0.000 A 
ATOM     31  C   UNL     1       1.508   6.587  20.670  0.00  0.00    +0.000 A 
BRANCH  30  32
ATOM     32  C   UNL     1       2.016   4.116  20.714  0.00  0.00    +0.000 C 
ATOM     33  F   UNL     1       2.857   3.191  20.170  0.00  0.00    +0.000 F 
ATOM     34  F   UNL     1       2.330   4.163  22.040  0.00  0.00    +0.000 F 
ATOM     35  F   UNL     1       0.770   3.571  20.645  0.00  0.00    +0.000 F 
ENDBRANCH  30  32
ENDBRANCH  25  26
ENDBRANCH  10  25
TORSDOF 7
ENDMDL
MODEL 4
REMARK VINA RESULT:      -7.4      3.385      5.952
REMARK  Name = 
REMARK  8 active torsions:
REMARK  status: ('A' for Active; 'I' for Inactive)
REMARK    1  A    between atoms: C_1  and  O_2
REMARK    2  A    between atoms: O_2  and  C_3
REMARK    3  A    between atoms: C_9  and  C_10
REMARK    4  A    between atoms: N_12  and  C_13
REMARK    5  A    between atoms: C_13  and  C_14
REMARK    6  A    between atoms: N_21  and  C_22
REMARK    7  A    between atoms: C_22  and  C_23
REMARK    8  A    between atoms: C_27  and  C_28
REMARK                            x       y       z     vdW  Elec       q    Type
REMARK                         _______ _______ _______ _____ _____    ______ ____
ROOT
ATOM      1  C   UNL     1      -3.727  12.216  19.304  0.00  0.00    +0.000 A 
ATOM      2  C   UNL     1      -3.547  11.623  18.121  0.00  0.00    +0.000 A 
ATOM      3  C   UNL     1      -2.255  11.048  17.753  0.00  0.00    +0.000 A 
ATOM      4  O   UNL     1      -2.185  10.415  16.701  0.00  0.00    +0.000 OA
ATOM      5  N   UNL     1      -1.216  11.244  18.645  0.00  0.00    +0.000 N 
ATOM      6  C   UNL     1      -1.377  11.906  19.885  0.00  0.00    +0.000 A 
ATOM      7  C   UNL     1      -2.611  12.368  20.261  0.00  0.00    +0.000 A 
ATOM      8  C   UNL     1      -0.098  11.967  20.713  0.00  0.00    +0.000 C 
ATOM      9  C   UNL     1       0.224  10.607  21.355  0.00  0.00    +0.000 C 
ATOM     10  N   UNL     1       1.025   9.705  20.497  0.00  0.00    +0.000 NA
ATOM     11  C   UNL     1       0.345   9.375  19.222  0.00  0.00    +0.000 C 
ATOM     12  C   UNL     1       0.052  10.578  18.307  0.00  0.00    +0.000 C 
ENDROOT
BRANCH   7  13
ATOM     13  C   UNL     1      -2.850  12.936  21.671  0.00  0.00    +0.000 C 
ATOM     14  O   UNL     1      -2.326  13.971  22.083  0.00  0.00    +0.000 OA
ATOM     15  N   UNL     1      -3.648  12.198  22.507  0.00  0.00    +0.000 N 
ATOM     16  H   UNL     1      -4.232  11.481  22.095  0.00  0.00    +0.000 HD
BRANCH  15  17
ATOM     17  C   UNL     1      -3.963  12.577  23.866  0.00  0.00    +0.000 C 
BRANCH  17  18
ATOM     18  C   UNL     1      -5.294  13.242  23.890  0.00  0.00    +0.000 A 
ATOM     19  C   UNL     1      -6.577  12.778  24.121  0.00  0.00    +0.000 A 
ATOM     20  C   UNL     1      -7.435  13.903  24.046  0.00  0.00    +0.000 A 
ATOM     21  C   UNL     1      -6.629  14.981  23.771  0.00  0.00    +0.000 A 
ATOM     22  O   UNL     1      -5.329  14.592  23.667  0.00  0.00    +0.000 OA
ENDBRANCH  17  18
ENDBRANCH  15  17
ENDBRANCH   7  13
BRANCH   1  24
ATOM     23  C   UNL     1      -6.017  11.755  19.764  0.00  0.00    +0.000 C 
ATOM     24  O   UNL     1      -4.957  12.715  19.700  0.00  0.00    +0.000 OA
ENDBRANCH   1  24
BRANCH  10  25
ATOM     25  C   UNL     1       1.327   8.439  21.198  0.00  0.00    +0.000 C 
BRANCH  25  26
ATOM     26  C   UNL     1       1.769   7.298  20.305  0.00  0.00    +0.000 A 
ATOM     27  C   UNL     1       2.470   7.559  19.119  0.00  0.00    +0.000 A 
ATOM     28  C   UNL     1       2.971   6.511  18.347  0.00  0.00    +0.000 A 
ATOM     29  C   UNL     1       2.785   5.190  18.755  0.00  0.00    +0.000 A 
ATOM     30  C   UNL     1       2.069   4.902  19.926  0.00  0.00    +0.000 A 
ATOM     31  C   UNL     1       1.550   5.965  20.685  0.00  0.00    +0.000 A 
BRANCH  30  32
ATOM     32  C   UNL     1       1.879   3.481  20.392  0.00  0.00    +0.000 C 
ATOM     33  F   UNL     1       2.964   2.971  21.042  0.00  0.00    +0.000 F 
ATOM     34  F   UNL     1       0.837   3.354  21.262  0.00  0.00    +0.000 F 
ATOM     35  F   UNL     1       1.620   2.619  19.370  0.00  0.00    +0.000 F 
ENDBRANCH  30  32
ENDBRANCH  25  26
ENDBRANCH  10  25
TORSDOF 7
ENDMDL
MODEL 5
REMARK VINA RESULT:      -7.3      0.950      1.283
REMARK  Name = 
REMARK  8 active torsions:
REMARK  status: ('A' for Active; 'I' for Inactive)
REMARK    1  A    between atoms: C_1  and  O_2
REMARK    2  A    between atoms: O_2  and  C_3
REMARK    3  A    between atoms: C_9  and  C_10
REMARK    4  A    between atoms: N_12  and  C_13
REMARK    5  A    between atoms: C_13  and  C_14
REMARK    6  A    between atoms: N_21  and  C_22
REMARK    7  A    between atoms: C_22  and  C_23
REMARK    8  A    between atoms: C_27  and  C_28
REMARK                            x       y       z     vdW  Elec       q    Type
REMARK                         _______ _______ _______ _____ _____    ______ ____
ROOT
ATOM      1  C   UNL     1      -0.544  12.607  21.968  0.00  0.00    +0.000 A 
ATOM      2  C   UNL     1      -0.591  11.733  22.976  0.00  0.00    +0.000 A 
ATOM      3  C   UNL     1      -0.472  10.296  22.738  0.00  0.00    +0.000 A 
ATOM      4  O   UNL     1      -0.407   9.553  23.716  0.00  0.00    +0.000 OA
ATOM      5  N   UNL     1      -0.415   9.893  21.416  0.00  0.00    +0.000 N 
ATOM      6  C   UNL     1      -0.404  10.801  20.331  0.00  0.00    +0.000 A 
ATOM      7  C   UNL     1      -0.430  12.151  20.565  0.00  0.00    +0.000 A 
ATOM      8  C   UNL     1      -0.298  10.122  18.970  0.00  0.00    +0.000 C 
ATOM      9  C   UNL     1       1.129   9.615  18.703  0.00  0.00    +0.000 C 
ATOM     10  N   UNL     1       1.396   8.252  19.213  0.00  0.00    +0.000 NA
ATOM     11  C   UNL     1       1.220   8.146  20.681  0.00  0.00    +0.000 C 
ATOM     12  C   UNL     1      -0.198   8.454  21.195  0.00  0.00    +0.000 C 
ENDROOT
BRANCH   7  13
ATOM     13  C   UNL     1      -0.249  13.160  19.418  0.00  0.00    +0.000 C 
ATOM     14  O   UNL     1      -0.893  13.118  18.370  0.00  0.00    +0.000 OA
ATOM     15  N   UNL     1       0.729  14.108  19.579  0.00  0.00    +0.000 N 
ATOM     16  H   UNL     1       1.092  14.261  20.511  0.00  0.00    +0.000 HD
BRANCH  15  17
ATOM     17  C   UNL     1       1.042  15.120  18.596  0.00  0.00    +0.000 C 
BRANCH  17  18
ATOM     18  C   UNL     1       2.521  15.243  18.479  0.00  0.00    +0.000 A 
ATOM     19  C   UNL     1       3.529  14.325  18.252  0.00  0.00    +0.000 A 
ATOM     20  C   UNL     1       4.742  15.057  18.209  0.00  0.00    +0.000 A 
ATOM     21  C   UNL     1       4.404  16.371  18.415  0.00  0.00    +0.000 A 
ATOM     22  O   UNL     1       3.059  16.498  18.587  0.00  0.00    +0.000 OA
ENDBRANCH  17  18
ENDBRANCH  15  17
ENDBRANCH   7  13
BRANCH   1  24
ATOM     23  C   UNL     1      -1.231  14.390  23.386  0.00  0.00    +0.000 C 
ATOM     24  O   UNL     1      -0.594  13.976  22.173  0.00  0.00    +0.000 OA
ENDBRANCH   1  24
BRANCH  10  25
ATOM     25  C   UNL     1       2.770   7.822  18.882  0.00  0.00    +0.000 C 
BRANCH  25  26
ATOM     26  C   UNL     1       2.903   6.387  18.418  0.00  0.00    +0.000 A 
ATOM     27  C   UNL     1       3.910   6.026  17.511  0.00  0.00    +0.000 A 
ATOM     28  C   UNL     1       4.103   4.690  17.161  0.00  0.00    +0.000 A 
ATOM     29  C   UNL     1       3.298   3.698  17.717  0.00  0.00    +0.000 A 
ATOM     30  C   UNL     1       2.269   4.034  18.609  0.00  0.00    +0.000 A 
ATOM     31  C   UNL     1       2.070   5.386  18.940  0.00  0.00    +0.000 A 
BRANCH  30  32
ATOM     32  C   UNL     1       1.404   2.970  19.237  0.00  0.00    +0.000 C 
ATOM     33  F   UNL     1       0.805   3.368  20.395  0.00  0.00    +0.000 F 
ATOM     34  F   UNL     1       0.391   2.573  18.416  0.00  0.00    +0.000 F 
ATOM     35  F   UNL     1       2.099   1.840  19.548  0.00  0.00    +0.000 F 
ENDBRANCH  30  32
ENDBRANCH  25  26
ENDBRANCH  10  25
TORSDOF 7
ENDMDL
MODEL 6
REMARK VINA RESULT:      -7.2      1.475      1.854
REMARK  Name = 
REMARK  8 active torsions:
REMARK  status: ('A' for Active; 'I' for Inactive)
REMARK    1  A    between atoms: C_1  and  O_2
REMARK    2  A    between atoms: O_2  and  C_3
REMARK    3  A    between atoms: C_9  and  C_10
REMARK    4  A    between atoms: N_12  and  C_13
REMARK    5  A    between atoms: C_13  and  C_14
REMARK    6  A    between atoms: N_21  and  C_22
REMARK    7  A    between atoms: C_22  and  C_23
REMARK    8  A    between atoms: C_27  and  C_28
REMARK                            x       y       z     vdW  Elec       q    Type
REMARK                         _______ _______ _______ _____ _____    ______ ____
ROOT
ATOM      1  C   UNL     1      -0.865  12.227  21.940  0.00  0.00    +0.000 A 
ATOM      2  C   UNL     1      -0.694  11.329  22.913  0.00  0.00    +0.000 A 
ATOM      3  C   UNL     1      -0.341   9.943  22.609  0.00  0.00    +0.000 A 
ATOM      4  O   UNL     1      -0.083   9.194  23.550  0.00  0.00    +0.000 OA
ATOM      5  N   UNL     1      -0.300   9.597  21.270  0.00  0.00    +0.000 N 
ATOM      6  C   UNL     1      -0.519  10.524  20.225  0.00  0.00    +0.000 A 
ATOM      7  C   UNL     1      -0.766  11.841  20.516  0.00  0.00    +0.000 A 
ATOM      8  C   UNL     1      -0.385   9.917  18.833  0.00  0.00    +0.000 C 
ATOM      9  C   UNL     1       1.088   9.679  18.461  0.00  0.00    +0.000 C 
ATOM     10  N   UNL     1       1.622   8.370  18.898  0.00  0.00    +0.000 NA
ATOM     11  C   UNL     1       1.564   8.190  20.369  0.00  0.00    +0.000 C 
ATOM     12  C   UNL     1       0.150   8.226  20.977  0.00  0.00    +0.000 C 
ENDROOT
BRANCH   7  13
ATOM     13  C   UNL     1      -0.839  12.901  19.403  0.00  0.00    +0.000 C 
ATOM     14  O   UNL     1      -1.487  12.752  18.366  0.00  0.00    +0.000 OA
ATOM     15  N   UNL     1      -0.086  14.033  19.579  0.00  0.00    +0.000 N 
ATOM     16  H   UNL     1       0.261  14.233  20.508  0.00  0.00    +0.000 HD
BRANCH  15  17
ATOM     17  C   UNL     1      -0.026  15.119  18.626  0.00  0.00    +0.000 C 
BRANCH  17  18
ATOM     18  C   UNL     1       1.289  15.804  18.752  0.00  0.00    +0.000 A 
ATOM     19  C   UNL     1       2.477  15.702  18.051  0.00  0.00    +0.000 A 
ATOM     20  C   UNL     1       3.365  16.649  18.619  0.00  0.00    +0.000 A 
ATOM     21  C   UNL     1       2.671  17.267  19.629  0.00  0.00    +0.000 A 
ATOM     22  O   UNL     1       1.411  16.760  19.725  0.00  0.00    +0.000 OA
ENDBRANCH  17  18
ENDBRANCH  15  17
ENDBRANCH   7  13
BRANCH   1  24
ATOM     23  C   UNL     1      -1.413  13.867  23.575  0.00  0.00    +0.000 C 
ATOM     24  O   UNL     1      -1.141  13.558  22.205  0.00  0.00    +0.000 OA
ENDBRANCH   1  24
BRANCH  10  25
ATOM     25  C   UNL     1       3.026   8.200  18.470  0.00  0.00    +0.000 C 
BRANCH  25  26
ATOM     26  C   UNL     1       3.359   6.850  17.872  0.00  0.00    +0.000 A 
ATOM     27  C   UNL     1       4.505   6.689  17.080  0.00  0.00    +0.000 A 
ATOM     28  C   UNL     1       4.873   5.428  16.613  0.00  0.00    +0.000 A 
ATOM     29  C   UNL     1       4.106   4.310  16.939  0.00  0.00    +0.000 A 
ATOM     30  C   UNL     1       2.943   4.447  17.710  0.00  0.00    +0.000 A 
ATOM     31  C   UNL     1       2.569   5.726  18.158  0.00  0.00    +0.000 A 
BRANCH  30  32
ATOM     32  C   UNL     1       2.115   3.245  18.090  0.00  0.00    +0.000 C 
ATOM     33  F   UNL     1       0.771   3.459  18.004  0.00  0.00    +0.000 F 
ATOM     34  F   UNL     1       2.367   2.168  17.293  0.00  0.00    +0.000 F 
ATOM     35  F   UNL     1       2.343   2.827  19.366  0.00  0.00    +0.000 F 
ENDBRANCH  30  32
ENDBRANCH  25  26
ENDBRANCH  10  25
TORSDOF 7
ENDMDL
MODEL 7
REMARK VINA RESULT:      -7.2      0.699      1.044
REMARK  Name = 
REMARK  8 active torsions:
REMARK  status: ('A' for Active; 'I' for Inactive)
REMARK    1  A    between atoms: C_1  and  O_2
REMARK    2  A    between atoms: O_2  and  C_3
REMARK    3  A    between atoms: C_9  and  C_10
REMARK    4  A    between atoms: N_12  and  C_13
REMARK    5  A    between atoms: C_13  and  C_14
REMARK    6  A    between atoms: N_21  and  C_22
REMARK    7  A    between atoms: C_22  and  C_23
REMARK    8  A    between atoms: C_27  and  C_28
REMARK                            x       y       z     vdW  Elec       q    Type
REMARK                         _______ _______ _______ _____ _____    ______ ____
ROOT
ATOM      1  C   UNL     1      -0.315  13.056  21.527  0.00  0.00    +0.000 A 
ATOM      2  C   UNL     1      -0.629  12.333  22.605  0.00  0.00    +0.000 A 
ATOM      3  C   UNL     1      -0.676  10.873  22.548  0.00  0.00    +0.000 A 
ATOM      4  O   UNL     1      -0.857  10.261  23.600  0.00  0.00    +0.000 OA
ATOM      5  N   UNL     1      -0.482  10.298  21.305  0.00  0.00    +0.000 N 
ATOM      6  C   UNL     1      -0.188  11.049  20.143  0.00  0.00    +0.000 A 
ATOM      7  C   UNL     1      -0.062  12.411  20.220  0.00  0.00    +0.000 A 
ATOM      8  C   UNL     1       0.021  10.192  18.900  0.00  0.00    +0.000 C 
ATOM      9  C   UNL     1       1.388   9.488  18.924  0.00  0.00    +0.000 C 
ATOM     10  N   UNL     1       1.387   8.180  19.618  0.00  0.00    +0.000 NA
ATOM     11  C   UNL     1       0.986   8.288  21.040  0.00  0.00    +0.000 C 
ATOM     12  C   UNL     1      -0.435   8.826  21.281  0.00  0.00    +0.000 C 
ENDROOT
BRANCH   7  13
ATOM     13  C   UNL     1       0.423  13.234  19.014  0.00  0.00    +0.000 C 
ATOM     14  O   UNL     1      -0.315  13.587  18.093  0.00  0.00    +0.000 OA
ATOM     15  N   UNL     1       1.762  13.524  18.962  0.00  0.00    +0.000 N 
ATOM     16  H   UNL     1       2.304  13.418  19.811  0.00  0.00    +0.000 HD
BRANCH  15  17
ATOM     17  C   UNL     1       2.386  14.272  17.894  0.00  0.00    +0.000 C 
BRANCH  17  18
ATOM     18  C   UNL     1       3.617  14.927  18.413  0.00  0.00    +0.000 A 
ATOM     19  C   UNL     1       3.852  15.794  19.465  0.00  0.00    +0.000 A 
ATOM     20  C   UNL     1       5.247  16.042  19.483  0.00  0.00    +0.000 A 
ATOM     21  C   UNL     1       5.777  15.317  18.444  0.00  0.00    +0.000 A 
ATOM     22  O   UNL     1       4.798  14.641  17.783  0.00  0.00    +0.000 OA
ENDBRANCH  17  18
ENDBRANCH  15  17
ENDBRANCH   7  13
BRANCH   1  24
ATOM     23  C   UNL     1      -0.625  15.046  22.794  0.00  0.00    +0.000 C 
ATOM     24  O   UNL     1      -0.205  14.436  21.570  0.00  0.00    +0.000 OA
ENDBRANCH   1  24
BRANCH  10  25
ATOM     25  C   UNL     1       2.723   7.550  19.563  0.00  0.00    +0.000 C 
BRANCH  25  26
ATOM     26  C   UNL     1       2.744   6.129  19.041  0.00  0.00    +0.000 A 
ATOM     27  C   UNL     1       3.373   5.832  17.823  0.00  0.00    +0.000 A 
ATOM     28  C   UNL     1       3.487   4.512  17.389  0.00  0.00    +0.000 A 
ATOM     29  C   UNL     1       2.983   3.472  18.169  0.00  0.00    +0.000 A 
ATOM     30  C   UNL     1       2.330   3.744  19.380  0.00  0.00    +0.000 A 
ATOM     31  C   UNL     1       2.202   5.080  19.799  0.00  0.00    +0.000 A 
BRANCH  30  32
ATOM     32  C   UNL     1       1.800   2.630  20.247  0.00  0.00    +0.000 C 
ATOM     33  F   UNL     1       0.609   2.921  20.841  0.00  0.00    +0.000 F 
ATOM     34  F   UNL     1       1.589   1.481  19.543  0.00  0.00    +0.000 F 
ATOM     35  F   UNL     1       2.649   2.298  21.258  0.00  0.00    +0.000 F 
ENDBRANCH  30  32
ENDBRANCH  25  26
ENDBRANCH  10  25
TORSDOF 7
ENDMDL
MODEL 8
REMARK VINA RESULT:      -7.2      3.707      6.263
REMARK  Name = 
REMARK  8 active torsions:
REMARK  status: ('A' for Active; 'I' for Inactive)
REMARK    1  A    between atoms: C_1  and  O_2
REMARK    2  A    between atoms: O_2  and  C_3
REMARK    3  A    between atoms: C_9  and  C_10
REMARK    4  A    between atoms: N_12  and  C_13
REMARK    5  A    between atoms: C_13  and  C_14
REMARK    6  A    between atoms: N_21  and  C_22
REMARK    7  A    between atoms: C_22  and  C_23
REMARK    8  A    between atoms: C_27  and  C_28
REMARK                            x       y       z     vdW  Elec       q    Type
REMARK                         _______ _______ _______ _____ _____    ______ ____
ROOT
ATOM      1  C   UNL     1      -3.539  12.122  19.165  0.00  0.00    +0.000 A 
ATOM      2  C   UNL     1      -3.383  11.464  18.014  0.00  0.00    +0.000 A 
ATOM      3  C   UNL     1      -2.125  10.792  17.691  0.00  0.00    +0.000 A 
ATOM      4  O   UNL     1      -2.083  10.107  16.671  0.00  0.00    +0.000 OA
ATOM      5  N   UNL     1      -1.086  10.966  18.589  0.00  0.00    +0.000 N 
ATOM      6  C   UNL     1      -1.219  11.694  19.794  0.00  0.00    +0.000 A 
ATOM      7  C   UNL     1      -2.426  12.249  20.131  0.00  0.00    +0.000 A 
ATOM      8  C   UNL     1       0.051  11.714  20.637  0.00  0.00    +0.000 C 
ATOM      9  C   UNL     1       0.280  10.369  21.346  0.00  0.00    +0.000 C 
ATOM     10  N   UNL     1       1.032   9.379  20.543  0.00  0.00    +0.000 NA
ATOM     11  C   UNL     1       0.347   9.032  19.275  0.00  0.00    +0.000 C 
ATOM     12  C   UNL     1       0.141  10.206  18.300  0.00  0.00    +0.000 C 
ENDROOT
BRANCH   7  13
ATOM     13  C   UNL     1      -2.645  12.898  21.509  0.00  0.00    +0.000 C 
ATOM     14  O   UNL     1      -2.159  13.981  21.834  0.00  0.00    +0.000 OA
ATOM     15  N   UNL     1      -3.377  12.180  22.419  0.00  0.00    +0.000 N 
ATOM     16  H   UNL     1      -3.938  11.411  22.076  0.00  0.00    +0.000 HD
BRANCH  15  17
ATOM     17  C   UNL     1      -3.664  12.633  23.762  0.00  0.00    +0.000 C 
BRANCH  17  18
ATOM     18  C   UNL     1      -5.079  13.090  23.829  0.00  0.00    +0.000 A 
ATOM     19  C   UNL     1      -5.669  14.339  23.789  0.00  0.00    +0.000 A 
ATOM     20  C   UNL     1      -7.069  14.129  23.858  0.00  0.00    +0.000 A 
ATOM     21  C   UNL     1      -7.248  12.770  23.940  0.00  0.00    +0.000 A 
ATOM     22  O   UNL     1      -6.048  12.128  23.930  0.00  0.00    +0.000 OA
ENDBRANCH  17  18
ENDBRANCH  15  17
ENDBRANCH   7  13
BRANCH   1  24
ATOM     23  C   UNL     1      -5.832  12.468  18.629  0.00  0.00    +0.000 C 
ATOM     24  O   UNL     1      -4.739  12.716  19.519  0.00  0.00    +0.000 OA
ENDBRANCH   1  24
BRANCH  10  25
ATOM     25  C   UNL     1       1.245   8.131  21.306  0.00  0.00    +0.000 C 
BRANCH  25  26
ATOM     26  C   UNL     1       1.796   6.971  20.504  0.00  0.00    +0.000 A 
ATOM     27  C   UNL     1       1.320   5.670  20.721  0.00  0.00    +0.000 A 
ATOM     28  C   UNL     1       1.746   4.615  19.915  0.00  0.00    +0.000 A 
ATOM     29  C   UNL     1       2.647   4.848  18.876  0.00  0.00    +0.000 A 
ATOM     30  C   UNL     1       3.156   6.136  18.652  0.00  0.00    +0.000 A 
ATOM     31  C   UNL     1       2.735   7.189  19.484  0.00  0.00    +0.000 A 
BRANCH  30  32
ATOM     32  C   UNL     1       4.113   6.409  17.519  0.00  0.00    +0.000 C 
ATOM     33  F   UNL     1       5.394   6.634  17.929  0.00  0.00    +0.000 F 
ATOM     34  F   UNL     1       4.186   5.370  16.640  0.00  0.00    +0.000 F 
ATOM     35  F   UNL     1       3.763   7.499  16.782  0.00  0.00    +0.000 F 
ENDBRANCH  30  32
ENDBRANCH  25  26
ENDBRANCH  10  25
TORSDOF 7
ENDMDL
MODEL 9
REMARK VINA RESULT:      -7.2      3.628      6.034
REMARK  Name = 
REMARK  8 active torsions:
REMARK  status: ('A' for Active; 'I' for Inactive)
REMARK    1  A    between atoms: C_1  and  O_2
REMARK    2  A    between atoms: O_2  and  C_3
REMARK    3  A    between atoms: C_9  and  C_10
REMARK    4  A    between atoms: N_12  and  C_13
REMARK    5  A    between atoms: C_13  and  C_14
REMARK    6  A    between atoms: N_21  and  C_22
REMARK    7  A    between atoms: C_22  and  C_23
REMARK    8  A    between atoms: C_27  and  C_28
REMARK                            x       y       z     vdW  Elec       q    Type
REMARK                         _______ _______ _______ _____ _____    ______ ____
ROOT
ATOM      1  C   UNL     1      -0.785  15.654  19.605  0.00  0.00    +0.000 A 
ATOM      2  C   UNL     1       0.280  16.057  18.908  0.00  0.00    +0.000 A 
ATOM      3  C   UNL     1       1.446  15.191  18.740  0.00  0.00    +0.000 A 
ATOM      4  O   UNL     1       2.345  15.574  17.993  0.00  0.00    +0.000 OA
ATOM      5  N   UNL     1       1.424  13.988  19.423  0.00  0.00    +0.000 N 
ATOM      6  C   UNL     1       0.322  13.560  20.199  0.00  0.00    +0.000 A 
ATOM      7  C   UNL     1      -0.802  14.340  20.283  0.00  0.00    +0.000 A 
ATOM      8  C   UNL     1       0.515  12.184  20.825  0.00  0.00    +0.000 C 
ATOM      9  C   UNL     1       0.357  11.063  19.783  0.00  0.00    +0.000 C 
ATOM     10  N   UNL     1       1.605  10.723  19.062  0.00  0.00    +0.000 NA
ATOM     11  C   UNL     1       2.161  11.871  18.309  0.00  0.00    +0.000 C 
ATOM     12  C   UNL     1       2.559  13.086  19.166  0.00  0.00    +0.000 C 
ENDROOT
BRANCH   7  13
ATOM     13  C   UNL     1      -2.076  13.825  20.977  0.00  0.00    +0.000 C 
ATOM     14  O   UNL     1      -2.218  13.796  22.200  0.00  0.00    +0.000 OA
ATOM     15  N   UNL     1      -3.063  13.328  20.165  0.00  0.00    +0.000 N 
ATOM     16  H   UNL     1      -3.024  13.552  19.179  0.00  0.00    +0.000 HD
BRANCH  15  17
ATOM     17  C   UNL     1      -4.314  12.791  20.651  0.00  0.00    +0.000 C 
BRANCH  17  18
ATOM     18  C   UNL     1      -5.093  12.256  19.502  0.00  0.00    +0.000 A 
ATOM     19  C   UNL     1      -6.411  11.862  19.357  0.00  0.00    +0.000 A 
ATOM     20  C   UNL     1      -6.573  11.478  18.003  0.00  0.00    +0.000 A 
ATOM     21  C   UNL     1      -5.350  11.656  17.405  0.00  0.00    +0.000 A 
ATOM     22  O   UNL     1      -4.441  12.122  18.306  0.00  0.00    +0.000 OA
ENDBRANCH  17  18
ENDBRANCH  15  17
ENDBRANCH   7  13
BRANCH   1  24
ATOM     23  C   UNL     1      -1.845  17.733  19.138  0.00  0.00    +0.000 C 
ATOM     24  O   UNL     1      -1.924  16.432  19.728  0.00  0.00    +0.000 OA
ENDBRANCH   1  24
BRANCH  10  25
ATOM     25  C   UNL     1       1.381   9.614  18.111  0.00  0.00    +0.000 C 
BRANCH  25  26
ATOM     26  C   UNL     1       2.244   8.390  18.334  0.00  0.00    +0.000 A 
ATOM     27  C   UNL     1       2.026   7.563  19.446  0.00  0.00    +0.000 A 
ATOM     28  C   UNL     1       2.747   6.380  19.601  0.00  0.00    +0.000 A 
ATOM     29  C   UNL     1       3.687   6.003  18.643  0.00  0.00    +0.000 A 
ATOM     30  C   UNL     1       3.939   6.823  17.533  0.00  0.00    +0.000 A 
ATOM     31  C   UNL     1       3.222   8.024  17.397  0.00  0.00    +0.000 A 
BRANCH  30  32
ATOM     32  C   UNL     1       4.936   6.417  16.476  0.00  0.00    +0.000 C 
ATOM     33  F   UNL     1       4.931   5.081  16.205  0.00  0.00    +0.000 F 
ATOM     34  F   UNL     1       4.708   7.035  15.283  0.00  0.00    +0.000 F 
ATOM     35  F   UNL     1       6.220   6.722  16.816  0.00  0.00    +0.000 F 
ENDBRANCH  30  32
ENDBRANCH  25  26
ENDBRANCH  10  25
TORSDOF 7
ENDMDL
