MODEL 1
REMARK VINA RESULT:      -8.1      0.000      0.000
REMARK  Name = 
REMARK  9 active torsions:
REMARK  status: ('A' for Active; 'I' for Inactive)
REMARK    1  A    between atoms: C_1  and  C_2
REMARK    2  A    between atoms: C_2  and  C_3
REMARK    3  A    between atoms: C_2  and  C_4
REMARK    4  A    between atoms: C_2  and  O_5
REMARK    5  A    between atoms: O_5  and  C_6
REMARK    6  A    between atoms: C_12  and  C_13
REMARK    7  A    between atoms: C_13  and  O_14
REMARK    8  A    between atoms: C_13  and  C_15
REMARK    9  A    between atoms: C_13  and  C_21
REMARK                            x       y       z     vdW  Elec       q    Type
REMARK                         _______ _______ _______ _____ _____    ______ ____
ROOT
ATOM      1  C   UNL     1       5.835   5.162  17.100  0.00  0.00    +0.000 C 
ENDROOT
BRANCH   1   8
ATOM      2  C   UNL     1       3.567   3.706  18.953  0.00  0.00    +0.000 C 
ATOM      3  O   UNL     1       3.745   2.854  18.081  0.00  0.00    +0.000 OA
ATOM      4  N   UNL     1       3.770   5.040  18.662  0.00  0.00    +0.000 N 
ATOM      5  C   UNL     1       3.213   6.147  19.390  0.00  0.00    +0.000 C 
ATOM      6  C   UNL     1       2.796   7.116  18.293  0.00  0.00    +0.000 C 
ATOM      7  C   UNL     1       3.779   6.880  17.141  0.00  0.00    +0.000 C 
ATOM      8  C   UNL     1       4.278   5.438  17.328  0.00  0.00    +0.000 C 
BRANCH   2   9
ATOM      9  O   UNL     1       3.164   3.446  20.233  0.00  0.00    +0.000 OA
BRANCH   9  11
ATOM     10  C   UNL     1       1.584   2.412  21.838  0.00  0.00    +0.000 C 
ATOM     11  C   UNL     1       1.791   2.960  20.418  0.00  0.00    +0.000 C 
ATOM     12  C   UNL     1       1.436   1.951  19.316  0.00  0.00    +0.000 C 
ATOM     13  C   UNL     1       0.822   4.152  20.269  0.00  0.00    +0.000 C 
ENDBRANCH   9  11
ENDBRANCH   2   9
ENDBRANCH   1   8
BRANCH   1  14
ATOM     14  C   UNL     1       6.104   4.819  15.614  0.00  0.00    +0.000 A 
ATOM     15  C   UNL     1       7.323   5.149  14.995  0.00  0.00    +0.000 A 
ATOM     16  C   UNL     1       7.565   4.825  13.653  0.00  0.00    +0.000 A 
ATOM     17  C   UNL     1       6.597   4.167  12.902  0.00  0.00    +0.000 A 
ATOM     18  C   UNL     1       5.380   3.835  13.487  0.00  0.00    +0.000 A 
ATOM     19  C   UNL     1       5.136   4.164  14.824  0.00  0.00    +0.000 A 
ENDBRANCH   1  14
BRANCH   1  20
ATOM     20  C   UNL     1       6.825   6.236  17.637  0.00  0.00    +0.000 A 
ATOM     21  C   UNL     1       6.868   7.510  17.047  0.00  0.00    +0.000 A 
ATOM     22  C   UNL     1       7.719   8.521  17.522  0.00  0.00    +0.000 A 
ATOM     23  C   UNL     1       8.549   8.275  18.612  0.00  0.00    +0.000 A 
ATOM     24  C   UNL     1       8.527   7.031  19.220  0.00  0.00    +0.000 A 
ATOM     25  C   UNL     1       7.679   6.033  18.735  0.00  0.00    +0.000 A 
ENDBRANCH   1  20
BRANCH   1  26
ATOM     26  O   UNL     1       6.194   3.955  17.824  0.00  0.00    +0.000 OA
ATOM     27  H   UNL     1       6.101   4.132  18.780  0.00  0.00    +0.000 HD
ENDBRANCH   1  26
TORSDOF 6
ENDMDL
MODEL 2
REMARK VINA RESULT:      -8.1      0.069      1.581
REMARK  Name = 
REMARK  9 active torsions:
REMARK  status: ('A' for Active; 'I' for Inactive)
REMARK    1  A    between atoms: C_1  and  C_2
REMARK    2  A    between atoms: C_2  and  C_3
REMARK    3  A    between atoms: C_2  and  C_4
REMARK    4  A    between atoms: C_2  and  O_5
REMARK    5  A    between atoms: O_5  and  C_6
REMARK    6  A    between atoms: C_12  and  C_13
REMARK    7  A    between atoms: C_13  and  O_14
REMARK    8  A    between atoms: C_13  and  C_15
REMARK    9  A    between atoms: C_13  and  C_21
REMARK                            x       y       z     vdW  Elec       q    Type
REMARK                         _______ _______ _______ _____ _____    ______ ____
ROOT
ATOM      1  C   UNL     1       5.800   5.208  17.116  0.00  0.00    +0.000 C 
ENDROOT
BRANCH   1   8
ATOM      2  C   UNL     1       3.539   3.726  18.954  0.00  0.00    +0.000 C 
ATOM      3  O   UNL     1       3.746   2.868  18.094  0.00  0.00    +0.000 OA
ATOM      4  N   UNL     1       3.718   5.060  18.651  0.00  0.00    +0.000 N 
ATOM      5  C   UNL     1       3.127   6.163  19.360  0.00  0.00    +0.000 C 
ATOM      6  C   UNL     1       2.705   7.111  18.246  0.00  0.00    +0.000 C 
ATOM      7  C   UNL     1       3.709   6.883  17.110  0.00  0.00    +0.000 C 
ATOM      8  C   UNL     1       4.235   5.455  17.320  0.00  0.00    +0.000 C 
BRANCH   2   9
ATOM      9  O   UNL     1       3.123   3.471  20.231  0.00  0.00    +0.000 OA
BRANCH   9  11
ATOM     10  C   UNL     1       1.380   1.911  19.413  0.00  0.00    +0.000 C 
ATOM     11  C   UNL     1       1.736   3.026  20.409  0.00  0.00    +0.000 C 
ATOM     12  C   UNL     1       0.785   4.229  20.345  0.00  0.00    +0.000 C 
ATOM     13  C   UNL     1       1.592   2.409  21.817  0.00  0.00    +0.000 C 
ENDBRANCH   9  11
ENDBRANCH   2   9
ENDBRANCH   1   8
BRANCH   1  14
ATOM     14  C   UNL     1       6.095   4.846  15.639  0.00  0.00    +0.000 A 
ATOM     15  C   UNL     1       5.151   4.165  14.849  0.00  0.00    +0.000 A 
ATOM     16  C   UNL     1       5.419   3.851  13.510  0.00  0.00    +0.000 A 
ATOM     17  C   UNL     1       6.632   4.208  12.933  0.00  0.00    +0.000 A 
ATOM     18  C   UNL     1       7.587   4.875  13.693  0.00  0.00    +0.000 A 
ATOM     19  C   UNL     1       7.321   5.183  15.031  0.00  0.00    +0.000 A 
ENDBRANCH   1  14
BRANCH   1  20
ATOM     20  C   UNL     1       6.761   6.313  17.646  0.00  0.00    +0.000 A 
ATOM     21  C   UNL     1       7.620   6.041  18.723  0.00  0.00    +0.000 A 
ATOM     22  C   UNL     1       8.528   6.995  19.209  0.00  0.00    +0.000 A 
ATOM     23  C   UNL     1       8.599   8.252  18.616  0.00  0.00    +0.000 A 
ATOM     24  C   UNL     1       7.770   8.550  17.548  0.00  0.00    +0.000 A 
ATOM     25  C   UNL     1       6.868   7.594  17.077  0.00  0.00    +0.000 A 
ENDBRANCH   1  20
BRANCH   1  26
ATOM     26  O   UNL     1       6.176   4.023  17.866  0.00  0.00    +0.000 OA
ATOM     27  H   UNL     1       5.703   3.257  17.487  0.00  0.00    +0.000 HD
ENDBRANCH   1  26
TORSDOF 6
ENDMDL
MODEL 3
REMARK VINA RESULT:      -7.7      0.905      1.067
REMARK  Name = 
REMARK  9 active torsions:
REMARK  status: ('A' for Active; 'I' for Inactive)
REMARK    1  A    between atoms: C_1  and  C_2
REMARK    2  A    between atoms: C_2  and  C_3
REMARK    3  A    between atoms: C_2  and  C_4
REMARK    4  A    between atoms: C_2  and  O_5
REMARK    5  A    between atoms: O_5  and  C_6
REMARK    6  A    between atoms: C_12  and  C_13
REMARK    7  A    between atoms: C_13  and  O_14
REMARK    8  A    between atoms: C_13  and  C_15
REMARK    9  A    between atoms: C_13  and  C_21
REMARK                            x       y       z     vdW  Elec       q    Type
REMARK                         _______ _______ _______ _____ _____    ______ ____
ROOT
ATOM      1  C   UNL     1       5.362   5.137  16.872  0.00  0.00    +0.000 C 
ENDROOT
BRANCH   1   8
ATOM      2  C   UNL     1       2.418   4.297  18.019  0.00  0.00    +0.000 C 
ATOM      3  O   UNL     1       2.529   3.528  17.063  0.00  0.00    +0.000 OA
ATOM      4  N   UNL     1       3.059   5.519  17.996  0.00  0.00    +0.000 N 
ATOM      5  C   UNL     1       2.700   6.664  18.788  0.00  0.00    +0.000 C 
ATOM      6  C   UNL     1       2.838   7.824  17.811  0.00  0.00    +0.000 C 
ATOM      7  C   UNL     1       3.940   7.407  16.831  0.00  0.00    +0.000 C 
ATOM      8  C   UNL     1       3.944   5.871  16.861  0.00  0.00    +0.000 C 
BRANCH   2   9
ATOM      9  O   UNL     1       1.683   4.048  19.144  0.00  0.00    +0.000 OA
BRANCH   9  11
ATOM     10  C   UNL     1       3.541   2.798  20.205  0.00  0.00    +0.000 C 
ATOM     11  C   UNL     1       2.032   2.854  19.923  0.00  0.00    +0.000 C 
ATOM     12  C   UNL     1       1.495   1.595  19.227  0.00  0.00    +0.000 C 
ATOM     13  C   UNL     1       1.338   2.941  21.299  0.00  0.00    +0.000 C 
ENDBRANCH   9  11
ENDBRANCH   2   9
ENDBRANCH   1   8
BRANCH   1  14
ATOM     14  C   UNL     1       5.790   4.780  15.426  0.00  0.00    +0.000 A 
ATOM     15  C   UNL     1       7.077   5.085  14.946  0.00  0.00    +0.000 A 
ATOM     16  C   UNL     1       7.462   4.748  13.641  0.00  0.00    +0.000 A 
ATOM     17  C   UNL     1       6.572   4.102  12.790  0.00  0.00    +0.000 A 
ATOM     18  C   UNL     1       5.291   3.795  13.237  0.00  0.00    +0.000 A 
ATOM     19  C   UNL     1       4.906   4.136  14.537  0.00  0.00    +0.000 A 
ENDBRANCH   1  14
BRANCH   1  20
ATOM     20  C   UNL     1       6.509   5.836  17.660  0.00  0.00    +0.000 A 
ATOM     21  C   UNL     1       6.941   7.119  17.285  0.00  0.00    +0.000 A 
ATOM     22  C   UNL     1       7.945   7.801  17.990  0.00  0.00    +0.000 A 
ATOM     23  C   UNL     1       8.539   7.208  19.100  0.00  0.00    +0.000 A 
ATOM     24  C   UNL     1       8.133   5.947  19.500  0.00  0.00    +0.000 A 
ATOM     25  C   UNL     1       7.135   5.276  18.788  0.00  0.00    +0.000 A 
ENDBRANCH   1  20
BRANCH   1  26
ATOM     26  O   UNL     1       5.207   3.854  17.534  0.00  0.00    +0.000 OA
ATOM     27  H   UNL     1       5.922   3.263  17.230  0.00  0.00    +0.000 HD
ENDBRANCH   1  26
TORSDOF 6
ENDMDL
MODEL 4
REMARK VINA RESULT:      -7.6      0.891      1.560
REMARK  Name = 
REMARK  9 active torsions:
REMARK  status: ('A' for Active; 'I' for Inactive)
REMARK    1  A    between atoms: C_1  and  C_2
REMARK    2  A    between atoms: C_2  and  C_3
REMARK    3  A    between atoms: C_2  and  C_4
REMARK    4  A    between atoms: C_2  and  O_5
REMARK    5  A    between atoms: O_5  and  C_6
REMARK    6  A    between atoms: C_12  and  C_13
REMARK    7  A    between atoms: C_13  and  O_14
REMARK    8  A    between atoms: C_13  and  C_15
REMARK    9  A    between atoms: C_13  and  C_21
REMARK                            x       y       z     vdW  Elec       q    Type
REMARK                         _______ _______ _______ _____ _____    ______ ____
ROOT
ATOM      1  C   UNL     1       5.366   5.152  16.907  0.00  0.00    +0.000 C 
ENDROOT
BRANCH   1   8
ATOM      2  C   UNL     1       2.439   4.283  18.078  0.00  0.00    +0.000 C 
ATOM      3  O   UNL     1       2.554   3.509  17.126  0.00  0.00    +0.000 OA
ATOM      4  N   UNL     1       3.064   5.512  18.043  0.00  0.00    +0.000 N 
ATOM      5  C   UNL     1       2.696   6.658  18.830  0.00  0.00    +0.000 C 
ATOM      6  C   UNL     1       2.813   7.813  17.845  0.00  0.00    +0.000 C 
ATOM      7  C   UNL     1       3.914   7.404  16.860  0.00  0.00    +0.000 C 
ATOM      8  C   UNL     1       3.938   5.868  16.900  0.00  0.00    +0.000 C 
BRANCH   2   9
ATOM      9  O   UNL     1       1.713   4.032  19.208  0.00  0.00    +0.000 OA
BRANCH   9  11
ATOM     10  C   UNL     1       1.757   1.555  19.129  0.00  0.00    +0.000 C 
ATOM     11  C   UNL     1       2.043   2.815  19.961  0.00  0.00    +0.000 C 
ATOM     12  C   UNL     1       1.326   2.825  21.318  0.00  0.00    +0.000 C 
ATOM     13  C   UNL     1       3.559   2.809  20.249  0.00  0.00    +0.000 C 
ENDBRANCH   9  11
ENDBRANCH   2   9
ENDBRANCH   1   8
BRANCH   1  14
ATOM     14  C   UNL     1       5.776   4.765  15.465  0.00  0.00    +0.000 A 
ATOM     15  C   UNL     1       4.883   4.104  14.601  0.00  0.00    +0.000 A 
ATOM     16  C   UNL     1       5.255   3.768  13.293  0.00  0.00    +0.000 A 
ATOM     17  C   UNL     1       6.525   4.082  12.820  0.00  0.00    +0.000 A 
ATOM     18  C   UNL     1       7.430   4.728  13.655  0.00  0.00    +0.000 A 
ATOM     19  C   UNL     1       7.060   5.058  14.962  0.00  0.00    +0.000 A 
ENDBRANCH   1  14
BRANCH   1  20
ATOM     20  C   UNL     1       6.515   5.883  17.661  0.00  0.00    +0.000 A 
ATOM     21  C   UNL     1       6.911   7.170  17.261  0.00  0.00    +0.000 A 
ATOM     22  C   UNL     1       7.916   7.881  17.935  0.00  0.00    +0.000 A 
ATOM     23  C   UNL     1       8.548   7.315  19.038  0.00  0.00    +0.000 A 
ATOM     24  C   UNL     1       8.177   6.050  19.462  0.00  0.00    +0.000 A 
ATOM     25  C   UNL     1       7.178   5.351  18.780  0.00  0.00    +0.000 A 
ENDBRANCH   1  20
BRANCH   1  26
ATOM     26  O   UNL     1       5.236   3.884  17.603  0.00  0.00    +0.000 OA
ATOM     27  H   UNL     1       4.308   3.784  17.889  0.00  0.00    +0.000 HD
ENDBRANCH   1  26
TORSDOF 6
ENDMDL
MODEL 5
REMARK VINA RESULT:      -7.3      1.006      1.768
REMARK  Name = 
REMARK  9 active torsions:
REMARK  status: ('A' for Active; 'I' for Inactive)
REMARK    1  A    between atoms: C_1  and  C_2
REMARK    2  A    between atoms: C_2  and  C_3
REMARK    3  A    between atoms: C_2  and  C_4
REMARK    4  A    between atoms: C_2  and  O_5
REMARK    5  A    between atoms: O_5  and  C_6
REMARK    6  A    between atoms: C_12  and  C_13
REMARK    7  A    between atoms: C_13  and  O_14
REMARK    8  A    between atoms: C_13  and  C_15
REMARK    9  A    between atoms: C_13  and  C_21
REMARK                            x       y       z     vdW  Elec       q    Type
REMARK                         _______ _______ _______ _____ _____    ______ ____
ROOT
ATOM      1  C   UNL     1       5.272   5.117  16.894  0.00  0.00    +0.000 C 
ENDROOT
BRANCH   1   8
ATOM      2  C   UNL     1       2.310   4.250  17.973  0.00  0.00    +0.000 C 
ATOM      3  O   UNL     1       2.454   3.476  17.025  0.00  0.00    +0.000 OA
ATOM      4  N   UNL     1       2.937   5.478  17.959  0.00  0.00    +0.000 N 
ATOM      5  C   UNL     1       2.545   6.624  18.734  0.00  0.00    +0.000 C 
ATOM      6  C   UNL     1       2.694   7.780  17.753  0.00  0.00    +0.000 C 
ATOM      7  C   UNL     1       3.824   7.370  16.803  0.00  0.00    +0.000 C 
ATOM      8  C   UNL     1       3.846   5.834  16.843  0.00  0.00    +0.000 C 
BRANCH   2   9
ATOM      9  O   UNL     1       1.549   3.998  19.081  0.00  0.00    +0.000 OA
BRANCH   9  11
ATOM     10  C   UNL     1       2.585   4.483  21.279  0.00  0.00    +0.000 C 
ATOM     11  C   UNL     1       2.228   3.408  20.241  0.00  0.00    +0.000 C 
ATOM     12  C   UNL     1       3.435   2.580  19.780  0.00  0.00    +0.000 C 
ATOM     13  C   UNL     1       1.253   2.437  20.941  0.00  0.00    +0.000 C 
ENDBRANCH   9  11
ENDBRANCH   2   9
ENDBRANCH   1   8
BRANCH   1  14
ATOM     14  C   UNL     1       5.727   4.732  15.465  0.00  0.00    +0.000 A 
ATOM     15  C   UNL     1       4.861   4.075  14.572  0.00  0.00    +0.000 A 
ATOM     16  C   UNL     1       5.275   3.741  13.275  0.00  0.00    +0.000 A 
ATOM     17  C   UNL     1       6.559   4.053  12.844  0.00  0.00    +0.000 A 
ATOM     18  C   UNL     1       7.439   4.696  13.709  0.00  0.00    +0.000 A 
ATOM     19  C   UNL     1       7.027   5.025  15.004  0.00  0.00    +0.000 A 
ENDBRANCH   1  14
BRANCH   1  20
ATOM     20  C   UNL     1       6.397   5.846  17.685  0.00  0.00    +0.000 A 
ATOM     21  C   UNL     1       6.982   5.231  18.805  0.00  0.00    +0.000 A 
ATOM     22  C   UNL     1       8.024   5.836  19.525  0.00  0.00    +0.000 A 
ATOM     23  C   UNL     1       8.511   7.079  19.132  0.00  0.00    +0.000 A 
ATOM     24  C   UNL     1       7.960   7.710  18.029  0.00  0.00    +0.000 A 
ATOM     25  C   UNL     1       6.920   7.100  17.323  0.00  0.00    +0.000 A 
ENDBRANCH   1  20
BRANCH   1  26
ATOM     26  O   UNL     1       5.120   3.848  17.584  0.00  0.00    +0.000 OA
ATOM     27  H   UNL     1       5.289   3.993  18.535  0.00  0.00    +0.000 HD
ENDBRANCH   1  26
TORSDOF 6
ENDMDL
MODEL 6
REMARK VINA RESULT:      -7.1      7.139     10.210
REMARK  Name = 
REMARK  9 active torsions:
REMARK  status: ('A' for Active; 'I' for Inactive)
REMARK    1  A    between atoms: C_1  and  C_2
REMARK    2  A    between atoms: C_2  and  C_3
REMARK    3  A    between atoms: C_2  and  C_4
REMARK    4  A    between atoms: C_2  and  O_5
REMARK    5  A    between atoms: O_5  and  C_6
REMARK    6  A    between atoms: C_12  and  C_13
REMARK    7  A    between atoms: C_13  and  O_14
REMARK    8  A    between atoms: C_13  and  C_15
REMARK    9  A    between atoms: C_13  and  C_21
REMARK                            x       y       z     vdW  Elec       q    Type
REMARK                         _______ _______ _______ _____ _____    ______ ____
ROOT
ATOM      1  C   UNL     1       0.252  11.111  19.300  0.00  0.00    +0.000 C 
ENDROOT
BRANCH   1   8
ATOM      2  C   UNL     1       1.518  13.831  20.601  0.00  0.00    +0.000 C 
ATOM      3  O   UNL     1       2.537  13.252  20.221  0.00  0.00    +0.000 OA
ATOM      4  N   UNL     1       0.404  13.099  20.956  0.00  0.00    +0.000 N 
ATOM      5  C   UNL     1      -0.666  13.563  21.798  0.00  0.00    +0.000 C 
ATOM      6  C   UNL     1      -0.964  12.360  22.682  0.00  0.00    +0.000 C 
ATOM      7  C   UNL     1      -0.624  11.130  21.832  0.00  0.00    +0.000 C 
ATOM      8  C   UNL     1       0.406  11.625  20.805  0.00  0.00    +0.000 C 
BRANCH   2   9
ATOM      9  O   UNL     1       1.383  15.186  20.715  0.00  0.00    +0.000 OA
BRANCH   9  11
ATOM     10  C   UNL     1      -0.102  15.468  18.752  0.00  0.00    +0.000 C 
ATOM     11  C   UNL     1       1.165  15.946  19.478  0.00  0.00    +0.000 C 
ATOM     12  C   UNL     1       2.425  15.900  18.603  0.00  0.00    +0.000 C 
ATOM     13  C   UNL     1       0.921  17.426  19.844  0.00  0.00    +0.000 C 
ENDBRANCH   9  11
ENDBRANCH   2   9
ENDBRANCH   1   8
BRANCH   1  14
ATOM     14  C   UNL     1       1.058   9.804  19.098  0.00  0.00    +0.000 A 
ATOM     15  C   UNL     1       1.716   9.530  17.885  0.00  0.00    +0.000 A 
ATOM     16  C   UNL     1       2.455   8.351  17.712  0.00  0.00    +0.000 A 
ATOM     17  C   UNL     1       2.551   7.423  18.743  0.00  0.00    +0.000 A 
ATOM     18  C   UNL     1       1.904   7.666  19.950  0.00  0.00    +0.000 A 
ATOM     19  C   UNL     1       1.163   8.839  20.120  0.00  0.00    +0.000 A 
ENDBRANCH   1  14
BRANCH   1  20
ATOM     20  C   UNL     1      -1.197  10.992  18.743  0.00  0.00    +0.000 A 
ATOM     21  C   UNL     1      -1.559   9.886  17.956  0.00  0.00    +0.000 A 
ATOM     22  C   UNL     1      -2.863   9.720  17.464  0.00  0.00    +0.000 A 
ATOM     23  C   UNL     1      -3.843  10.663  17.758  0.00  0.00    +0.000 A 
ATOM     24  C   UNL     1      -3.520  11.762  18.536  0.00  0.00    +0.000 A 
ATOM     25  C   UNL     1      -2.218  11.919  19.016  0.00  0.00    +0.000 A 
ENDBRANCH   1  20
BRANCH   1  26
ATOM     26  O   UNL     1       0.891  12.075  18.422  0.00  0.00    +0.000 OA
ATOM     27  H   UNL     1       1.808  11.781  18.260  0.00  0.00    +0.000 HD
ENDBRANCH   1  26
TORSDOF 6
ENDMDL
MODEL 7
REMARK VINA RESULT:      -7.1      1.733      5.937
REMARK  Name = 
REMARK  9 active torsions:
REMARK  status: ('A' for Active; 'I' for Inactive)
REMARK    1  A    between atoms: C_1  and  C_2
REMARK    2  A    between atoms: C_2  and  C_3
REMARK    3  A    between atoms: C_2  and  C_4
REMARK    4  A    between atoms: C_2  and  O_5
REMARK    5  A    between atoms: O_5  and  C_6
REMARK    6  A    between atoms: C_12  and  C_13
REMARK    7  A    between atoms: C_13  and  O_14
REMARK    8  A    between atoms: C_13  and  C_15
REMARK    9  A    between atoms: C_13  and  C_21
REMARK                            x       y       z     vdW  Elec       q    Type
REMARK                         _______ _______ _______ _____ _____    ______ ____
ROOT
ATOM      1  C   UNL     1       3.875   4.928  18.001  0.00  0.00    +0.000 C 
ENDROOT
BRANCH   1   8
ATOM      2  C   UNL     1       6.468   4.032  16.222  0.00  0.00    +0.000 C 
ATOM      3  O   UNL     1       5.833   2.976  16.267  0.00  0.00    +0.000 OA
ATOM      4  N   UNL     1       6.355   4.945  17.250  0.00  0.00    +0.000 N 
ATOM      5  C   UNL     1       7.310   5.973  17.561  0.00  0.00    +0.000 C 
ATOM      6  C   UNL     1       7.379   5.942  19.082  0.00  0.00    +0.000 C 
ATOM      7  C   UNL     1       5.991   5.487  19.547  0.00  0.00    +0.000 C 
ATOM      8  C   UNL     1       5.412   4.693  18.366  0.00  0.00    +0.000 C 
BRANCH   2   9
ATOM      9  O   UNL     1       7.314   4.395  15.212  0.00  0.00    +0.000 OA
BRANCH   9  11
ATOM     10  C   UNL     1       5.619   5.880  14.182  0.00  0.00    +0.000 C 
ATOM     11  C   UNL     1       6.705   4.820  13.946  0.00  0.00    +0.000 C 
ATOM     12  C   UNL     1       6.204   3.596  13.167  0.00  0.00    +0.000 C 
ATOM     13  C   UNL     1       7.789   5.496  13.080  0.00  0.00    +0.000 C 
ENDBRANCH   9  11
ENDBRANCH   2   9
ENDBRANCH   1   8
BRANCH   1  14
ATOM     14  C   UNL     1       3.004   3.802  18.612  0.00  0.00    +0.000 A 
ATOM     15  C   UNL     1       3.445   3.051  19.717  0.00  0.00    +0.000 A 
ATOM     16  C   UNL     1       2.647   2.043  20.273  0.00  0.00    +0.000 A 
ATOM     17  C   UNL     1       1.395   1.761  19.738  0.00  0.00    +0.000 A 
ATOM     18  C   UNL     1       0.937   2.483  18.641  0.00  0.00    +0.000 A 
ATOM     19  C   UNL     1       1.735   3.486  18.083  0.00  0.00    +0.000 A 
ENDBRANCH   1  14
BRANCH   1  20
ATOM     20  C   UNL     1       3.290   6.340  18.298  0.00  0.00    +0.000 A 
ATOM     21  C   UNL     1       3.467   7.383  17.373  0.00  0.00    +0.000 A 
ATOM     22  C   UNL     1       2.926   8.661  17.583  0.00  0.00    +0.000 A 
ATOM     23  C   UNL     1       2.183   8.922  18.730  0.00  0.00    +0.000 A 
ATOM     24  C   UNL     1       1.985   7.914  19.659  0.00  0.00    +0.000 A 
ATOM     25  C   UNL     1       2.533   6.648  19.442  0.00  0.00    +0.000 A 
ENDBRANCH   1  20
BRANCH   1  26
ATOM     26  O   UNL     1       3.718   4.774  16.566  0.00  0.00    +0.000 OA
ATOM     27  H   UNL     1       3.329   5.595  16.210  0.00  0.00    +0.000 HD
ENDBRANCH   1  26
TORSDOF 6
ENDMDL
MODEL 8
REMARK VINA RESULT:      -7.1      1.700      6.090
REMARK  Name = 
REMARK  9 active torsions:
REMARK  status: ('A' for Active; 'I' for Inactive)
REMARK    1  A    between atoms: C_1  and  C_2
REMARK    2  A    between atoms: C_2  and  C_3
REMARK    3  A    between atoms: C_2  and  C_4
REMARK    4  A    between atoms: C_2  and  O_5
REMARK    5  A    between atoms: O_5  and  C_6
REMARK    6  A    between atoms: C_12  and  C_13
REMARK    7  A    between atoms: C_13  and  O_14
REMARK    8  A    between atoms: C_13  and  C_15
REMARK    9  A    between atoms: C_13  and  C_21
REMARK                            x       y       z     vdW  Elec       q    Type
REMARK                         _______ _______ _______ _____ _____    ______ ____
ROOT
ATOM      1  C   UNL     1       3.847   4.833  17.991  0.00  0.00    +0.000 C 
ENDROOT
BRANCH   1   8
ATOM      2  C   UNL     1       6.468   3.994  16.227  0.00  0.00    +0.000 C 
ATOM      3  O   UNL     1       5.834   2.937  16.228  0.00  0.00    +0.000 OA
ATOM      4  N   UNL     1       6.339   4.874  17.281  0.00  0.00    +0.000 N 
ATOM      5  C   UNL     1       7.288   5.893  17.638  0.00  0.00    +0.000 C 
ATOM      6  C   UNL     1       7.332   5.814  19.159  0.00  0.00    +0.000 C 
ATOM      7  C   UNL     1       5.937   5.345  19.587  0.00  0.00    +0.000 C 
ATOM      8  C   UNL     1       5.378   4.587  18.372  0.00  0.00    +0.000 C 
BRANCH   2   9
ATOM      9  O   UNL     1       7.330   4.389  15.242  0.00  0.00    +0.000 OA
BRANCH   9  11
ATOM     10  C   UNL     1       7.811   5.449  13.055  0.00  0.00    +0.000 C 
ATOM     11  C   UNL     1       6.741   4.844  13.978  0.00  0.00    +0.000 C 
ATOM     12  C   UNL     1       5.568   5.794  14.255  0.00  0.00    +0.000 C 
ATOM     13  C   UNL     1       6.167   3.621  13.231  0.00  0.00    +0.000 C 
ENDBRANCH   9  11
ENDBRANCH   2   9
ENDBRANCH   1   8
BRANCH   1  14
ATOM     14  C   UNL     1       2.941   3.827  18.744  0.00  0.00    +0.000 A 
ATOM     15  C   UNL     1       1.838   3.221  18.115  0.00  0.00    +0.000 A 
ATOM     16  C   UNL     1       1.030   2.301  18.798  0.00  0.00    +0.000 A 
ATOM     17  C   UNL     1       1.305   1.969  20.120  0.00  0.00    +0.000 A 
ATOM     18  C   UNL     1       2.385   2.559  20.768  0.00  0.00    +0.000 A 
ATOM     19  C   UNL     1       3.188   3.480  20.089  0.00  0.00    +0.000 A 
ENDBRANCH   1  14
BRANCH   1  20
ATOM     20  C   UNL     1       3.318   6.292  18.111  0.00  0.00    +0.000 A 
ATOM     21  C   UNL     1       2.458   6.644  19.164  0.00  0.00    +0.000 A 
ATOM     22  C   UNL     1       1.987   7.956  19.332  0.00  0.00    +0.000 A 
ATOM     23  C   UNL     1       2.376   8.953  18.442  0.00  0.00    +0.000 A 
ATOM     24  C   UNL     1       3.227   8.641  17.397  0.00  0.00    +0.000 A 
ATOM     25  C   UNL     1       3.686   7.331  17.238  0.00  0.00    +0.000 A 
ENDBRANCH   1  20
BRANCH   1  26
ATOM     26  O   UNL     1       3.669   4.505  16.588  0.00  0.00    +0.000 OA
ATOM     27  H   UNL     1       4.387   3.901  16.320  0.00  0.00    +0.000 HD
ENDBRANCH   1  26
TORSDOF 6
ENDMDL
MODEL 9
REMARK VINA RESULT:      -7.1      7.088     10.173
REMARK  Name = 
REMARK  9 active torsions:
REMARK  status: ('A' for Active; 'I' for Inactive)
REMARK    1  A    between atoms: C_1  and  C_2
REMARK    2  A    between atoms: C_2  and  C_3
REMARK    3  A    between atoms: C_2  and  C_4
REMARK    4  A    between atoms: C_2  and  O_5
REMARK    5  A    between atoms: O_5  and  C_6
REMARK    6  A    between atoms: C_12  and  C_13
REMARK    7  A    between atoms: C_13  and  O_14
REMARK    8  A    between atoms: C_13  and  C_15
REMARK    9  A    between atoms: C_13  and  C_21
REMARK                            x       y       z     vdW  Elec       q    Type
REMARK                         _______ _______ _______ _____ _____    ______ ____
ROOT
ATOM      1  C   UNL     1       0.172  11.027  19.328  0.00  0.00    +0.000 C 
ENDROOT
BRANCH   1   8
ATOM      2  C   UNL     1       1.495  13.722  20.623  0.00  0.00    +0.000 C 
ATOM      3  O   UNL     1       2.502  13.119  20.248  0.00  0.00    +0.000 OA
ATOM      4  N   UNL     1       0.364  13.016  20.978  0.00  0.00    +0.000 N 
ATOM      5  C   UNL     1      -0.697  13.506  21.816  0.00  0.00    +0.000 C 
ATOM      6  C   UNL     1      -1.024  12.313  22.703  0.00  0.00    +0.000 C 
ATOM      7  C   UNL     1      -0.710  11.073  21.858  0.00  0.00    +0.000 C 
ATOM      8  C   UNL     1       0.334  11.542  20.831  0.00  0.00    +0.000 C 
BRANCH   2   9
ATOM      9  O   UNL     1       1.390  15.081  20.733  0.00  0.00    +0.000 OA
BRANCH   9  11
ATOM     10  C   UNL     1       1.538  17.337  19.719  0.00  0.00    +0.000 C 
ATOM     11  C   UNL     1       1.248  15.846  19.489  0.00  0.00    +0.000 C 
ATOM     12  C   UNL     1      -0.128  15.581  18.861  0.00  0.00    +0.000 C 
ATOM     13  C   UNL     1       2.308  15.351  18.481  0.00  0.00    +0.000 C 
ENDBRANCH   9  11
ENDBRANCH   2   9
ENDBRANCH   1   8
BRANCH   1  14
ATOM     14  C   UNL     1       1.013   9.745  19.110  0.00  0.00    +0.000 A 
ATOM     15  C   UNL     1       1.653   9.489  17.883  0.00  0.00    +0.000 A 
ATOM     16  C   UNL     1       2.423   8.333  17.696  0.00  0.00    +0.000 A 
ATOM     17  C   UNL     1       2.569   7.409  18.726  0.00  0.00    +0.000 A 
ATOM     18  C   UNL     1       1.940   7.634  19.946  0.00  0.00    +0.000 A 
ATOM     19  C   UNL     1       1.168   8.785  20.131  0.00  0.00    +0.000 A 
ENDBRANCH   1  14
BRANCH   1  20
ATOM     20  C   UNL     1      -1.281  10.867  18.793  0.00  0.00    +0.000 A 
ATOM     21  C   UNL     1      -2.218  11.896  18.982  0.00  0.00    +0.000 A 
ATOM     22  C   UNL     1      -3.528  11.810  18.484  0.00  0.00    +0.000 A 
ATOM     23  C   UNL     1      -3.928  10.682  17.774  0.00  0.00    +0.000 A 
ATOM     24  C   UNL     1      -3.028   9.652  17.564  0.00  0.00    +0.000 A 
ATOM     25  C   UNL     1      -1.728   9.748  18.068  0.00  0.00    +0.000 A 
ENDBRANCH   1  20
BRANCH   1  26
ATOM     26  O   UNL     1       0.769  12.011  18.443  0.00  0.00    +0.000 OA
ATOM     27  H   UNL     1       0.228  12.823  18.477  0.00  0.00    +0.000 HD
ENDBRANCH   1  26
TORSDOF 6
ENDMDL
