MODEL 1
REMARK VINA RESULT:      -8.2      0.000      0.000
REMARK  Name = 
REMARK  12 active torsions:
REMARK  status: ('A' for Active; 'I' for Inactive)
REMARK    1  A    between atoms: C_2  and  C_3
REMARK    2  A    between atoms: C_3  and  C_4
REMARK    3  A    between atoms: C_4  and  N_5
REMARK    4  A    between atoms: N_5  and  C_6
REMARK    5  A    between atoms: C_6  and  C_7
REMARK    6  A    between atoms: C_10  and  C_11
REMARK    7  A    between atoms: N_20  and  C_21
REMARK    8  A    between atoms: C_21  and  C_22
REMARK    9  A    between atoms: C_22  and  C_23
REMARK   10  A    between atoms: N_25  and  C_26
REMARK   11  A    between atoms: C_30  and  C_31
REMARK   12  A    between atoms: C_31  and  O_33
REMARK                            x       y       z     vdW  Elec       q    Type
REMARK                         _______ _______ _______ _____ _____    ______ ____
ROOT
ATOM      1  O   UNL     1       1.884   4.954  17.719  0.00  0.00    +0.000 OA
ATOM      2  C   UNL     1       1.991   4.933  18.941  0.00  0.00    +0.000 C 
ATOM      3  N   UNL     1       1.914   3.773  19.675  0.00  0.00    +0.000 N 
ATOM      4  H   UNL     1       2.195   3.782  20.651  0.00  0.00    +0.000 HD
ENDROOT
BRANCH   2   5
ATOM      5  C   UNL     1       2.193   6.191  19.763  0.00  0.00    +0.000 C 
BRANCH   5   6
ATOM      6  C   UNL     1       2.336   7.421  18.870  0.00  0.00    +0.000 C 
BRANCH   6   7
ATOM      7  N   UNL     1       1.732   8.601  19.499  0.00  0.00    +0.000 NA
ATOM      8  H   UNL     1       0.992   8.978  18.908  0.00  0.00    +0.000 HD
BRANCH   7   9
ATOM      9  C   UNL     1       1.165   8.256  20.804  0.00  0.00    +0.000 C 
BRANCH   9  10
ATOM     10  C   UNL     1       0.401   9.412  21.400  0.00  0.00    +0.000 A 
ATOM     11  C   UNL     1       0.059   9.412  22.752  0.00  0.00    +0.000 A 
ATOM     12  C   UNL     1      -0.712  10.448  23.288  0.00  0.00    +0.000 A 
ATOM     13  C   UNL     1      -1.157  11.547  22.517  0.00  0.00    +0.000 A 
ATOM     14  C   UNL     1      -0.759  11.553  21.161  0.00  0.00    +0.000 A 
ATOM     15 CL   UNL     1      -1.095  12.856  20.067  0.00  0.00    +0.000 Cl
ATOM     16  C   UNL     1      -0.012  10.492  20.614  0.00  0.00    +0.000 A 
BRANCH  13  17
ATOM     17  C   UNL     1      -2.025  12.566  23.178  0.00  0.00    +0.000 A 
ATOM     18  C   UNL     1      -1.502  13.818  23.566  0.00  0.00    +0.000 A 
ATOM     19  C   UNL     1      -2.254  14.739  24.305  0.00  0.00    +0.000 A 
ATOM     20  C   UNL     1      -3.573  14.454  24.634  0.00  0.00    +0.000 A 
ATOM     21  C   UNL     1      -4.133  13.247  24.233  0.00  0.00    +0.000 A 
ATOM     22  C   UNL     1      -3.361  12.309  23.535  0.00  0.00    +0.000 A 
ENDBRANCH  13  17
ENDBRANCH   9  10
ENDBRANCH   7   9
ENDBRANCH   6   7
ENDBRANCH   5   6
ENDBRANCH   2   5
BRANCH   3  23
ATOM     23  C   UNL     1       1.807   2.454  19.071  0.00  0.00    +0.000 C 
BRANCH  23  24
ATOM     24  C   UNL     1       3.143   1.702  19.022  0.00  0.00    +0.000 C 
BRANCH  24  25
ATOM     25  C   UNL     1       4.262   2.639  18.607  0.00  0.00    +0.000 C 
ATOM     26  O   UNL     1       5.014   3.123  19.452  0.00  0.00    +0.000 OA
ATOM     27  N   UNL     1       4.315   2.912  17.249  0.00  0.00    +0.000 N 
ATOM     28  H   UNL     1       3.532   2.614  16.675  0.00  0.00    +0.000 HD
BRANCH  27  29
ATOM     29  C   UNL     1       5.278   3.761  16.643  0.00  0.00    +0.000 A 
ATOM     30  C   UNL     1       5.703   3.582  15.321  0.00  0.00    +0.000 A 
ATOM     31  C   UNL     1       6.690   4.390  14.758  0.00  0.00    +0.000 A 
ATOM     32  C   UNL     1       7.265   5.406  15.510  0.00  0.00    +0.000 A 
ATOM     33  C   UNL     1       6.849   5.609  16.831  0.00  0.00    +0.000 A 
ATOM     34  C   UNL     1       5.834   4.807  17.387  0.00  0.00    +0.000 A 
BRANCH  33  35
ATOM     35  C   UNL     1       7.444   6.685  17.664  0.00  0.00    +0.000 C 
ATOM     36  O   UNL     1       7.943   6.471  18.755  0.00  0.00    +0.000 OA
BRANCH  35  37
ATOM     37  O   UNL     1       7.430   7.905  17.084  0.00  0.00    +0.000 OA
ATOM     38  H   UNL     1       7.698   8.647  17.655  0.00  0.00    +0.000 HD
ENDBRANCH  35  37
ENDBRANCH  33  35
ENDBRANCH  27  29
ENDBRANCH  24  25
ENDBRANCH  23  24
ENDBRANCH   3  23
TORSDOF 12
ENDMDL
MODEL 2
REMARK VINA RESULT:      -8.2      4.600     11.008
REMARK  Name = 
REMARK  12 active torsions:
REMARK  status: ('A' for Active; 'I' for Inactive)
REMARK    1  A    between atoms: C_2  and  C_3
REMARK    2  A    between atoms: C_3  and  C_4
REMARK    3  A    between atoms: C_4  and  N_5
REMARK    4  A    between atoms: N_5  and  C_6
REMARK    5  A    between atoms: C_6  and  C_7
REMARK    6  A    between atoms: C_10  and  C_11
REMARK    7  A    between atoms: N_20  and  C_21
REMARK    8  A    between atoms: C_21  and  C_22
REMARK    9  A    between atoms: C_22  and  C_23
REMARK   10  A    between atoms: N_25  and  C_26
REMARK   11  A    between atoms: C_30  and  C_31
REMARK   12  A    between atoms: C_31  and  O_33
REMARK                            x       y       z     vdW  Elec       q    Type
REMARK                         _______ _______ _______ _____ _____    ______ ____
ROOT
ATOM      1  O   UNL     1      -2.949   9.984  15.454  0.00  0.00    +0.000 OA
ATOM      2  C   UNL     1      -2.778  10.429  16.584  0.00  0.00    +0.000 C 
ATOM      3  N   UNL     1      -3.621  11.352  17.156  0.00  0.00    +0.000 N 
ATOM      4  H   UNL     1      -3.547  11.545  18.150  0.00  0.00    +0.000 HD
ENDROOT
BRANCH   2   5
ATOM      5  C   UNL     1      -1.602  10.021  17.451  0.00  0.00    +0.000 C 
BRANCH   5   6
ATOM      6  C   UNL     1      -1.275  11.095  18.484  0.00  0.00    +0.000 C 
BRANCH   6   7
ATOM      7  N   UNL     1       0.138  11.482  18.411  0.00  0.00    +0.000 NA
ATOM      8  H   UNL     1       0.229  12.498  18.428  0.00  0.00    +0.000 HD
BRANCH   7   9
ATOM      9  C   UNL     1       0.885  10.923  19.540  0.00  0.00    +0.000 C 
BRANCH   9  10
ATOM     10  C   UNL     1       1.472   9.575  19.202  0.00  0.00    +0.000 A 
ATOM     11  C   UNL     1       2.041   9.346  17.950  0.00  0.00    +0.000 A 
ATOM     12  C   UNL     1       2.520   8.077  17.610  0.00  0.00    +0.000 A 
ATOM     13  C   UNL     1       2.482   6.982  18.503  0.00  0.00    +0.000 A 
ATOM     14  C   UNL     1       1.946   7.246  19.784  0.00  0.00    +0.000 A 
ATOM     15 CL   UNL     1       1.910   6.082  21.069  0.00  0.00    +0.000 Cl
ATOM     16  C   UNL     1       1.432   8.516  20.113  0.00  0.00    +0.000 A 
BRANCH  13  17
ATOM     17  C   UNL     1       2.966   5.656  18.015  0.00  0.00    +0.000 A 
ATOM     18  C   UNL     1       2.056   4.618  17.722  0.00  0.00    +0.000 A 
ATOM     19  C   UNL     1       2.484   3.327  17.391  0.00  0.00    +0.000 A 
ATOM     20  C   UNL     1       3.841   3.050  17.295  0.00  0.00    +0.000 A 
ATOM     21  C   UNL     1       4.765   4.059  17.538  0.00  0.00    +0.000 A 
ATOM     22  C   UNL     1       4.331   5.337  17.914  0.00  0.00    +0.000 A 
ENDBRANCH  13  17
ENDBRANCH   9  10
ENDBRANCH   7   9
ENDBRANCH   6   7
ENDBRANCH   5   6
ENDBRANCH   2   5
BRANCH   3  23
ATOM     23  C   UNL     1      -4.849  11.809  16.524  0.00  0.00    +0.000 C 
BRANCH  23  24
ATOM     24  C   UNL     1      -5.836  12.443  17.512  0.00  0.00    +0.000 C 
BRANCH  24  25
ATOM     25  C   UNL     1      -5.486  12.049  18.935  0.00  0.00    +0.000 C 
ATOM     26  O   UNL     1      -5.734  10.917  19.346  0.00  0.00    +0.000 OA
ATOM     27  N   UNL     1      -4.927  13.065  19.696  0.00  0.00    +0.000 N 
ATOM     28  H   UNL     1      -4.948  14.006  19.317  0.00  0.00    +0.000 HD
BRANCH  27  29
ATOM     29  C   UNL     1      -4.526  12.918  21.050  0.00  0.00    +0.000 A 
ATOM     30  C   UNL     1      -5.409  13.123  22.116  0.00  0.00    +0.000 A 
ATOM     31  C   UNL     1      -4.986  13.030  23.441  0.00  0.00    +0.000 A 
ATOM     32  C   UNL     1      -3.663  12.716  23.724  0.00  0.00    +0.000 A 
ATOM     33  C   UNL     1      -2.764  12.497  22.673  0.00  0.00    +0.000 A 
ATOM     34  C   UNL     1      -3.202  12.567  21.337  0.00  0.00    +0.000 A 
BRANCH  33  35
ATOM     35  C   UNL     1      -1.342  12.162  22.941  0.00  0.00    +0.000 C 
ATOM     36  O   UNL     1      -0.532  12.989  23.322  0.00  0.00    +0.000 OA
BRANCH  35  37
ATOM     37  O   UNL     1      -1.041  10.855  22.774  0.00  0.00    +0.000 OA
ATOM     38  H   UNL     1      -0.105  10.658  22.591  0.00  0.00    +0.000 HD
ENDBRANCH  35  37
ENDBRANCH  33  35
ENDBRANCH  27  29
ENDBRANCH  24  25
ENDBRANCH  23  24
ENDBRANCH   3  23
TORSDOF 12
ENDMDL
MODEL 3
REMARK VINA RESULT:      -8.1      2.739      4.478
REMARK  Name = 
REMARK  12 active torsions:
REMARK  status: ('A' for Active; 'I' for Inactive)
REMARK    1  A    between atoms: C_2  and  C_3
REMARK    2  A    between atoms: C_3  and  C_4
REMARK    3  A    between atoms: C_4  and  N_5
REMARK    4  A    between atoms: N_5  and  C_6
REMARK    5  A    between atoms: C_6  and  C_7
REMARK    6  A    between atoms: C_10  and  C_11
REMARK    7  A    between atoms: N_20  and  C_21
REMARK    8  A    between atoms: C_21  and  C_22
REMARK    9  A    between atoms: C_22  and  C_23
REMARK   10  A    between atoms: N_25  and  C_26
REMARK   11  A    between atoms: C_30  and  C_31
REMARK   12  A    between atoms: C_31  and  O_33
REMARK                            x       y       z     vdW  Elec       q    Type
REMARK                         _______ _______ _______ _____ _____    ______ ____
ROOT
ATOM      1  O   UNL     1       3.827   3.670  16.762  0.00  0.00    +0.000 OA
ATOM      2  C   UNL     1       3.529   3.921  17.925  0.00  0.00    +0.000 C 
ATOM      3  N   UNL     1       4.189   4.864  18.676  0.00  0.00    +0.000 N 
ATOM      4  H   UNL     1       3.788   5.167  19.559  0.00  0.00    +0.000 HD
ENDROOT
BRANCH   2   5
ATOM      5  C   UNL     1       2.414   3.196  18.654  0.00  0.00    +0.000 C 
BRANCH   5   6
ATOM      6  C   UNL     1       1.240   4.128  18.942  0.00  0.00    +0.000 C 
BRANCH   6   7
ATOM      7  N   UNL     1       1.144   4.426  20.375  0.00  0.00    +0.000 NA
ATOM      8  H   UNL     1       1.273   3.576  20.924  0.00  0.00    +0.000 HD
BRANCH   7   9
ATOM      9  C   UNL     1       2.164   5.400  20.768  0.00  0.00    +0.000 C 
BRANCH   9  10
ATOM     10  C   UNL     1       1.687   6.817  20.558  0.00  0.00    +0.000 A 
ATOM     11  C   UNL     1       0.876   7.437  21.508  0.00  0.00    +0.000 A 
ATOM     12  C   UNL     1       0.374   8.722  21.281  0.00  0.00    +0.000 A 
ATOM     13  C   UNL     1       0.674   9.464  20.114  0.00  0.00    +0.000 A 
ATOM     14  C   UNL     1       1.537   8.837  19.187  0.00  0.00    +0.000 A 
ATOM     15 CL   UNL     1       2.126   9.609  17.750  0.00  0.00    +0.000 Cl
ATOM     16  C   UNL     1       2.013   7.529  19.401  0.00  0.00    +0.000 A 
BRANCH  13  17
ATOM     17  C   UNL     1       0.036  10.803  19.947  0.00  0.00    +0.000 A 
ATOM     18  C   UNL     1       0.488  11.916  20.688  0.00  0.00    +0.000 A 
ATOM     19  C   UNL     1      -0.175  13.149  20.652  0.00  0.00    +0.000 A 
ATOM     20  C   UNL     1      -1.283  13.319  19.833  0.00  0.00    +0.000 A 
ATOM     21  C   UNL     1      -1.732  12.255  19.059  0.00  0.00    +0.000 A 
ATOM     22  C   UNL     1      -1.094  11.010  19.135  0.00  0.00    +0.000 A 
ENDBRANCH  13  17
ENDBRANCH   9  10
ENDBRANCH   7   9
ENDBRANCH   6   7
ENDBRANCH   5   6
ENDBRANCH   2   5
BRANCH   3  23
ATOM     23  C   UNL     1       5.231   5.725  18.138  0.00  0.00    +0.000 C 
BRANCH  23  24
ATOM     24  C   UNL     1       6.637   5.130  18.278  0.00  0.00    +0.000 C 
BRANCH  24  25
ATOM     25  C   UNL     1       7.174   4.717  16.921  0.00  0.00    +0.000 C 
ATOM     26  O   UNL     1       8.252   4.131  16.830  0.00  0.00    +0.000 OA
ATOM     27  N   UNL     1       6.382   5.090  15.846  0.00  0.00    +0.000 N 
ATOM     28  H   UNL     1       5.617   5.735  16.024  0.00  0.00    +0.000 HD
BRANCH  27  29
ATOM     29  C   UNL     1       6.691   4.808  14.490  0.00  0.00    +0.000 A 
ATOM     30  C   UNL     1       7.724   5.462  13.809  0.00  0.00    +0.000 A 
ATOM     31  C   UNL     1       7.980   5.213  12.461  0.00  0.00    +0.000 A 
ATOM     32  C   UNL     1       7.207   4.290  11.769  0.00  0.00    +0.000 A 
ATOM     33  C   UNL     1       6.175   3.616  12.433  0.00  0.00    +0.000 A 
ATOM     34  C   UNL     1       5.937   3.852  13.800  0.00  0.00    +0.000 A 
BRANCH  33  35
ATOM     35  C   UNL     1       5.329   2.624  11.722  0.00  0.00    +0.000 C 
ATOM     36  O   UNL     1       5.714   1.497  11.463  0.00  0.00    +0.000 OA
BRANCH  35  37
ATOM     37  O   UNL     1       4.083   3.063  11.436  0.00  0.00    +0.000 OA
ATOM     38  H   UNL     1       3.751   2.840  10.547  0.00  0.00    +0.000 HD
ENDBRANCH  35  37
ENDBRANCH  33  35
ENDBRANCH  27  29
ENDBRANCH  24  25
ENDBRANCH  23  24
ENDBRANCH   3  23
TORSDOF 12
ENDMDL
MODEL 4
REMARK VINA RESULT:      -8.1      4.792      7.387
REMARK  Name = 
REMARK  12 active torsions:
REMARK  status: ('A' for Active; 'I' for Inactive)
REMARK    1  A    between atoms: C_2  and  C_3
REMARK    2  A    between atoms: C_3  and  C_4
REMARK    3  A    between atoms: C_4  and  N_5
REMARK    4  A    between atoms: N_5  and  C_6
REMARK    5  A    between atoms: C_6  and  C_7
REMARK    6  A    between atoms: C_10  and  C_11
REMARK    7  A    between atoms: N_20  and  C_21
REMARK    8  A    between atoms: C_21  and  C_22
REMARK    9  A    between atoms: C_22  and  C_23
REMARK   10  A    between atoms: N_25  and  C_26
REMARK   11  A    between atoms: C_30  and  C_31
REMARK   12  A    between atoms: C_31  and  O_33
REMARK                            x       y       z     vdW  Elec       q    Type
REMARK                         _______ _______ _______ _____ _____    ______ ____
ROOT
ATOM      1  O   UNL     1       7.098   6.203  18.807  0.00  0.00    +0.000 OA
ATOM      2  C   UNL     1       7.199   6.305  17.589  0.00  0.00    +0.000 C 
ATOM      3  N   UNL     1       7.386   7.510  16.955  0.00  0.00    +0.000 N 
ATOM      4  H   UNL     1       7.652   7.522  15.975  0.00  0.00    +0.000 HD
ENDROOT
BRANCH   2   5
ATOM      5  C   UNL     1       7.102   5.109  16.661  0.00  0.00    +0.000 C 
BRANCH   5   6
ATOM      6  C   UNL     1       5.704   4.982  16.062  0.00  0.00    +0.000 C 
BRANCH   6   7
ATOM      7  N   UNL     1       4.803   6.002  16.610  0.00  0.00    +0.000 NA
ATOM      8  H   UNL     1       4.376   6.541  15.857  0.00  0.00    +0.000 HD
BRANCH   7   9
ATOM      9  C   UNL     1       3.743   5.379  17.405  0.00  0.00    +0.000 C 
BRANCH   9  10
ATOM     10  C   UNL     1       3.059   6.383  18.301  0.00  0.00    +0.000 A 
ATOM     11  C   UNL     1       2.671   6.028  19.592  0.00  0.00    +0.000 A 
ATOM     12  C   UNL     1       1.973   6.934  20.397  0.00  0.00    +0.000 A 
ATOM     13  C   UNL     1       1.650   8.243  19.969  0.00  0.00    +0.000 A 
ATOM     14  C   UNL     1       2.094   8.599  18.677  0.00  0.00    +0.000 A 
ATOM     15 CL   UNL     1       1.909  10.186  18.000  0.00  0.00    +0.000 Cl
ATOM     16  C   UNL     1       2.767   7.674  17.854  0.00  0.00    +0.000 A 
BRANCH  13  17
ATOM     17  C   UNL     1       0.849   9.107  20.887  0.00  0.00    +0.000 A 
ATOM     18  C   UNL     1       0.917   8.932  22.286  0.00  0.00    +0.000 A 
ATOM     19  C   UNL     1       0.081   9.634  23.163  0.00  0.00    +0.000 A 
ATOM     20  C   UNL     1      -0.816  10.570  22.666  0.00  0.00    +0.000 A 
ATOM     21  C   UNL     1      -0.882  10.797  21.297  0.00  0.00    +0.000 A 
ATOM     22  C   UNL     1      -0.076  10.058  20.421  0.00  0.00    +0.000 A 
ENDBRANCH  13  17
ENDBRANCH   9  10
ENDBRANCH   7   9
ENDBRANCH   6   7
ENDBRANCH   5   6
ENDBRANCH   2   5
BRANCH   3  23
ATOM     23  C   UNL     1       7.587   8.762  17.668  0.00  0.00    +0.000 C 
BRANCH  23  24
ATOM     24  C   UNL     1       8.798   8.733  18.610  0.00  0.00    +0.000 C 
BRANCH  24  25
ATOM     25  C   UNL     1       9.225  10.144  18.967  0.00  0.00    +0.000 C 
ATOM     26  O   UNL     1       9.085  10.565  20.114  0.00  0.00    +0.000 OA
ATOM     27  N   UNL     1       9.723  10.884  17.906  0.00  0.00    +0.000 N 
ATOM     28  H   UNL     1       9.613  10.504  16.971  0.00  0.00    +0.000 HD
BRANCH  27  29
ATOM     29  C   UNL     1      10.180  12.224  18.012  0.00  0.00    +0.000 A 
ATOM     30  C   UNL     1      11.514  12.537  18.297  0.00  0.00    +0.000 A 
ATOM     31  C   UNL     1      11.935  13.857  18.453  0.00  0.00    +0.000 A 
ATOM     32  C   UNL     1      11.024  14.895  18.314  0.00  0.00    +0.000 A 
ATOM     33  C   UNL     1       9.686  14.606  18.019  0.00  0.00    +0.000 A 
ATOM     34  C   UNL     1       9.270  13.273  17.837  0.00  0.00    +0.000 A 
BRANCH  33  35
ATOM     35  C   UNL     1       8.685  15.692  17.865  0.00  0.00    +0.000 C 
ATOM     36  O   UNL     1       7.486  15.479  17.816  0.00  0.00    +0.000 OA
BRANCH  35  37
ATOM     37  O   UNL     1       9.217  16.934  17.836  0.00  0.00    +0.000 OA
ATOM     38  H   UNL     1       8.620  17.655  18.107  0.00  0.00    +0.000 HD
ENDBRANCH  35  37
ENDBRANCH  33  35
ENDBRANCH  27  29
ENDBRANCH  24  25
ENDBRANCH  23  24
ENDBRANCH   3  23
TORSDOF 12
ENDMDL
MODEL 5
REMARK VINA RESULT:      -8.0      2.764      4.577
REMARK  Name = 
REMARK  12 active torsions:
REMARK  status: ('A' for Active; 'I' for Inactive)
REMARK    1  A    between atoms: C_2  and  C_3
REMARK    2  A    between atoms: C_3  and  C_4
REMARK    3  A    between atoms: C_4  and  N_5
REMARK    4  A    between atoms: N_5  and  C_6
REMARK    5  A    between atoms: C_6  and  C_7
REMARK    6  A    between atoms: C_10  and  C_11
REMARK    7  A    between atoms: N_20  and  C_21
REMARK    8  A    between atoms: C_21  and  C_22
REMARK    9  A    between atoms: C_22  and  C_23
REMARK   10  A    between atoms: N_25  and  C_26
REMARK   11  A    between atoms: C_30  and  C_31
REMARK   12  A    between atoms: C_31  and  O_33
REMARK                            x       y       z     vdW  Elec       q    Type
REMARK                         _______ _______ _______ _____ _____    ______ ____
ROOT
ATOM      1  O   UNL     1       4.230   2.518  20.432  0.00  0.00    +0.000 OA
ATOM      2  C   UNL     1       3.609   2.878  19.438  0.00  0.00    +0.000 C 
ATOM      3  N   UNL     1       4.146   3.712  18.486  0.00  0.00    +0.000 N 
ATOM      4  H   UNL     1       3.668   3.826  17.598  0.00  0.00    +0.000 HD
ENDROOT
BRANCH   2   5
ATOM      5  C   UNL     1       2.176   2.456  19.175  0.00  0.00    +0.000 C 
BRANCH   5   6
ATOM      6  C   UNL     1       1.194   3.564  19.546  0.00  0.00    +0.000 C 
BRANCH   6   7
ATOM      7  N   UNL     1       1.807   4.886  19.383  0.00  0.00    +0.000 NA
ATOM      8  H   UNL     1       1.252   5.458  18.746  0.00  0.00    +0.000 HD
BRANCH   7   9
ATOM      9  C   UNL     1       1.903   5.573  20.673  0.00  0.00    +0.000 C 
BRANCH   9  10
ATOM     10  C   UNL     1       1.556   7.036  20.549  0.00  0.00    +0.000 A 
ATOM     11  C   UNL     1       0.875   7.690  21.575  0.00  0.00    +0.000 A 
ATOM     12  C   UNL     1       0.489   9.026  21.431  0.00  0.00    +0.000 A 
ATOM     13  C   UNL     1       0.783   9.785  20.274  0.00  0.00    +0.000 A 
ATOM     14  C   UNL     1       1.517   9.119  19.267  0.00  0.00    +0.000 A 
ATOM     15 CL   UNL     1       2.084   9.892  17.821  0.00  0.00    +0.000 Cl
ATOM     16  C   UNL     1       1.874   7.763  19.399  0.00  0.00    +0.000 A 
BRANCH  13  17
ATOM     17  C   UNL     1       0.271  11.186  20.201  0.00  0.00    +0.000 A 
ATOM     18  C   UNL     1      -0.913  11.487  19.495  0.00  0.00    +0.000 A 
ATOM     19  C   UNL     1      -1.344  12.803  19.297  0.00  0.00    +0.000 A 
ATOM     20  C   UNL     1      -0.627  13.859  19.845  0.00  0.00    +0.000 A 
ATOM     21  C   UNL     1       0.522  13.597  20.581  0.00  0.00    +0.000 A 
ATOM     22  C   UNL     1       0.975  12.280  20.736  0.00  0.00    +0.000 A 
ENDBRANCH  13  17
ENDBRANCH   9  10
ENDBRANCH   7   9
ENDBRANCH   6   7
ENDBRANCH   5   6
ENDBRANCH   2   5
BRANCH   3  23
ATOM     23  C   UNL     1       5.529   4.161  18.509  0.00  0.00    +0.000 C 
BRANCH  23  24
ATOM     24  C   UNL     1       5.692   5.634  18.111  0.00  0.00    +0.000 C 
BRANCH  24  25
ATOM     25  C   UNL     1       5.903   5.757  16.614  0.00  0.00    +0.000 C 
ATOM     26  O   UNL     1       5.605   6.795  16.026  0.00  0.00    +0.000 OA
ATOM     27  N   UNL     1       6.401   4.615  16.004  0.00  0.00    +0.000 N 
ATOM     28  H   UNL     1       6.427   3.760  16.550  0.00  0.00    +0.000 HD
BRANCH  27  29
ATOM     29  C   UNL     1       6.673   4.507  14.615  0.00  0.00    +0.000 A 
ATOM     30  C   UNL     1       7.639   5.298  13.981  0.00  0.00    +0.000 A 
ATOM     31  C   UNL     1       7.855   5.219  12.606  0.00  0.00    +0.000 A 
ATOM     32  C   UNL     1       7.113   4.332  11.838  0.00  0.00    +0.000 A 
ATOM     33  C   UNL     1       6.149   3.524  12.452  0.00  0.00    +0.000 A 
ATOM     34  C   UNL     1       5.951   3.589  13.845  0.00  0.00    +0.000 A 
BRANCH  33  35
ATOM     35  C   UNL     1       5.336   2.566  11.660  0.00  0.00    +0.000 C 
ATOM     36  O   UNL     1       4.265   2.867  11.163  0.00  0.00    +0.000 OA
BRANCH  35  37
ATOM     37  O   UNL     1       5.911   1.355  11.498  0.00  0.00    +0.000 OA
ATOM     38  H   UNL     1       6.704   1.188  12.040  0.00  0.00    +0.000 HD
ENDBRANCH  35  37
ENDBRANCH  33  35
ENDBRANCH  27  29
ENDBRANCH  24  25
ENDBRANCH  23  24
ENDBRANCH   3  23
TORSDOF 12
ENDMDL
MODEL 6
REMARK VINA RESULT:      -7.9      1.342      1.995
REMARK  Name = 
REMARK  12 active torsions:
REMARK  status: ('A' for Active; 'I' for Inactive)
REMARK    1  A    between atoms: C_2  and  C_3
REMARK    2  A    between atoms: C_3  and  C_4
REMARK    3  A    between atoms: C_4  and  N_5
REMARK    4  A    between atoms: N_5  and  C_6
REMARK    5  A    between atoms: C_6  and  C_7
REMARK    6  A    between atoms: C_10  and  C_11
REMARK    7  A    between atoms: N_20  and  C_21
REMARK    8  A    between atoms: C_21  and  C_22
REMARK    9  A    between atoms: C_22  and  C_23
REMARK   10  A    between atoms: N_25  and  C_26
REMARK   11  A    between atoms: C_30  and  C_31
REMARK   12  A    between atoms: C_31  and  O_33
REMARK                            x       y       z     vdW  Elec       q    Type
REMARK                         _______ _______ _______ _____ _____    ______ ____
ROOT
ATOM      1  O   UNL     1       1.238   4.151  18.178  0.00  0.00    +0.000 OA
ATOM      2  C   UNL     1       1.793   4.479  19.222  0.00  0.00    +0.000 C 
ATOM      3  N   UNL     1       2.157   3.572  20.188  0.00  0.00    +0.000 N 
ATOM      4  H   UNL     1       2.776   3.865  20.938  0.00  0.00    +0.000 HD
ENDROOT
BRANCH   2   5
ATOM      5  C   UNL     1       2.109   5.924  19.557  0.00  0.00    +0.000 C 
BRANCH   5   6
ATOM      6  C   UNL     1       1.448   6.348  20.867  0.00  0.00    +0.000 C 
BRANCH   6   7
ATOM      7  N   UNL     1       1.865   7.700  21.252  0.00  0.00    +0.000 NA
ATOM      8  H   UNL     1       2.883   7.773  21.249  0.00  0.00    +0.000 HD
BRANCH   7   9
ATOM      9  C   UNL     1       1.317   8.693  20.326  0.00  0.00    +0.000 C 
BRANCH   9  10
ATOM     10  C   UNL     1       0.542   9.763  21.054  0.00  0.00    +0.000 A 
ATOM     11  C   UNL     1       0.126   9.562  22.369  0.00  0.00    +0.000 A 
ATOM     12  C   UNL     1      -0.654  10.522  23.021  0.00  0.00    +0.000 A 
ATOM     13  C   UNL     1      -1.037  11.739  22.408  0.00  0.00    +0.000 A 
ATOM     14  C   UNL     1      -0.563  11.945  21.093  0.00  0.00    +0.000 A 
ATOM     15 CL   UNL     1      -0.815  13.411  20.200  0.00  0.00    +0.000 Cl
ATOM     16  C   UNL     1       0.193  10.961  20.426  0.00  0.00    +0.000 A 
BRANCH  13  17
ATOM     17  C   UNL     1      -1.921  12.666  23.175  0.00  0.00    +0.000 A 
ATOM     18  C   UNL     1      -3.295  12.386  23.335  0.00  0.00    +0.000 A 
ATOM     19  C   UNL     1      -4.173  13.299  23.931  0.00  0.00    +0.000 A 
ATOM     20  C   UNL     1      -3.691  14.501  24.431  0.00  0.00    +0.000 A 
ATOM     21  C   UNL     1      -2.336  14.792  24.326  0.00  0.00    +0.000 A 
ATOM     22  C   UNL     1      -1.470  13.896  23.687  0.00  0.00    +0.000 A 
ENDBRANCH  13  17
ENDBRANCH   9  10
ENDBRANCH   7   9
ENDBRANCH   6   7
ENDBRANCH   5   6
ENDBRANCH   2   5
BRANCH   3  23
ATOM     23  C   UNL     1       2.016   2.133  20.024  0.00  0.00    +0.000 C 
BRANCH  23  24
ATOM     24  C   UNL     1       3.060   1.530  19.075  0.00  0.00    +0.000 C 
BRANCH  24  25
ATOM     25  C   UNL     1       4.218   2.491  18.882  0.00  0.00    +0.000 C 
ATOM     26  O   UNL     1       4.999   2.717  19.804  0.00  0.00    +0.000 OA
ATOM     27  N   UNL     1       4.271   3.092  17.633  0.00  0.00    +0.000 N 
ATOM     28  H   UNL     1       3.469   2.980  17.021  0.00  0.00    +0.000 HD
BRANCH  27  29
ATOM     29  C   UNL     1       5.267   4.022  17.237  0.00  0.00    +0.000 A 
ATOM     30  C   UNL     1       5.754   5.008  18.103  0.00  0.00    +0.000 A 
ATOM     31  C   UNL     1       6.691   5.949  17.681  0.00  0.00    +0.000 A 
ATOM     32  C   UNL     1       7.171   5.913  16.378  0.00  0.00    +0.000 A 
ATOM     33  C   UNL     1       6.705   4.929  15.497  0.00  0.00    +0.000 A 
ATOM     34  C   UNL     1       5.777   3.965  15.935  0.00  0.00    +0.000 A 
BRANCH  33  35
ATOM     35  C   UNL     1       7.195   4.863  14.097  0.00  0.00    +0.000 C 
ATOM     36  O   UNL     1       6.676   4.156  13.251  0.00  0.00    +0.000 OA
BRANCH  35  37
ATOM     37  O   UNL     1       8.231   5.690  13.834  0.00  0.00    +0.000 OA
ATOM     38  H   UNL     1       8.530   5.710  12.907  0.00  0.00    +0.000 HD
ENDBRANCH  35  37
ENDBRANCH  33  35
ENDBRANCH  27  29
ENDBRANCH  24  25
ENDBRANCH  23  24
ENDBRANCH   3  23
TORSDOF 12
ENDMDL
MODEL 7
REMARK VINA RESULT:      -7.9      0.669      1.204
REMARK  Name = 
REMARK  12 active torsions:
REMARK  status: ('A' for Active; 'I' for Inactive)
REMARK    1  A    between atoms: C_2  and  C_3
REMARK    2  A    between atoms: C_3  and  C_4
REMARK    3  A    between atoms: C_4  and  N_5
REMARK    4  A    between atoms: N_5  and  C_6
REMARK    5  A    between atoms: C_6  and  C_7
REMARK    6  A    between atoms: C_10  and  C_11
REMARK    7  A    between atoms: N_20  and  C_21
REMARK    8  A    between atoms: C_21  and  C_22
REMARK    9  A    between atoms: C_22  and  C_23
REMARK   10  A    between atoms: N_25  and  C_26
REMARK   11  A    between atoms: C_30  and  C_31
REMARK   12  A    between atoms: C_31  and  O_33
REMARK                            x       y       z     vdW  Elec       q    Type
REMARK                         _______ _______ _______ _____ _____    ______ ____
ROOT
ATOM      1  O   UNL     1       1.335   4.324  17.459  0.00  0.00    +0.000 OA
ATOM      2  C   UNL     1       1.895   4.910  18.380  0.00  0.00    +0.000 C 
ATOM      3  N   UNL     1       2.225   4.293  19.563  0.00  0.00    +0.000 N 
ATOM      4  H   UNL     1       2.849   4.763  20.212  0.00  0.00    +0.000 HD
ENDROOT
BRANCH   2   5
ATOM      5  C   UNL     1       2.255   6.382  18.309  0.00  0.00    +0.000 C 
BRANCH   5   6
ATOM      6  C   UNL     1       3.050   6.818  19.538  0.00  0.00    +0.000 C 
BRANCH   6   7
ATOM      7  N   UNL     1       2.171   7.425  20.544  0.00  0.00    +0.000 NA
ATOM      8  H   UNL     1       2.631   8.223  20.981  0.00  0.00    +0.000 HD
BRANCH   7   9
ATOM      9  C   UNL     1       0.921   7.877  19.930  0.00  0.00    +0.000 C 
BRANCH   9  10
ATOM     10  C   UNL     1       0.328   9.045  20.679  0.00  0.00    +0.000 A 
ATOM     11  C   UNL     1       0.332   9.067  22.073  0.00  0.00    +0.000 A 
ATOM     12  C   UNL     1      -0.282  10.113  22.768  0.00  0.00    +0.000 A 
ATOM     13  C   UNL     1      -0.906  11.201  22.115  0.00  0.00    +0.000 A 
ATOM     14  C   UNL     1      -0.857  11.186  20.703  0.00  0.00    +0.000 A 
ATOM     15 CL   UNL     1      -1.456  12.473  19.706  0.00  0.00    +0.000 Cl
ATOM     16  C   UNL     1      -0.269  10.114  20.004  0.00  0.00    +0.000 A 
BRANCH  13  17
ATOM     17  C   UNL     1      -1.583  12.234  22.955  0.00  0.00    +0.000 A 
ATOM     18  C   UNL     1      -2.906  12.042  23.408  0.00  0.00    +0.000 A 
ATOM     19  C   UNL     1      -3.612  13.046  24.082  0.00  0.00    +0.000 A 
ATOM     20  C   UNL     1      -2.995  14.257  24.367  0.00  0.00    +0.000 A 
ATOM     21  C   UNL     1      -1.679  14.465  23.971  0.00  0.00    +0.000 A 
ATOM     22  C   UNL     1      -0.994  13.474  23.255  0.00  0.00    +0.000 A 
ENDBRANCH  13  17
ENDBRANCH   9  10
ENDBRANCH   7   9
ENDBRANCH   6   7
ENDBRANCH   5   6
ENDBRANCH   2   5
BRANCH   3  23
ATOM     23  C   UNL     1       2.040   2.870  19.798  0.00  0.00    +0.000 C 
BRANCH  23  24
ATOM     24  C   UNL     1       3.231   2.022  19.334  0.00  0.00    +0.000 C 
BRANCH  24  25
ATOM     25  C   UNL     1       4.352   2.914  18.834  0.00  0.00    +0.000 C 
ATOM     26  O   UNL     1       5.153   3.411  19.624  0.00  0.00    +0.000 OA
ATOM     27  N   UNL     1       4.350   3.134  17.465  0.00  0.00    +0.000 N 
ATOM     28  H   UNL     1       3.534   2.835  16.939  0.00  0.00    +0.000 HD
BRANCH  27  29
ATOM     29  C   UNL     1       5.303   3.935  16.784  0.00  0.00    +0.000 A 
ATOM     30  C   UNL     1       5.698   3.667  15.468  0.00  0.00    +0.000 A 
ATOM     31  C   UNL     1       6.677   4.429  14.832  0.00  0.00    +0.000 A 
ATOM     32  C   UNL     1       7.274   5.488  15.503  0.00  0.00    +0.000 A 
ATOM     33  C   UNL     1       6.888   5.781  16.816  0.00  0.00    +0.000 A 
ATOM     34  C   UNL     1       5.881   5.024  17.446  0.00  0.00    +0.000 A 
BRANCH  33  35
ATOM     35  C   UNL     1       7.507   6.905  17.563  0.00  0.00    +0.000 C 
ATOM     36  O   UNL     1       7.525   8.046  17.137  0.00  0.00    +0.000 OA
BRANCH  35  37
ATOM     37  O   UNL     1       8.001   6.560  18.773  0.00  0.00    +0.000 OA
ATOM     38  H   UNL     1       7.337   6.367  19.459  0.00  0.00    +0.000 HD
ENDBRANCH  35  37
ENDBRANCH  33  35
ENDBRANCH  27  29
ENDBRANCH  24  25
ENDBRANCH  23  24
ENDBRANCH   3  23
TORSDOF 12
ENDMDL
MODEL 8
REMARK VINA RESULT:      -7.9      4.779     11.415
REMARK  Name = 
REMARK  12 active torsions:
REMARK  status: ('A' for Active; 'I' for Inactive)
REMARK    1  A    between atoms: C_2  and  C_3
REMARK    2  A    between atoms: C_3  and  C_4
REMARK    3  A    between atoms: C_4  and  N_5
REMARK    4  A    between atoms: N_5  and  C_6
REMARK    5  A    between atoms: C_6  and  C_7
REMARK    6  A    between atoms: C_10  and  C_11
REMARK    7  A    between atoms: N_20  and  C_21
REMARK    8  A    between atoms: C_21  and  C_22
REMARK    9  A    between atoms: C_22  and  C_23
REMARK   10  A    between atoms: N_25  and  C_26
REMARK   11  A    between atoms: C_30  and  C_31
REMARK   12  A    between atoms: C_31  and  O_33
REMARK                            x       y       z     vdW  Elec       q    Type
REMARK                         _______ _______ _______ _____ _____    ______ ____
ROOT
ATOM      1  O   UNL     1      -3.727   9.984  17.772  0.00  0.00    +0.000 OA
ATOM      2  C   UNL     1      -3.444  11.170  17.636  0.00  0.00    +0.000 C 
ATOM      3  N   UNL     1      -4.392  12.144  17.434  0.00  0.00    +0.000 N 
ATOM      4  H   UNL     1      -4.129  13.121  17.516  0.00  0.00    +0.000 HD
ENDROOT
BRANCH   2   5
ATOM      5  C   UNL     1      -2.013  11.673  17.653  0.00  0.00    +0.000 C 
BRANCH   5   6
ATOM      6  C   UNL     1      -1.498  11.833  19.081  0.00  0.00    +0.000 C 
BRANCH   6   7
ATOM      7  N   UNL     1      -1.112  10.537  19.650  0.00  0.00    +0.000 NA
ATOM      8  H   UNL     1      -1.186   9.804  18.945  0.00  0.00    +0.000 HD
BRANCH   7   9
ATOM      9  C   UNL     1       0.266  10.581  20.144  0.00  0.00    +0.000 C 
BRANCH   9  10
ATOM     10  C   UNL     1       1.092   9.451  19.580  0.00  0.00    +0.000 A 
ATOM     11  C   UNL     1       1.634   9.543  18.299  0.00  0.00    +0.000 A 
ATOM     12  C   UNL     1       2.338   8.468  17.748  0.00  0.00    +0.000 A 
ATOM     13  C   UNL     1       2.562   7.261  18.451  0.00  0.00    +0.000 A 
ATOM     14  C   UNL     1       2.047   7.206  19.765  0.00  0.00    +0.000 A 
ATOM     15 CL   UNL     1       2.305   5.872  20.843  0.00  0.00    +0.000 Cl
ATOM     16  C   UNL     1       1.308   8.277  20.306  0.00  0.00    +0.000 A 
BRANCH  13  17
ATOM     17  C   UNL     1       3.275   6.156  17.744  0.00  0.00    +0.000 A 
ATOM     18  C   UNL     1       2.748   4.847  17.733  0.00  0.00    +0.000 A 
ATOM     19  C   UNL     1       3.457   3.766  17.196  0.00  0.00    +0.000 A 
ATOM     20  C   UNL     1       4.697   3.974  16.606  0.00  0.00    +0.000 A 
ATOM     21  C   UNL     1       5.229   5.257  16.563  0.00  0.00    +0.000 A 
ATOM     22  C   UNL     1       4.536   6.327  17.145  0.00  0.00    +0.000 A 
ENDBRANCH  13  17
ENDBRANCH   9  10
ENDBRANCH   7   9
ENDBRANCH   6   7
ENDBRANCH   5   6
ENDBRANCH   2   5
BRANCH   3  23
ATOM     23  C   UNL     1      -5.823  11.881  17.467  0.00  0.00    +0.000 C 
BRANCH  23  24
ATOM     24  C   UNL     1      -6.362  11.656  18.885  0.00  0.00    +0.000 C 
BRANCH  24  25
ATOM     25  C   UNL     1      -5.731  12.638  19.853  0.00  0.00    +0.000 C 
ATOM     26  O   UNL     1      -5.577  13.816  19.534  0.00  0.00    +0.000 OA
ATOM     27  N   UNL     1      -5.325  12.084  21.058  0.00  0.00    +0.000 N 
ATOM     28  H   UNL     1      -5.324  11.072  21.137  0.00  0.00    +0.000 HD
BRANCH  27  29
ATOM     29  C   UNL     1      -4.712  12.818  22.107  0.00  0.00    +0.000 A 
ATOM     30  C   UNL     1      -5.454  13.583  23.015  0.00  0.00    +0.000 A 
ATOM     31  C   UNL     1      -4.833  14.342  24.006  0.00  0.00    +0.000 A 
ATOM     32  C   UNL     1      -3.448  14.340  24.113  0.00  0.00    +0.000 A 
ATOM     33  C   UNL     1      -2.686  13.574  23.222  0.00  0.00    +0.000 A 
ATOM     34  C   UNL     1      -3.319  12.789  22.240  0.00  0.00    +0.000 A 
BRANCH  33  35
ATOM     35  C   UNL     1      -1.204  13.551  23.308  0.00  0.00    +0.000 C 
ATOM     36  O   UNL     1      -0.550  14.521  23.649  0.00  0.00    +0.000 OA
BRANCH  35  37
ATOM     37  O   UNL     1      -0.652  12.350  23.026  0.00  0.00    +0.000 OA
ATOM     38  H   UNL     1       0.079  12.074  23.608  0.00  0.00    +0.000 HD
ENDBRANCH  35  37
ENDBRANCH  33  35
ENDBRANCH  27  29
ENDBRANCH  24  25
ENDBRANCH  23  24
ENDBRANCH   3  23
TORSDOF 12
ENDMDL
MODEL 9
REMARK VINA RESULT:      -7.9      5.892      8.949
REMARK  Name = 
REMARK  12 active torsions:
REMARK  status: ('A' for Active; 'I' for Inactive)
REMARK    1  A    between atoms: C_2  and  C_3
REMARK    2  A    between atoms: C_3  and  C_4
REMARK    3  A    between atoms: C_4  and  N_5
REMARK    4  A    between atoms: N_5  and  C_6
REMARK    5  A    between atoms: C_6  and  C_7
REMARK    6  A    between atoms: C_10  and  C_11
REMARK    7  A    between atoms: N_20  and  C_21
REMARK    8  A    between atoms: C_21  and  C_22
REMARK    9  A    between atoms: C_22  and  C_23
REMARK   10  A    between atoms: N_25  and  C_26
REMARK   11  A    between atoms: C_30  and  C_31
REMARK   12  A    between atoms: C_31  and  O_33
REMARK                            x       y       z     vdW  Elec       q    Type
REMARK                         _______ _______ _______ _____ _____    ______ ____
ROOT
ATOM      1  O   UNL     1       7.267   7.875  16.977  0.00  0.00    +0.000 OA
ATOM      2  C   UNL     1       7.817   7.528  18.017  0.00  0.00    +0.000 C 
ATOM      3  N   UNL     1       8.592   8.379  18.769  0.00  0.00    +0.000 N 
ATOM      4  H   UNL     1       8.866   8.103  19.707  0.00  0.00    +0.000 HD
ENDROOT
BRANCH   2   5
ATOM      5  C   UNL     1       7.715   6.115  18.560  0.00  0.00    +0.000 C 
BRANCH   5   6
ATOM      6  C   UNL     1       7.405   5.115  17.449  0.00  0.00    +0.000 C 
BRANCH   6   7
ATOM      7  N   UNL     1       6.289   4.241  17.826  0.00  0.00    +0.000 NA
ATOM      8  H   UNL     1       6.036   4.389  18.802  0.00  0.00    +0.000 HD
BRANCH   7   9
ATOM      9  C   UNL     1       5.119   4.510  16.988  0.00  0.00    +0.000 C 
BRANCH   9  10
ATOM     10  C   UNL     1       4.149   5.442  17.674  0.00  0.00    +0.000 A 
ATOM     11  C   UNL     1       4.049   6.774  17.277  0.00  0.00    +0.000 A 
ATOM     12  C   UNL     1       3.205   7.656  17.958  0.00  0.00    +0.000 A 
ATOM     13  C   UNL     1       2.400   7.253  19.049  0.00  0.00    +0.000 A 
ATOM     14  C   UNL     1       2.479   5.887  19.404  0.00  0.00    +0.000 A 
ATOM     15 CL   UNL     1       1.495   5.156  20.632  0.00  0.00    +0.000 Cl
ATOM     16  C   UNL     1       3.356   5.008  18.739  0.00  0.00    +0.000 A 
BRANCH  13  17
ATOM     17  C   UNL     1       1.580   8.291  19.742  0.00  0.00    +0.000 A 
ATOM     18  C   UNL     1       1.289   8.181  21.119  0.00  0.00    +0.000 A 
ATOM     19  C   UNL     1       0.416   9.064  21.765  0.00  0.00    +0.000 A 
ATOM     20  C   UNL     1      -0.154  10.116  21.061  0.00  0.00    +0.000 A 
ATOM     21  C   UNL     1       0.142  10.278  19.713  0.00  0.00    +0.000 A 
ATOM     22  C   UNL     1       0.980   9.364  19.060  0.00  0.00    +0.000 A 
ENDBRANCH  13  17
ENDBRANCH   9  10
ENDBRANCH   7   9
ENDBRANCH   6   7
ENDBRANCH   5   6
ENDBRANCH   2   5
BRANCH   3  23
ATOM     23  C   UNL     1       8.748   9.793  18.466  0.00  0.00    +0.000 C 
BRANCH  23  24
ATOM     24  C   UNL     1      10.004  10.409  19.093  0.00  0.00    +0.000 C 
BRANCH  24  25
ATOM     25  C   UNL     1       9.691  11.777  19.669  0.00  0.00    +0.000 C 
ATOM     26  O   UNL     1       8.899  11.894  20.603  0.00  0.00    +0.000 OA
ATOM     27  N   UNL     1      10.327  12.833  19.033  0.00  0.00    +0.000 N 
ATOM     28  H   UNL     1      10.803  12.639  18.157  0.00  0.00    +0.000 HD
BRANCH  27  29
ATOM     29  C   UNL     1      10.179  14.195  19.404  0.00  0.00    +0.000 A 
ATOM     30  C   UNL     1      11.021  14.809  20.339  0.00  0.00    +0.000 A 
ATOM     31  C   UNL     1      10.828  16.131  20.735  0.00  0.00    +0.000 A 
ATOM     32  C   UNL     1       9.788  16.872  20.189  0.00  0.00    +0.000 A 
ATOM     33  C   UNL     1       8.939  16.282  19.245  0.00  0.00    +0.000 A 
ATOM     34  C   UNL     1       9.153  14.953  18.830  0.00  0.00    +0.000 A 
BRANCH  33  35
ATOM     35  C   UNL     1       7.816  17.045  18.644  0.00  0.00    +0.000 C 
ATOM     36  O   UNL     1       6.722  16.550  18.435  0.00  0.00    +0.000 OA
BRANCH  35  37
ATOM     37  O   UNL     1       8.099  18.343  18.397  0.00  0.00    +0.000 OA
ATOM     38  H   UNL     1       8.301  18.561  17.469  0.00  0.00    +0.000 HD
ENDBRANCH  35  37
ENDBRANCH  33  35
ENDBRANCH  27  29
ENDBRANCH  24  25
ENDBRANCH  23  24
ENDBRANCH   3  23
TORSDOF 12
ENDMDL
