MODEL 1
REMARK VINA RESULT:      -6.7      0.000      0.000
REMARK  Name = 
REMARK  10 active torsions:
REMARK  status: ('A' for Active; 'I' for Inactive)
REMARK    1  A    between atoms: N_1  and  CA_2
REMARK    2  A    between atoms: CA_2  and  C_3
REMARK    3  A    between atoms: CA_2  and  C_17
REMARK    4  A    between atoms: C_3  and  C_4
REMARK    5  A    between atoms: C_8  and  N_9
REMARK    6  A    between atoms: N_9  and  C_10
REMARK    7  A    between atoms: N_9  and  C_13
REMARK    8  A    between atoms: C_10  and  C_11
REMARK    9  A    between atoms: C_13  and  C_14
REMARK   10  A    between atoms: C_17  and  OXT_19
REMARK                            x       y       z     vdW  Elec       q    Type
REMARK                         _______ _______ _______ _____ _____    ______ ____
ROOT
ATOM      1  C   UNL     1       2.631   5.049  18.221  0.00  0.00    +0.000 A 
ATOM      2  C   UNL     1       2.462   6.412  18.462  0.00  0.00    +0.000 A 
ATOM      3  C   UNL     1       3.357   7.327  17.916  0.00  0.00    +0.000 A 
ATOM      4  C   UNL     1       4.427   6.885  17.127  0.00  0.00    +0.000 A 
ATOM      5  C   UNL     1       4.623   5.527  16.841  0.00  0.00    +0.000 A 
ATOM      6  C   UNL     1       3.707   4.630  17.417  0.00  0.00    +0.000 A 
ENDROOT
BRANCH   1   7
ATOM      7  C   UNL     1       1.693   4.029  18.827  0.00  0.00    +0.000 C 
BRANCH   7   8
ATOM      8  CA  UNL     1       2.425   2.847  19.484  0.00  0.00    +0.000 C 
BRANCH   8   9
ATOM      9  N   UNL     1       2.133   1.523  18.848  0.00  0.00    +0.000 NA
ATOM     10  H1  UNL     1       1.790   0.899  19.588  0.00  0.00    +0.000 HD
ATOM     11  H2  UNL     1       3.024   1.099  18.570  0.00  0.00    +0.000 HD
ENDBRANCH   8   9
BRANCH   8  12
ATOM     12  C   UNL     1       2.042   2.740  20.970  0.00  0.00    +0.000 C 
ATOM     13  O   UNL     1       2.810   2.534  21.896  0.00  0.00    +0.000 OA
BRANCH  12  14
ATOM     14  OXT UNL     1       0.698   2.883  21.133  0.00  0.00    +0.000 OA
ATOM     15  HXT UNL     1       0.569   3.751  21.591  0.00  0.00    +0.000 HD
ENDBRANCH  12  14
ENDBRANCH   8  12
ENDBRANCH   7   8
ENDBRANCH   1   7
BRANCH   5  16
ATOM     16  N   UNL     1       5.657   5.061  16.033  0.00  0.00    +0.000 N 
BRANCH  16  17
ATOM     17  C   UNL     1       7.077   5.316  16.350  0.00  0.00    +0.000 C 
BRANCH  17  18
ATOM     18  C   UNL     1       7.536   4.648  17.653  0.00  0.00    +0.000 C 
ATOM     19 CL   UNL     1       7.792   5.833  18.965  0.00  0.00    +0.000 Cl
ENDBRANCH  17  18
ENDBRANCH  16  17
BRANCH  16  20
ATOM     20  C   UNL     1       5.356   4.694  14.632  0.00  0.00    +0.000 C 
BRANCH  20  21
ATOM     21  C   UNL     1       6.515   3.991  13.910  0.00  0.00    +0.000 C 
ATOM     22 CL   UNL     1       6.027   3.325  12.328  0.00  0.00    +0.000 Cl
ENDBRANCH  20  21
ENDBRANCH  16  20
ENDBRANCH   5  16
TORSDOF 10
ENDMDL
MODEL 2
REMARK VINA RESULT:      -6.5      3.844      6.092
REMARK  Name = 
REMARK  10 active torsions:
REMARK  status: ('A' for Active; 'I' for Inactive)
REMARK    1  A    between atoms: N_1  and  CA_2
REMARK    2  A    between atoms: CA_2  and  C_3
REMARK    3  A    between atoms: CA_2  and  C_17
REMARK    4  A    between atoms: C_3  and  C_4
REMARK    5  A    between atoms: C_8  and  N_9
REMARK    6  A    between atoms: N_9  and  C_10
REMARK    7  A    between atoms: N_9  and  C_13
REMARK    8  A    between atoms: C_10  and  C_11
REMARK    9  A    between atoms: C_13  and  C_14
REMARK   10  A    between atoms: C_17  and  OXT_19
REMARK                            x       y       z     vdW  Elec       q    Type
REMARK                         _______ _______ _______ _____ _____    ______ ____
ROOT
ATOM      1  C   UNL     1       4.760   6.018  17.091  0.00  0.00    +0.000 A 
ATOM      2  C   UNL     1       4.087   7.199  17.404  0.00  0.00    +0.000 A 
ATOM      3  C   UNL     1       2.834   7.142  18.008  0.00  0.00    +0.000 A 
ATOM      4  C   UNL     1       2.246   5.904  18.300  0.00  0.00    +0.000 A 
ATOM      5  C   UNL     1       2.895   4.693  18.022  0.00  0.00    +0.000 A 
ATOM      6  C   UNL     1       4.154   4.787  17.404  0.00  0.00    +0.000 A 
ENDROOT
BRANCH   1   7
ATOM      7  C   UNL     1       6.108   6.048  16.407  0.00  0.00    +0.000 C 
BRANCH   7   8
ATOM      8  CA  UNL     1       6.628   4.651  16.030  0.00  0.00    +0.000 C 
BRANCH   8   9
ATOM      9  N   UNL     1       7.861   4.242  16.775  0.00  0.00    +0.000 NA
ATOM     10  H1  UNL     1       8.442   3.697  16.126  0.00  0.00    +0.000 HD
ATOM     11  H2  UNL     1       7.591   3.556  17.488  0.00  0.00    +0.000 HD
ENDBRANCH   8   9
BRANCH   8  12
ATOM     12  C   UNL     1       6.955   4.589  14.528  0.00  0.00    +0.000 C 
ATOM     13  O   UNL     1       6.424   3.856  13.709  0.00  0.00    +0.000 OA
BRANCH  12  14
ATOM     14  OXT UNL     1       7.954   5.458  14.215  0.00  0.00    +0.000 OA
ATOM     15  HXT UNL     1       7.616   6.359  14.450  0.00  0.00    +0.000 HD
ENDBRANCH  12  14
ENDBRANCH   8  12
ENDBRANCH   7   8
ENDBRANCH   1   7
BRANCH   5  16
ATOM     16  N   UNL     1       2.350   3.450  18.333  0.00  0.00    +0.000 N 
BRANCH  16  17
ATOM     17  C   UNL     1       2.729   2.223  17.604  0.00  0.00    +0.000 C 
BRANCH  17  18
ATOM     18  C   UNL     1       3.650   1.298  18.412  0.00  0.00    +0.000 C 
ATOM     19 CL   UNL     1       4.368   2.126  19.822  0.00  0.00    +0.000 Cl
ENDBRANCH  17  18
ENDBRANCH  16  17
BRANCH  16  20
ATOM     20  C   UNL     1       1.076   3.397  19.082  0.00  0.00    +0.000 C 
BRANCH  20  21
ATOM     21  C   UNL     1       1.235   2.988  20.554  0.00  0.00    +0.000 C 
ATOM     22 CL   UNL     1       2.009   4.262  21.535  0.00  0.00    +0.000 Cl
ENDBRANCH  20  21
ENDBRANCH  16  20
ENDBRANCH   5  16
TORSDOF 10
ENDMDL
MODEL 3
REMARK VINA RESULT:      -6.3      3.544      5.841
REMARK  Name = 
REMARK  10 active torsions:
REMARK  status: ('A' for Active; 'I' for Inactive)
REMARK    1  A    between atoms: N_1  and  CA_2
REMARK    2  A    between atoms: CA_2  and  C_3
REMARK    3  A    between atoms: CA_2  and  C_17
REMARK    4  A    between atoms: C_3  and  C_4
REMARK    5  A    between atoms: C_8  and  N_9
REMARK    6  A    between atoms: N_9  and  C_10
REMARK    7  A    between atoms: N_9  and  C_13
REMARK    8  A    between atoms: C_10  and  C_11
REMARK    9  A    between atoms: C_13  and  C_14
REMARK   10  A    between atoms: C_17  and  OXT_19
REMARK                            x       y       z     vdW  Elec       q    Type
REMARK                         _______ _______ _______ _____ _____    ______ ____
ROOT
ATOM      1  C   UNL     1       4.489   6.180  17.335  0.00  0.00    +0.000 A 
ATOM      2  C   UNL     1       3.682   7.289  17.585  0.00  0.00    +0.000 A 
ATOM      3  C   UNL     1       2.403   7.111  18.106  0.00  0.00    +0.000 A 
ATOM      4  C   UNL     1       1.924   5.823  18.379  0.00  0.00    +0.000 A 
ATOM      5  C   UNL     1       2.708   4.682  18.164  0.00  0.00    +0.000 A 
ATOM      6  C   UNL     1       3.990   4.897  17.627  0.00  0.00    +0.000 A 
ENDROOT
BRANCH   1   7
ATOM      7  C   UNL     1       5.870   6.340  16.740  0.00  0.00    +0.000 C 
BRANCH   7   8
ATOM      8  CA  UNL     1       6.904   6.876  17.744  0.00  0.00    +0.000 C 
BRANCH   8   9
ATOM      9  N   UNL     1       7.926   7.785  17.134  0.00  0.00    +0.000 NA
ATOM     10  H1  UNL     1       8.637   7.968  17.852  0.00  0.00    +0.000 HD
ATOM     11  H2  UNL     1       7.491   8.703  16.989  0.00  0.00    +0.000 HD
ENDBRANCH   8   9
BRANCH   8  12
ATOM     12  C   UNL     1       7.660   5.711  18.407  0.00  0.00    +0.000 C 
ATOM     13  O   UNL     1       7.670   4.552  18.025  0.00  0.00    +0.000 OA
BRANCH  12  14
ATOM     14  OXT UNL     1       8.318   6.136  19.520  0.00  0.00    +0.000 OA
ATOM     15  HXT UNL     1       8.279   5.385  20.164  0.00  0.00    +0.000 HD
ENDBRANCH  12  14
ENDBRANCH   8  12
ENDBRANCH   7   8
ENDBRANCH   1   7
BRANCH   5  16
ATOM     16  N   UNL     1       2.272   3.392  18.457  0.00  0.00    +0.000 N 
BRANCH  16  17
ATOM     17  C   UNL     1       2.764   2.210  17.722  0.00  0.00    +0.000 C 
BRANCH  17  18
ATOM     18  C   UNL     1       3.645   1.289  18.576  0.00  0.00    +0.000 C 
ATOM     19 CL   UNL     1       4.521   2.184  19.850  0.00  0.00    +0.000 Cl
ENDBRANCH  17  18
ENDBRANCH  16  17
BRANCH  16  20
ATOM     20  C   UNL     1       1.000   3.221  19.192  0.00  0.00    +0.000 C 
BRANCH  20  21
ATOM     21  C   UNL     1       1.181   2.869  20.676  0.00  0.00    +0.000 C 
ATOM     22 CL   UNL     1       2.154   4.083  21.550  0.00  0.00    +0.000 Cl
ENDBRANCH  20  21
ENDBRANCH  16  20
ENDBRANCH   5  16
TORSDOF 10
ENDMDL
MODEL 4
REMARK VINA RESULT:      -6.2      0.520      2.805
REMARK  Name = 
REMARK  10 active torsions:
REMARK  status: ('A' for Active; 'I' for Inactive)
REMARK    1  A    between atoms: N_1  and  CA_2
REMARK    2  A    between atoms: CA_2  and  C_3
REMARK    3  A    between atoms: CA_2  and  C_17
REMARK    4  A    between atoms: C_3  and  C_4
REMARK    5  A    between atoms: C_8  and  N_9
REMARK    6  A    between atoms: N_9  and  C_10
REMARK    7  A    between atoms: N_9  and  C_13
REMARK    8  A    between atoms: C_10  and  C_11
REMARK    9  A    between atoms: C_13  and  C_14
REMARK   10  A    between atoms: C_17  and  OXT_19
REMARK                            x       y       z     vdW  Elec       q    Type
REMARK                         _______ _______ _______ _____ _____    ______ ____
ROOT
ATOM      1  C   UNL     1       2.635   4.893  17.986  0.00  0.00    +0.000 A 
ATOM      2  C   UNL     1       2.280   6.139  18.503  0.00  0.00    +0.000 A 
ATOM      3  C   UNL     1       3.063   7.255  18.219  0.00  0.00    +0.000 A 
ATOM      4  C   UNL     1       4.205   7.131  17.418  0.00  0.00    +0.000 A 
ATOM      5  C   UNL     1       4.589   5.903  16.861  0.00  0.00    +0.000 A 
ATOM      6  C   UNL     1       3.782   4.796  17.176  0.00  0.00    +0.000 A 
ENDROOT
BRANCH   1   7
ATOM      7  C   UNL     1       1.822   3.658  18.303  0.00  0.00    +0.000 C 
BRANCH   7   8
ATOM      8  CA  UNL     1       2.498   2.735  19.330  0.00  0.00    +0.000 C 
BRANCH   8   9
ATOM      9  N   UNL     1       2.565   1.301  18.904  0.00  0.00    +0.000 NA
ATOM     10  H1  UNL     1       1.689   0.854  19.200  0.00  0.00    +0.000 HD
ATOM     11  H2  UNL     1       3.279   0.831  19.472  0.00  0.00    +0.000 HD
ENDBRANCH   8   9
BRANCH   8  12
ATOM     12  C   UNL     1       1.745   2.783  20.671  0.00  0.00    +0.000 C 
ATOM     13  O   UNL     1       2.213   2.514  21.766  0.00  0.00    +0.000 OA
BRANCH  12  14
ATOM     14  OXT UNL     1       0.448   3.149  20.482  0.00  0.00    +0.000 OA
ATOM     15  HXT UNL     1       0.362   3.364  19.519  0.00  0.00    +0.000 HD
ENDBRANCH  12  14
ENDBRANCH   8  12
ENDBRANCH   7   8
ENDBRANCH   1   7
BRANCH   5  16
ATOM     16  N   UNL     1       5.699   5.757  16.034  0.00  0.00    +0.000 N 
BRANCH  16  17
ATOM     17  C   UNL     1       5.586   5.266  14.646  0.00  0.00    +0.000 C 
BRANCH  17  18
ATOM     18  C   UNL     1       6.269   3.909  14.426  0.00  0.00    +0.000 C 
ATOM     19 CL   UNL     1       6.209   3.393  12.717  0.00  0.00    +0.000 Cl
ENDBRANCH  17  18
ENDBRANCH  16  17
BRANCH  16  20
ATOM     20  C   UNL     1       7.040   5.664  16.652  0.00  0.00    +0.000 C 
BRANCH  20  21
ATOM     21  C   UNL     1       7.102   4.731  17.869  0.00  0.00    +0.000 C 
ATOM     22 CL   UNL     1       7.141   5.627  19.412  0.00  0.00    +0.000 Cl
ENDBRANCH  20  21
ENDBRANCH  16  20
ENDBRANCH   5  16
TORSDOF 10
ENDMDL
MODEL 5
REMARK VINA RESULT:      -6.2      1.443      3.204
REMARK  Name = 
REMARK  10 active torsions:
REMARK  status: ('A' for Active; 'I' for Inactive)
REMARK    1  A    between atoms: N_1  and  CA_2
REMARK    2  A    between atoms: CA_2  and  C_3
REMARK    3  A    between atoms: CA_2  and  C_17
REMARK    4  A    between atoms: C_3  and  C_4
REMARK    5  A    between atoms: C_8  and  N_9
REMARK    6  A    between atoms: N_9  and  C_10
REMARK    7  A    between atoms: N_9  and  C_13
REMARK    8  A    between atoms: C_10  and  C_11
REMARK    9  A    between atoms: C_13  and  C_14
REMARK   10  A    between atoms: C_17  and  OXT_19
REMARK                            x       y       z     vdW  Elec       q    Type
REMARK                         _______ _______ _______ _____ _____    ______ ____
ROOT
ATOM      1  C   UNL     1       2.658   4.411  17.977  0.00  0.00    +0.000 A 
ATOM      2  C   UNL     1       2.301   5.679  18.435  0.00  0.00    +0.000 A 
ATOM      3  C   UNL     1       3.087   6.780  18.108  0.00  0.00    +0.000 A 
ATOM      4  C   UNL     1       4.235   6.620  17.321  0.00  0.00    +0.000 A 
ATOM      5  C   UNL     1       4.620   5.368  16.821  0.00  0.00    +0.000 A 
ATOM      6  C   UNL     1       3.810   4.277  17.180  0.00  0.00    +0.000 A 
ENDROOT
BRANCH   1   7
ATOM      7  C   UNL     1       1.841   3.193  18.343  0.00  0.00    +0.000 C 
BRANCH   7   8
ATOM      8  CA  UNL     1       2.348   2.480  19.607  0.00  0.00    +0.000 C 
BRANCH   8   9
ATOM      9  N   UNL     1       2.384   3.353  20.823  0.00  0.00    +0.000 NA
ATOM     10  H1  UNL     1       3.013   4.138  20.615  0.00  0.00    +0.000 HD
ATOM     11  H2  UNL     1       2.872   2.845  21.568  0.00  0.00    +0.000 HD
ENDBRANCH   8   9
BRANCH   8  12
ATOM     12  C   UNL     1       3.771   1.940  19.384  0.00  0.00    +0.000 C 
ATOM     13  O   UNL     1       4.777   2.308  19.969  0.00  0.00    +0.000 OA
BRANCH  12  14
ATOM     14  OXT UNL     1       3.779   0.991  18.409  0.00  0.00    +0.000 OA
ATOM     15  HXT UNL     1       4.295   1.377  17.657  0.00  0.00    +0.000 HD
ENDBRANCH  12  14
ENDBRANCH   8  12
ENDBRANCH   7   8
ENDBRANCH   1   7
BRANCH   5  16
ATOM     16  N   UNL     1       5.737   5.184  16.010  0.00  0.00    +0.000 N 
BRANCH  16  17
ATOM     17  C   UNL     1       5.745   4.217  14.893  0.00  0.00    +0.000 C 
BRANCH  17  18
ATOM     18  C   UNL     1       6.825   4.514  13.843  0.00  0.00    +0.000 C 
ATOM     19 CL   UNL     1       6.533   3.644  12.311  0.00  0.00    +0.000 Cl
ENDBRANCH  17  18
ENDBRANCH  16  17
BRANCH  16  20
ATOM     20  C   UNL     1       7.060   5.615  16.509  0.00  0.00    +0.000 C 
BRANCH  20  21
ATOM     21  C   UNL     1       7.562   4.812  17.717  0.00  0.00    +0.000 C 
ATOM     22 CL   UNL     1       7.854   5.841  19.146  0.00  0.00    +0.000 Cl
ENDBRANCH  20  21
ENDBRANCH  16  20
ENDBRANCH   5  16
TORSDOF 10
ENDMDL
MODEL 6
REMARK VINA RESULT:      -6.2      1.390      1.597
REMARK  Name = 
REMARK  10 active torsions:
REMARK  status: ('A' for Active; 'I' for Inactive)
REMARK    1  A    between atoms: N_1  and  CA_2
REMARK    2  A    between atoms: CA_2  and  C_3
REMARK    3  A    between atoms: CA_2  and  C_17
REMARK    4  A    between atoms: C_3  and  C_4
REMARK    5  A    between atoms: C_8  and  N_9
REMARK    6  A    between atoms: N_9  and  C_10
REMARK    7  A    between atoms: N_9  and  C_13
REMARK    8  A    between atoms: C_10  and  C_11
REMARK    9  A    between atoms: C_13  and  C_14
REMARK   10  A    between atoms: C_17  and  OXT_19
REMARK                            x       y       z     vdW  Elec       q    Type
REMARK                         _______ _______ _______ _____ _____    ______ ____
ROOT
ATOM      1  C   UNL     1       2.714   5.147  18.377  0.00  0.00    +0.000 A 
ATOM      2  C   UNL     1       2.415   6.500  18.224  0.00  0.00    +0.000 A 
ATOM      3  C   UNL     1       3.351   7.356  17.649  0.00  0.00    +0.000 A 
ATOM      4  C   UNL     1       4.591   6.862  17.224  0.00  0.00    +0.000 A 
ATOM      5  C   UNL     1       4.927   5.506  17.339  0.00  0.00    +0.000 A 
ATOM      6  C   UNL     1       3.963   4.673  17.934  0.00  0.00    +0.000 A 
ENDROOT
BRANCH   1   7
ATOM      7  C   UNL     1       1.731   4.201  19.028  0.00  0.00    +0.000 C 
BRANCH   7   8
ATOM      8  CA  UNL     1       1.628   4.384  20.551  0.00  0.00    +0.000 C 
BRANCH   8   9
ATOM      9  N   UNL     1       2.496   5.479  21.089  0.00  0.00    +0.000 NA
ATOM     10  H1  UNL     1       3.100   5.063  21.808  0.00  0.00    +0.000 HD
ATOM     11  H2  UNL     1       1.902   6.126  21.620  0.00  0.00    +0.000 HD
ENDBRANCH   8   9
BRANCH   8  12
ATOM     12  C   UNL     1       2.021   3.085  21.275  0.00  0.00    +0.000 C 
ATOM     13  O   UNL     1       1.377   2.527  22.148  0.00  0.00    +0.000 OA
BRANCH  12  14
ATOM     14  OXT UNL     1       3.223   2.630  20.828  0.00  0.00    +0.000 OA
ATOM     15  HXT UNL     1       3.911   3.113  21.352  0.00  0.00    +0.000 HD
ENDBRANCH  12  14
ENDBRANCH   8  12
ENDBRANCH   7   8
ENDBRANCH   1   7
BRANCH   5  16
ATOM     16  N   UNL     1       6.138   4.982  16.896  0.00  0.00    +0.000 N 
BRANCH  16  17
ATOM     17  C   UNL     1       7.247   4.675  17.822  0.00  0.00    +0.000 C 
BRANCH  17  18
ATOM     18  C   UNL     1       7.447   5.745  18.903  0.00  0.00    +0.000 C 
ATOM     19 CL   UNL     1       8.010   7.298  18.222  0.00  0.00    +0.000 Cl
ENDBRANCH  17  18
ENDBRANCH  16  17
BRANCH  16  20
ATOM     20  C   UNL     1       6.501   5.135  15.470  0.00  0.00    +0.000 C 
BRANCH  20  21
ATOM     21  C   UNL     1       5.530   4.444  14.503  0.00  0.00    +0.000 C 
ATOM     22 CL   UNL     1       6.363   3.732  13.094  0.00  0.00    +0.000 Cl
ENDBRANCH  20  21
ENDBRANCH  16  20
ENDBRANCH   5  16
TORSDOF 10
ENDMDL
MODEL 7
REMARK VINA RESULT:      -6.1      3.483      5.875
REMARK  Name = 
REMARK  10 active torsions:
REMARK  status: ('A' for Active; 'I' for Inactive)
REMARK    1  A    between atoms: N_1  and  CA_2
REMARK    2  A    between atoms: CA_2  and  C_3
REMARK    3  A    between atoms: CA_2  and  C_17
REMARK    4  A    between atoms: C_3  and  C_4
REMARK    5  A    between atoms: C_8  and  N_9
REMARK    6  A    between atoms: N_9  and  C_10
REMARK    7  A    between atoms: N_9  and  C_13
REMARK    8  A    between atoms: C_10  and  C_11
REMARK    9  A    between atoms: C_13  and  C_14
REMARK   10  A    between atoms: C_17  and  OXT_19
REMARK                            x       y       z     vdW  Elec       q    Type
REMARK                         _______ _______ _______ _____ _____    ______ ____
ROOT
ATOM      1  C   UNL     1       4.706   5.846  16.771  0.00  0.00    +0.000 A 
ATOM      2  C   UNL     1       4.217   7.094  17.155  0.00  0.00    +0.000 A 
ATOM      3  C   UNL     1       3.087   7.176  17.965  0.00  0.00    +0.000 A 
ATOM      4  C   UNL     1       2.440   6.010  18.394  0.00  0.00    +0.000 A 
ATOM      5  C   UNL     1       2.909   4.734  18.050  0.00  0.00    +0.000 A 
ATOM      6  C   UNL     1       4.045   4.689  17.223  0.00  0.00    +0.000 A 
ENDROOT
BRANCH   1   7
ATOM      7  C   UNL     1       5.912   5.727  15.866  0.00  0.00    +0.000 C 
BRANCH   7   8
ATOM      8  CA  UNL     1       7.230   5.533  16.634  0.00  0.00    +0.000 C 
BRANCH   8   9
ATOM      9  N   UNL     1       7.245   4.323  17.516  0.00  0.00    +0.000 NA
ATOM     10  H1  UNL     1       7.476   4.641  18.465  0.00  0.00    +0.000 HD
ATOM     11  H2  UNL     1       8.052   3.746  17.254  0.00  0.00    +0.000 HD
ENDBRANCH   8   9
BRANCH   8  12
ATOM     12  C   UNL     1       7.517   6.756  17.523  0.00  0.00    +0.000 C 
ATOM     13  O   UNL     1       7.598   7.914  17.146  0.00  0.00    +0.000 OA
BRANCH  12  14
ATOM     14  OXT UNL     1       7.700   6.377  18.817  0.00  0.00    +0.000 OA
ATOM     15  HXT UNL     1       7.345   7.118  19.371  0.00  0.00    +0.000 HD
ENDBRANCH  12  14
ENDBRANCH   8  12
ENDBRANCH   7   8
ENDBRANCH   1   7
BRANCH   5  16
ATOM     16  N   UNL     1       2.307   3.558  18.490  0.00  0.00    +0.000 N 
BRANCH  16  17
ATOM     17  C   UNL     1       2.563   2.256  17.843  0.00  0.00    +0.000 C 
BRANCH  17  18
ATOM     18  C   UNL     1       3.494   1.348  18.658  0.00  0.00    +0.000 C 
ATOM     19 CL   UNL     1       4.490   2.270  19.819  0.00  0.00    +0.000 Cl
ENDBRANCH  17  18
ENDBRANCH  16  17
BRANCH  16  20
ATOM     20  C   UNL     1       1.080   3.650  19.311  0.00  0.00    +0.000 C 
BRANCH  20  21
ATOM     21  C   UNL     1       1.342   3.972  20.789  0.00  0.00    +0.000 C 
ATOM     22 CL   UNL     1       1.569   2.503  21.776  0.00  0.00    +0.000 Cl
ENDBRANCH  20  21
ENDBRANCH  16  20
ENDBRANCH   5  16
TORSDOF 10
ENDMDL
MODEL 8
REMARK VINA RESULT:      -6.1      1.677      1.829
REMARK  Name = 
REMARK  10 active torsions:
REMARK  status: ('A' for Active; 'I' for Inactive)
REMARK    1  A    between atoms: N_1  and  CA_2
REMARK    2  A    between atoms: CA_2  and  C_3
REMARK    3  A    between atoms: CA_2  and  C_17
REMARK    4  A    between atoms: C_3  and  C_4
REMARK    5  A    between atoms: C_8  and  N_9
REMARK    6  A    between atoms: N_9  and  C_10
REMARK    7  A    between atoms: N_9  and  C_13
REMARK    8  A    between atoms: C_10  and  C_11
REMARK    9  A    between atoms: C_13  and  C_14
REMARK   10  A    between atoms: C_17  and  OXT_19
REMARK                            x       y       z     vdW  Elec       q    Type
REMARK                         _______ _______ _______ _____ _____    ______ ____
ROOT
ATOM      1  C   UNL     1       2.915   5.946  19.301  0.00  0.00    +0.000 A 
ATOM      2  C   UNL     1       2.353   7.082  18.720  0.00  0.00    +0.000 A 
ATOM      3  C   UNL     1       3.038   7.756  17.713  0.00  0.00    +0.000 A 
ATOM      4  C   UNL     1       4.290   7.298  17.281  0.00  0.00    +0.000 A 
ATOM      5  C   UNL     1       4.884   6.148  17.822  0.00  0.00    +0.000 A 
ATOM      6  C   UNL     1       4.169   5.499  18.844  0.00  0.00    +0.000 A 
ENDROOT
BRANCH   1   7
ATOM      7  C   UNL     1       2.209   5.212  20.418  0.00  0.00    +0.000 C 
BRANCH   7   8
ATOM      8  CA  UNL     1       1.904   3.743  20.081  0.00  0.00    +0.000 C 
BRANCH   8   9
ATOM      9  N   UNL     1       0.466   3.366  20.260  0.00  0.00    +0.000 NA
ATOM     10  H1  UNL     1       0.226   2.712  19.505  0.00  0.00    +0.000 HD
ATOM     11  H2  UNL     1      -0.109   4.190  20.056  0.00  0.00    +0.000 HD
ENDBRANCH   8   9
BRANCH   8  12
ATOM     12  C   UNL     1       2.741   2.805  20.968  0.00  0.00    +0.000 C 
ATOM     13  O   UNL     1       3.835   2.341  20.689  0.00  0.00    +0.000 OA
BRANCH  12  14
ATOM     14  OXT UNL     1       2.085   2.526  22.127  0.00  0.00    +0.000 OA
ATOM     15  HXT UNL     1       2.749   2.090  22.719  0.00  0.00    +0.000 HD
ENDBRANCH  12  14
ENDBRANCH   8  12
ENDBRANCH   7   8
ENDBRANCH   1   7
BRANCH   5  16
ATOM     16  N   UNL     1       6.110   5.651  17.390  0.00  0.00    +0.000 N 
BRANCH  16  17
ATOM     17  C   UNL     1       7.232   6.538  17.022  0.00  0.00    +0.000 C 
BRANCH  17  18
ATOM     18  C   UNL     1       7.932   7.165  18.236  0.00  0.00    +0.000 C 
ATOM     19 CL   UNL     1       8.218   8.915  18.021  0.00  0.00    +0.000 Cl
ENDBRANCH  17  18
ENDBRANCH  16  17
BRANCH  16  20
ATOM     20  C   UNL     1       6.176   4.267  16.872  0.00  0.00    +0.000 C 
BRANCH  20  21
ATOM     21  C   UNL     1       5.358   4.041  15.593  0.00  0.00    +0.000 C 
ATOM     22 CL   UNL     1       6.300   4.375  14.114  0.00  0.00    +0.000 Cl
ENDBRANCH  20  21
ENDBRANCH  16  20
ENDBRANCH   5  16
TORSDOF 10
ENDMDL
MODEL 9
REMARK VINA RESULT:      -6.1      1.526      3.181
REMARK  Name = 
REMARK  10 active torsions:
REMARK  status: ('A' for Active; 'I' for Inactive)
REMARK    1  A    between atoms: N_1  and  CA_2
REMARK    2  A    between atoms: CA_2  and  C_3
REMARK    3  A    between atoms: CA_2  and  C_17
REMARK    4  A    between atoms: C_3  and  C_4
REMARK    5  A    between atoms: C_8  and  N_9
REMARK    6  A    between atoms: N_9  and  C_10
REMARK    7  A    between atoms: N_9  and  C_13
REMARK    8  A    between atoms: C_10  and  C_11
REMARK    9  A    between atoms: C_13  and  C_14
REMARK   10  A    between atoms: C_17  and  OXT_19
REMARK                            x       y       z     vdW  Elec       q    Type
REMARK                         _______ _______ _______ _____ _____    ______ ____
ROOT
ATOM      1  C   UNL     1       3.534   4.237  19.277  0.00  0.00    +0.000 A 
ATOM      2  C   UNL     1       2.705   5.283  18.873  0.00  0.00    +0.000 A 
ATOM      3  C   UNL     1       3.186   6.245  17.989  0.00  0.00    +0.000 A 
ATOM      4  C   UNL     1       4.499   6.168  17.506  0.00  0.00    +0.000 A 
ATOM      5  C   UNL     1       5.361   5.123  17.869  0.00  0.00    +0.000 A 
ATOM      6  C   UNL     1       4.846   4.175  18.771  0.00  0.00    +0.000 A 
ENDROOT
BRANCH   1   7
ATOM      7  C   UNL     1       3.050   3.196  20.260  0.00  0.00    +0.000 C 
BRANCH   7   8
ATOM      8  CA  UNL     1       2.286   2.040  19.593  0.00  0.00    +0.000 C 
BRANCH   8   9
ATOM      9  N   UNL     1       2.863   1.611  18.279  0.00  0.00    +0.000 NA
ATOM     10  H1  UNL     1       3.852   1.888  18.276  0.00  0.00    +0.000 HD
ATOM     11  H2  UNL     1       2.449   2.194  17.543  0.00  0.00    +0.000 HD
ENDBRANCH   8   9
BRANCH   8  12
ATOM     12  C   UNL     1       0.821   2.437  19.347  0.00  0.00    +0.000 C 
ATOM     13  O   UNL     1       0.160   2.164  18.358  0.00  0.00    +0.000 OA
BRANCH  12  14
ATOM     14  OXT UNL     1       0.340   3.174  20.385  0.00  0.00    +0.000 OA
ATOM     15  HXT UNL     1      -0.120   3.951  19.979  0.00  0.00    +0.000 HD
ENDBRANCH  12  14
ENDBRANCH   8  12
ENDBRANCH   7   8
ENDBRANCH   1   7
BRANCH   5  16
ATOM     16  N   UNL     1       6.658   5.002  17.379  0.00  0.00    +0.000 N 
BRANCH  16  17
ATOM     17  C   UNL     1       6.960   4.282  16.126  0.00  0.00    +0.000 C 
BRANCH  17  18
ATOM     18  C   UNL     1       6.490   5.030  14.870  0.00  0.00    +0.000 C 
ATOM     19 CL   UNL     1       5.898   3.918  13.604  0.00  0.00    +0.000 Cl
ENDBRANCH  17  18
ENDBRANCH  16  17
BRANCH  16  20
ATOM     20  C   UNL     1       7.792   5.198  18.309  0.00  0.00    +0.000 C 
BRANCH  20  21
ATOM     21  C   UNL     1       7.985   6.654  18.757  0.00  0.00    +0.000 C 
ATOM     22 CL   UNL     1       7.755   7.814  17.420  0.00  0.00    +0.000 Cl
ENDBRANCH  20  21
ENDBRANCH  16  20
ENDBRANCH   5  16
TORSDOF 10
ENDMDL
