MODEL 1
REMARK VINA RESULT:      -6.9      0.000      0.000
REMARK  Name = 
REMARK  9 active torsions:
REMARK  status: ('A' for Active; 'I' for Inactive)
REMARK    1  A    between atoms: C_1  and  C_2
REMARK    2  A    between atoms: C_2  and  C_3
REMARK    3  A    between atoms: C_2  and  O_4
REMARK    4  A    between atoms: O_4  and  C_5
REMARK    5  A    between atoms: C_5  and  C_7
REMARK    6  A    between atoms: C_7  and  S_8
REMARK    7  A    between atoms: S_8  and  C_9
REMARK    8  A    between atoms: C_12  and  C_13
REMARK    9  A    between atoms: N_19  and  N_20
REMARK                            x       y       z     vdW  Elec       q    Type
REMARK                         _______ _______ _______ _____ _____    ______ ____
ROOT
ATOM      1  C   UNL     1       5.490   5.776  17.359  0.00  0.00    +0.000 A 
ATOM      2  N   UNL     1       4.544   6.634  17.074  0.00  0.00    +0.000 NA
ATOM      3  N   UNL     1       3.396   6.209  17.712  0.00  0.00    +0.000 NA
ATOM      4  C   UNL     1       3.673   5.117  18.414  0.00  0.00    +0.000 A 
ATOM      5  N   UNL     1       4.995   4.782  18.168  0.00  0.00    +0.000 N 
ENDROOT
BRANCH   4   6
ATOM      6  C   UNL     1       2.739   4.376  19.269  0.00  0.00    +0.000 A 
ATOM      7  C   UNL     1       1.738   3.581  18.693  0.00  0.00    +0.000 A 
ATOM      8  C   UNL     1       0.837   2.871  19.496  0.00  0.00    +0.000 A 
ATOM      9  C   UNL     1       0.923   2.950  20.884  0.00  0.00    +0.000 A 
ATOM     10  C   UNL     1       1.903   3.744  21.471  0.00  0.00    +0.000 A 
ATOM     11  C   UNL     1       2.795   4.460  20.669  0.00  0.00    +0.000 A 
ENDBRANCH   4   6
BRANCH   5  12
ATOM     12  N   UNL     1       5.709   3.607  18.623  0.00  0.00    +0.000 N 
ATOM     13  H   UNL     1       5.198   2.759  18.385  0.00  0.00    +0.000 HD
ATOM     14  H   UNL     1       6.602   3.534  18.132  0.00  0.00    +0.000 HD
ENDBRANCH   5  12
BRANCH   1  15
ATOM     15  S   UNL     1       7.121   5.763  16.793  0.00  0.00    +0.000 S 
BRANCH  15  16
ATOM     16  C   UNL     1       6.909   5.485  15.006  0.00  0.00    +0.000 C 
BRANCH  16  17
ATOM     17  C   UNL     1       6.149   4.189  14.788  0.00  0.00    +0.000 C 
ATOM     18  O   UNL     1       6.186   3.213  15.532  0.00  0.00    +0.000 OA
BRANCH  17  19
ATOM     19  O   UNL     1       5.370   4.263  13.665  0.00  0.00    +0.000 OA
BRANCH  19  21
ATOM     20  C   UNL     1       4.569   3.220  11.621  0.00  0.00    +0.000 C 
ATOM     21  C   UNL     1       5.721   3.337  12.614  0.00  0.00    +0.000 C 
ATOM     22  C   UNL     1       6.973   3.857  11.915  0.00  0.00    +0.000 C 
ENDBRANCH  19  21
ENDBRANCH  17  19
ENDBRANCH  16  17
ENDBRANCH  15  16
ENDBRANCH   1  15
TORSDOF 7
ENDMDL
MODEL 2
REMARK VINA RESULT:      -6.8      0.785      1.586
REMARK  Name = 
REMARK  9 active torsions:
REMARK  status: ('A' for Active; 'I' for Inactive)
REMARK    1  A    between atoms: C_1  and  C_2
REMARK    2  A    between atoms: C_2  and  C_3
REMARK    3  A    between atoms: C_2  and  O_4
REMARK    4  A    between atoms: O_4  and  C_5
REMARK    5  A    between atoms: C_5  and  C_7
REMARK    6  A    between atoms: C_7  and  S_8
REMARK    7  A    between atoms: S_8  and  C_9
REMARK    8  A    between atoms: C_12  and  C_13
REMARK    9  A    between atoms: N_19  and  N_20
REMARK                            x       y       z     vdW  Elec       q    Type
REMARK                         _______ _______ _______ _____ _____    ______ ____
ROOT
ATOM      1  C   UNL     1       5.379   5.884  17.332  0.00  0.00    +0.000 A 
ATOM      2  N   UNL     1       4.406   6.722  17.078  0.00  0.00    +0.000 NA
ATOM      3  N   UNL     1       3.281   6.258  17.731  0.00  0.00    +0.000 NA
ATOM      4  C   UNL     1       3.599   5.163  18.411  0.00  0.00    +0.000 A 
ATOM      5  N   UNL     1       4.924   4.865  18.134  0.00  0.00    +0.000 N 
ENDROOT
BRANCH   4   6
ATOM      6  C   UNL     1       2.701   4.386  19.272  0.00  0.00    +0.000 A 
ATOM      7  C   UNL     1       2.846   4.435  20.666  0.00  0.00    +0.000 A 
ATOM      8  C   UNL     1       2.000   3.695  21.500  0.00  0.00    +0.000 A 
ATOM      9  C   UNL     1       1.000   2.894  20.952  0.00  0.00    +0.000 A 
ATOM     10  C   UNL     1       0.851   2.825  19.571  0.00  0.00    +0.000 A 
ATOM     11  C   UNL     1       1.703   3.555  18.738  0.00  0.00    +0.000 A 
ENDBRANCH   4   6
BRANCH   5  12
ATOM     12  N   UNL     1       5.676   3.702  18.557  0.00  0.00    +0.000 N 
ATOM     13  H   UNL     1       6.646   3.948  18.747  0.00  0.00    +0.000 HD
ATOM     14  H   UNL     1       5.305   3.353  19.443  0.00  0.00    +0.000 HD
ENDBRANCH   5  12
BRANCH   1  15
ATOM     15  S   UNL     1       6.998   5.921  16.735  0.00  0.00    +0.000 S 
BRANCH  15  16
ATOM     16  C   UNL     1       7.116   4.343  15.836  0.00  0.00    +0.000 C 
BRANCH  16  17
ATOM     17  C   UNL     1       6.978   4.603  14.346  0.00  0.00    +0.000 C 
ATOM     18  O   UNL     1       7.534   5.508  13.732  0.00  0.00    +0.000 OA
BRANCH  17  19
ATOM     19  O   UNL     1       6.181   3.659  13.758  0.00  0.00    +0.000 OA
BRANCH  19  21
ATOM     20  C   UNL     1       7.096   2.760  11.693  0.00  0.00    +0.000 C 
ATOM     21  C   UNL     1       6.103   3.735  12.317  0.00  0.00    +0.000 C 
ATOM     22  C   UNL     1       4.679   3.386  11.895  0.00  0.00    +0.000 C 
ENDBRANCH  19  21
ENDBRANCH  17  19
ENDBRANCH  16  17
ENDBRANCH  15  16
ENDBRANCH   1  15
TORSDOF 7
ENDMDL
MODEL 3
REMARK VINA RESULT:      -6.5      3.641      5.144
REMARK  Name = 
REMARK  9 active torsions:
REMARK  status: ('A' for Active; 'I' for Inactive)
REMARK    1  A    between atoms: C_1  and  C_2
REMARK    2  A    between atoms: C_2  and  C_3
REMARK    3  A    between atoms: C_2  and  O_4
REMARK    4  A    between atoms: O_4  and  C_5
REMARK    5  A    between atoms: C_5  and  C_7
REMARK    6  A    between atoms: C_7  and  S_8
REMARK    7  A    between atoms: S_8  and  C_9
REMARK    8  A    between atoms: C_12  and  C_13
REMARK    9  A    between atoms: N_19  and  N_20
REMARK                            x       y       z     vdW  Elec       q    Type
REMARK                         _______ _______ _______ _____ _____    ______ ____
ROOT
ATOM      1  C   UNL     1       5.601   6.141  17.550  0.00  0.00    +0.000 A 
ATOM      2  N   UNL     1       4.635   6.971  17.247  0.00  0.00    +0.000 NA
ATOM      3  N   UNL     1       3.469   6.459  17.778  0.00  0.00    +0.000 NA
ATOM      4  C   UNL     1       3.750   5.341  18.435  0.00  0.00    +0.000 A 
ATOM      5  N   UNL     1       5.100   5.080  18.264  0.00  0.00    +0.000 N 
ENDROOT
BRANCH   4   6
ATOM      6  C   UNL     1       2.798   4.509  19.180  0.00  0.00    +0.000 A 
ATOM      7  C   UNL     1       1.945   3.632  18.495  0.00  0.00    +0.000 A 
ATOM      8  C   UNL     1       1.027   2.836  19.191  0.00  0.00    +0.000 A 
ATOM      9  C   UNL     1       0.949   2.909  20.580  0.00  0.00    +0.000 A 
ATOM     10  C   UNL     1       1.780   3.782  21.274  0.00  0.00    +0.000 A 
ATOM     11  C   UNL     1       2.687   4.584  20.577  0.00  0.00    +0.000 A 
ENDBRANCH   4   6
BRANCH   5  12
ATOM     12  N   UNL     1       5.838   3.913  18.701  0.00  0.00    +0.000 N 
ATOM     13  H   UNL     1       5.473   3.564  19.586  0.00  0.00    +0.000 HD
ATOM     14  H   UNL     1       5.707   3.150  18.034  0.00  0.00    +0.000 HD
ENDBRANCH   5  12
BRANCH   1  15
ATOM     15  S   UNL     1       7.265   6.234  17.099  0.00  0.00    +0.000 S 
BRANCH  15  16
ATOM     16  C   UNL     1       8.006   7.086  18.527  0.00  0.00    +0.000 C 
BRANCH  16  17
ATOM     17  C   UNL     1       8.156   8.563  18.206  0.00  0.00    +0.000 C 
ATOM     18  O   UNL     1       7.439   9.197  17.438  0.00  0.00    +0.000 OA
BRANCH  17  19
ATOM     19  O   UNL     1       9.178   9.117  18.928  0.00  0.00    +0.000 OA
BRANCH  19  21
ATOM     20  C   UNL     1       9.343  10.945  20.523  0.00  0.00    +0.000 C 
ATOM     21  C   UNL     1       9.121  10.554  19.064  0.00  0.00    +0.000 C 
ATOM     22  C   UNL     1      10.207  11.162  18.182  0.00  0.00    +0.000 C 
ENDBRANCH  19  21
ENDBRANCH  17  19
ENDBRANCH  16  17
ENDBRANCH  15  16
ENDBRANCH   1  15
TORSDOF 7
ENDMDL
MODEL 4
REMARK VINA RESULT:      -6.5      2.147      6.889
REMARK  Name = 
REMARK  9 active torsions:
REMARK  status: ('A' for Active; 'I' for Inactive)
REMARK    1  A    between atoms: C_1  and  C_2
REMARK    2  A    between atoms: C_2  and  C_3
REMARK    3  A    between atoms: C_2  and  O_4
REMARK    4  A    between atoms: O_4  and  C_5
REMARK    5  A    between atoms: C_5  and  C_7
REMARK    6  A    between atoms: C_7  and  S_8
REMARK    7  A    between atoms: S_8  and  C_9
REMARK    8  A    between atoms: C_12  and  C_13
REMARK    9  A    between atoms: N_19  and  N_20
REMARK                            x       y       z     vdW  Elec       q    Type
REMARK                         _______ _______ _______ _____ _____    ______ ____
ROOT
ATOM      1  C   UNL     1       6.383   5.424  17.817  0.00  0.00    +0.000 A 
ATOM      2  N   UNL     1       7.129   6.446  17.485  0.00  0.00    +0.000 NA
ATOM      3  N   UNL     1       7.421   6.325  16.141  0.00  0.00    +0.000 NA
ATOM      4  C   UNL     1       6.810   5.248  15.664  0.00  0.00    +0.000 A 
ATOM      5  N   UNL     1       6.179   4.617  16.724  0.00  0.00    +0.000 N 
ENDROOT
BRANCH   4   6
ATOM      6  C   UNL     1       6.828   4.786  14.271  0.00  0.00    +0.000 A 
ATOM      7  C   UNL     1       5.934   3.792  13.848  0.00  0.00    +0.000 A 
ATOM      8  C   UNL     1       5.942   3.337  12.524  0.00  0.00    +0.000 A 
ATOM      9  C   UNL     1       6.847   3.868  11.607  0.00  0.00    +0.000 A 
ATOM     10  C   UNL     1       7.749   4.846  12.014  0.00  0.00    +0.000 A 
ATOM     11  C   UNL     1       7.747   5.291  13.338  0.00  0.00    +0.000 A 
ENDBRANCH   4   6
BRANCH   5  12
ATOM     12  N   UNL     1       5.482   3.347  16.710  0.00  0.00    +0.000 N 
ATOM     13  H   UNL     1       6.125   2.580  16.899  0.00  0.00    +0.000 HD
ATOM     14  H   UNL     1       4.796   3.320  17.466  0.00  0.00    +0.000 HD
ENDBRANCH   5  12
BRANCH   1  15
ATOM     15  S   UNL     1       5.767   5.018  19.378  0.00  0.00    +0.000 S 
BRANCH  15  16
ATOM     16  C   UNL     1       4.042   5.591  19.274  0.00  0.00    +0.000 C 
BRANCH  16  17
ATOM     17  C   UNL     1       3.170   4.464  18.750  0.00  0.00    +0.000 C 
ATOM     18  O   UNL     1       2.688   4.409  17.622  0.00  0.00    +0.000 OA
BRANCH  17  19
ATOM     19  O   UNL     1       3.027   3.480  19.689  0.00  0.00    +0.000 OA
BRANCH  19  21
ATOM     20  C   UNL     1       0.804   4.194  20.367  0.00  0.00    +0.000 C 
ATOM     21  C   UNL     1       2.214   3.835  20.829  0.00  0.00    +0.000 C 
ATOM     22  C   UNL     1       2.173   2.643  21.779  0.00  0.00    +0.000 C 
ENDBRANCH  19  21
ENDBRANCH  17  19
ENDBRANCH  16  17
ENDBRANCH  15  16
ENDBRANCH   1  15
TORSDOF 7
ENDMDL
MODEL 5
REMARK VINA RESULT:      -6.5      2.316      6.810
REMARK  Name = 
REMARK  9 active torsions:
REMARK  status: ('A' for Active; 'I' for Inactive)
REMARK    1  A    between atoms: C_1  and  C_2
REMARK    2  A    between atoms: C_2  and  C_3
REMARK    3  A    between atoms: C_2  and  O_4
REMARK    4  A    between atoms: O_4  and  C_5
REMARK    5  A    between atoms: C_5  and  C_7
REMARK    6  A    between atoms: C_7  and  S_8
REMARK    7  A    between atoms: S_8  and  C_9
REMARK    8  A    between atoms: C_12  and  C_13
REMARK    9  A    between atoms: N_19  and  N_20
REMARK                            x       y       z     vdW  Elec       q    Type
REMARK                         _______ _______ _______ _____ _____    ______ ____
ROOT
ATOM      1  C   UNL     1       6.759   5.512  17.542  0.00  0.00    +0.000 A 
ATOM      2  N   UNL     1       7.489   6.446  16.986  0.00  0.00    +0.000 NA
ATOM      3  N   UNL     1       7.528   6.185  15.631  0.00  0.00    +0.000 NA
ATOM      4  C   UNL     1       6.783   5.116  15.376  0.00  0.00    +0.000 A 
ATOM      5  N   UNL     1       6.318   4.628  16.587  0.00  0.00    +0.000 N 
ENDROOT
BRANCH   4   6
ATOM      6  C   UNL     1       6.527   4.532  14.055  0.00  0.00    +0.000 A 
ATOM      7  C   UNL     1       7.497   4.622  13.046  0.00  0.00    +0.000 A 
ATOM      8  C   UNL     1       7.265   4.074  11.779  0.00  0.00    +0.000 A 
ATOM      9  C   UNL     1       6.059   3.432  11.503  0.00  0.00    +0.000 A 
ATOM     10  C   UNL     1       5.082   3.345  12.489  0.00  0.00    +0.000 A 
ATOM     11  C   UNL     1       5.310   3.901  13.750  0.00  0.00    +0.000 A 
ENDBRANCH   4   6
BRANCH   5  12
ATOM     12  N   UNL     1       5.563   3.416  16.821  0.00  0.00    +0.000 N 
ATOM     13  H   UNL     1       5.925   2.914  17.630  0.00  0.00    +0.000 HD
ATOM     14  H   UNL     1       4.596   3.650  17.056  0.00  0.00    +0.000 HD
ENDBRANCH   5  12
BRANCH   1  15
ATOM     15  S   UNL     1       6.411   5.292  19.219  0.00  0.00    +0.000 S 
BRANCH  15  16
ATOM     16  C   UNL     1       4.591   5.309  19.243  0.00  0.00    +0.000 C 
BRANCH  16  17
ATOM     17  C   UNL     1       4.083   3.960  19.719  0.00  0.00    +0.000 C 
ATOM     18  O   UNL     1       4.737   2.921  19.728  0.00  0.00    +0.000 OA
BRANCH  17  19
ATOM     19  O   UNL     1       2.801   4.059  20.187  0.00  0.00    +0.000 OA
BRANCH  19  21
ATOM     20  C   UNL     1       1.465   2.626  21.627  0.00  0.00    +0.000 C 
ATOM     21  C   UNL     1       2.070   2.814  20.239  0.00  0.00    +0.000 C 
ATOM     22  C   UNL     1       0.971   2.860  19.183  0.00  0.00    +0.000 C 
ENDBRANCH  19  21
ENDBRANCH  17  19
ENDBRANCH  16  17
ENDBRANCH  15  16
ENDBRANCH   1  15
TORSDOF 7
ENDMDL
MODEL 6
REMARK VINA RESULT:      -6.5      1.412      1.852
REMARK  Name = 
REMARK  9 active torsions:
REMARK  status: ('A' for Active; 'I' for Inactive)
REMARK    1  A    between atoms: C_1  and  C_2
REMARK    2  A    between atoms: C_2  and  C_3
REMARK    3  A    between atoms: C_2  and  O_4
REMARK    4  A    between atoms: O_4  and  C_5
REMARK    5  A    between atoms: C_5  and  C_7
REMARK    6  A    between atoms: C_7  and  S_8
REMARK    7  A    between atoms: S_8  and  C_9
REMARK    8  A    between atoms: C_12  and  C_13
REMARK    9  A    between atoms: N_19  and  N_20
REMARK                            x       y       z     vdW  Elec       q    Type
REMARK                         _______ _______ _______ _____ _____    ______ ____
ROOT
ATOM      1  C   UNL     1       6.039   4.772  17.614  0.00  0.00    +0.000 A 
ATOM      2  N   UNL     1       6.150   5.748  18.479  0.00  0.00    +0.000 NA
ATOM      3  N   UNL     1       5.139   5.594  19.407  0.00  0.00    +0.000 NA
ATOM      4  C   UNL     1       4.451   4.497  19.115  0.00  0.00    +0.000 A 
ATOM      5  N   UNL     1       4.969   3.975  17.940  0.00  0.00    +0.000 N 
ENDROOT
BRANCH   4   6
ATOM      6  C   UNL     1       3.322   3.953  19.877  0.00  0.00    +0.000 A 
ATOM      7  C   UNL     1       3.519   2.880  20.758  0.00  0.00    +0.000 A 
ATOM      8  C   UNL     1       2.451   2.347  21.488  0.00  0.00    +0.000 A 
ATOM      9  C   UNL     1       1.171   2.877  21.345  0.00  0.00    +0.000 A 
ATOM     10  C   UNL     1       0.955   3.934  20.466  0.00  0.00    +0.000 A 
ATOM     11  C   UNL     1       2.020   4.458  19.730  0.00  0.00    +0.000 A 
ENDBRANCH   4   6
BRANCH   5  12
ATOM     12  N   UNL     1       4.470   2.851  17.176  0.00  0.00    +0.000 N 
ATOM     13  H   UNL     1       3.452   2.835  17.179  0.00  0.00    +0.000 HD
ATOM     14  H   UNL     1       4.738   2.952  16.195  0.00  0.00    +0.000 HD
ENDBRANCH   5  12
BRANCH   1  15
ATOM     15  S   UNL     1       6.991   4.489  16.202  0.00  0.00    +0.000 S 
BRANCH  15  16
ATOM     16  C   UNL     1       5.894   5.073  14.872  0.00  0.00    +0.000 C 
BRANCH  16  17
ATOM     17  C   UNL     1       6.289   4.404  13.567  0.00  0.00    +0.000 C 
ATOM     18  O   UNL     1       7.363   4.553  12.992  0.00  0.00    +0.000 OA
BRANCH  17  19
ATOM     19  O   UNL     1       5.301   3.564  13.131  0.00  0.00    +0.000 OA
BRANCH  19  21
ATOM     20  C   UNL     1       5.898   1.776  11.596  0.00  0.00    +0.000 C 
ATOM     21  C   UNL     1       5.375   3.203  11.734  0.00  0.00    +0.000 C 
ATOM     22  C   UNL     1       3.978   3.316  11.134  0.00  0.00    +0.000 C 
ENDBRANCH  19  21
ENDBRANCH  17  19
ENDBRANCH  16  17
ENDBRANCH  15  16
ENDBRANCH   1  15
TORSDOF 7
ENDMDL
MODEL 7
REMARK VINA RESULT:      -6.4      2.773      7.187
REMARK  Name = 
REMARK  9 active torsions:
REMARK  status: ('A' for Active; 'I' for Inactive)
REMARK    1  A    between atoms: C_1  and  C_2
REMARK    2  A    between atoms: C_2  and  C_3
REMARK    3  A    between atoms: C_2  and  O_4
REMARK    4  A    between atoms: O_4  and  C_5
REMARK    5  A    between atoms: C_5  and  C_7
REMARK    6  A    between atoms: C_7  and  S_8
REMARK    7  A    between atoms: S_8  and  C_9
REMARK    8  A    between atoms: C_12  and  C_13
REMARK    9  A    between atoms: N_19  and  N_20
REMARK                            x       y       z     vdW  Elec       q    Type
REMARK                         _______ _______ _______ _____ _____    ______ ____
ROOT
ATOM      1  C   UNL     1       5.955   4.369  18.117  0.00  0.00    +0.000 A 
ATOM      2  N   UNL     1       7.247   4.559  18.210  0.00  0.00    +0.000 NA
ATOM      3  N   UNL     1       7.755   4.570  16.926  0.00  0.00    +0.000 NA
ATOM      4  C   UNL     1       6.755   4.429  16.066  0.00  0.00    +0.000 A 
ATOM      5  N   UNL     1       5.593   4.244  16.797  0.00  0.00    +0.000 N 
ENDROOT
BRANCH   4   6
ATOM      6  C   UNL     1       6.863   4.431  14.603  0.00  0.00    +0.000 A 
ATOM      7  C   UNL     1       7.727   5.331  13.962  0.00  0.00    +0.000 A 
ATOM      8  C   UNL     1       7.837   5.349  12.567  0.00  0.00    +0.000 A 
ATOM      9  C   UNL     1       7.083   4.468  11.794  0.00  0.00    +0.000 A 
ATOM     10  C   UNL     1       6.213   3.576  12.412  0.00  0.00    +0.000 A 
ATOM     11  C   UNL     1       6.095   3.567  13.804  0.00  0.00    +0.000 A 
ENDBRANCH   4   6
BRANCH   5  12
ATOM     12  N   UNL     1       4.270   3.936  16.294  0.00  0.00    +0.000 N 
ATOM     13  H   UNL     1       4.307   3.170  15.624  0.00  0.00    +0.000 HD
ATOM     14  H   UNL     1       3.678   3.602  17.057  0.00  0.00    +0.000 HD
ENDBRANCH   5  12
BRANCH   1  15
ATOM     15  S   UNL     1       4.809   4.206  19.397  0.00  0.00    +0.000 S 
BRANCH  15  16
ATOM     16  C   UNL     1       3.894   5.777  19.301  0.00  0.00    +0.000 C 
BRANCH  16  17
ATOM     17  C   UNL     1       2.641   5.680  20.153  0.00  0.00    +0.000 C 
ATOM     18  O   UNL     1       1.770   6.542  20.230  0.00  0.00    +0.000 OA
BRANCH  17  19
ATOM     19  O   UNL     1       2.581   4.475  20.797  0.00  0.00    +0.000 OA
BRANCH  19  21
ATOM     20  C   UNL     1       1.061   3.285  19.318  0.00  0.00    +0.000 C 
ATOM     21  C   UNL     1       1.300   3.808  20.731  0.00  0.00    +0.000 C 
ATOM     22  C   UNL     1       1.308   2.656  21.729  0.00  0.00    +0.000 C 
ENDBRANCH  19  21
ENDBRANCH  17  19
ENDBRANCH  16  17
ENDBRANCH  15  16
ENDBRANCH   1  15
TORSDOF 7
ENDMDL
MODEL 8
REMARK VINA RESULT:      -6.3      2.804      7.173
REMARK  Name = 
REMARK  9 active torsions:
REMARK  status: ('A' for Active; 'I' for Inactive)
REMARK    1  A    between atoms: C_1  and  C_2
REMARK    2  A    between atoms: C_2  and  C_3
REMARK    3  A    between atoms: C_2  and  O_4
REMARK    4  A    between atoms: O_4  and  C_5
REMARK    5  A    between atoms: C_5  and  C_7
REMARK    6  A    between atoms: C_7  and  S_8
REMARK    7  A    between atoms: S_8  and  C_9
REMARK    8  A    between atoms: C_12  and  C_13
REMARK    9  A    between atoms: N_19  and  N_20
REMARK                            x       y       z     vdW  Elec       q    Type
REMARK                         _______ _______ _______ _____ _____    ______ ____
ROOT
ATOM      1  C   UNL     1       4.397   5.230  17.446  0.00  0.00    +0.000 A 
ATOM      2  N   UNL     1       4.483   3.930  17.565  0.00  0.00    +0.000 NA
ATOM      3  N   UNL     1       5.078   3.449  16.416  0.00  0.00    +0.000 NA
ATOM      4  C   UNL     1       5.385   4.473  15.629  0.00  0.00    +0.000 A 
ATOM      5  N   UNL     1       4.914   5.626  16.236  0.00  0.00    +0.000 N 
ENDROOT
BRANCH   4   6
ATOM      6  C   UNL     1       6.067   4.397  14.333  0.00  0.00    +0.000 A 
ATOM      7  C   UNL     1       5.561   3.571  13.319  0.00  0.00    +0.000 A 
ATOM      8  C   UNL     1       6.204   3.484  12.079  0.00  0.00    +0.000 A 
ATOM      9  C   UNL     1       7.363   4.219  11.837  0.00  0.00    +0.000 A 
ATOM     10  C   UNL     1       7.884   5.034  12.836  0.00  0.00    +0.000 A 
ATOM     11  C   UNL     1       7.248   5.112  14.077  0.00  0.00    +0.000 A 
ENDBRANCH   4   6
BRANCH   5  12
ATOM     12  N   UNL     1       4.916   6.972  15.701  0.00  0.00    +0.000 N 
ATOM     13  H   UNL     1       4.997   7.659  16.448  0.00  0.00    +0.000 HD
ATOM     14  H   UNL     1       5.740   7.110  15.114  0.00  0.00    +0.000 HD
ENDBRANCH   5  12
BRANCH   1  15
ATOM     15  S   UNL     1       3.688   6.355  18.547  0.00  0.00    +0.000 S 
BRANCH  15  16
ATOM     16  C   UNL     1       3.232   5.288  19.950  0.00  0.00    +0.000 C 
BRANCH  16  17
ATOM     17  C   UNL     1       1.847   5.671  20.442  0.00  0.00    +0.000 C 
ATOM     18  O   UNL     1       1.527   6.779  20.864  0.00  0.00    +0.000 OA
BRANCH  17  19
ATOM     19  O   UNL     1       0.976   4.625  20.309  0.00  0.00    +0.000 OA
BRANCH  19  21
ATOM     20  C   UNL     1       1.488   2.619  21.584  0.00  0.00    +0.000 C 
ATOM     21  C   UNL     1       1.593   3.320  20.233  0.00  0.00    +0.000 C 
ATOM     22  C   UNL     1       0.874   2.512  19.159  0.00  0.00    +0.000 C 
ENDBRANCH  19  21
ENDBRANCH  17  19
ENDBRANCH  16  17
ENDBRANCH  15  16
ENDBRANCH   1  15
TORSDOF 7
ENDMDL
MODEL 9
REMARK VINA RESULT:      -6.3      1.470      2.229
REMARK  Name = 
REMARK  9 active torsions:
REMARK  status: ('A' for Active; 'I' for Inactive)
REMARK    1  A    between atoms: C_1  and  C_2
REMARK    2  A    between atoms: C_2  and  C_3
REMARK    3  A    between atoms: C_2  and  O_4
REMARK    4  A    between atoms: O_4  and  C_5
REMARK    5  A    between atoms: C_5  and  C_7
REMARK    6  A    between atoms: C_7  and  S_8
REMARK    7  A    between atoms: S_8  and  C_9
REMARK    8  A    between atoms: C_12  and  C_13
REMARK    9  A    between atoms: N_19  and  N_20
REMARK                            x       y       z     vdW  Elec       q    Type
REMARK                         _______ _______ _______ _____ _____    ______ ____
ROOT
ATOM      1  C   UNL     1       4.789   4.615  16.522  0.00  0.00    +0.000 A 
ATOM      2  N   UNL     1       4.907   3.322  16.358  0.00  0.00    +0.000 NA
ATOM      3  N   UNL     1       4.224   2.711  17.391  0.00  0.00    +0.000 NA
ATOM      4  C   UNL     1       3.664   3.647  18.148  0.00  0.00    +0.000 A 
ATOM      5  N   UNL     1       4.050   4.880  17.650  0.00  0.00    +0.000 N 
ENDROOT
BRANCH   4   6
ATOM      6  C   UNL     1       2.817   3.418  19.324  0.00  0.00    +0.000 A 
ATOM      7  C   UNL     1       3.348   2.797  20.464  0.00  0.00    +0.000 A 
ATOM      8  C   UNL     1       2.551   2.567  21.591  0.00  0.00    +0.000 A 
ATOM      9  C   UNL     1       1.212   2.953  21.593  0.00  0.00    +0.000 A 
ATOM     10  C   UNL     1       0.667   3.560  20.467  0.00  0.00    +0.000 A 
ATOM     11  C   UNL     1       1.460   3.779  19.338  0.00  0.00    +0.000 A 
ENDBRANCH   4   6
BRANCH   5  12
ATOM     12  N   UNL     1       3.779   6.187  18.213  0.00  0.00    +0.000 N 
ATOM     13  H   UNL     1       4.634   6.614  18.564  0.00  0.00    +0.000 HD
ATOM     14  H   UNL     1       3.441   6.815  17.482  0.00  0.00    +0.000 HD
ENDBRANCH   5  12
BRANCH   1  15
ATOM     15  S   UNL     1       5.486   5.876  15.570  0.00  0.00    +0.000 S 
BRANCH  15  16
ATOM     16  C   UNL     1       7.127   5.198  15.170  0.00  0.00    +0.000 C 
BRANCH  16  17
ATOM     17  C   UNL     1       7.185   4.867  13.689  0.00  0.00    +0.000 C 
ATOM     18  O   UNL     1       7.857   5.468  12.856  0.00  0.00    +0.000 OA
BRANCH  17  19
ATOM     19  O   UNL     1       6.420   3.770  13.404  0.00  0.00    +0.000 OA
BRANCH  19  21
ATOM     20  C   UNL     1       6.978   2.349  11.511  0.00  0.00    +0.000 C 
ATOM     21  C   UNL     1       6.167   3.547  11.999  0.00  0.00    +0.000 C 
ATOM     22  C   UNL     1       4.676   3.288  11.815  0.00  0.00    +0.000 C 
ENDBRANCH  19  21
ENDBRANCH  17  19
ENDBRANCH  16  17
ENDBRANCH  15  16
ENDBRANCH   1  15
TORSDOF 7
ENDMDL
