MODEL 1
REMARK VINA RESULT:      -7.6      0.000      0.000
REMARK  Name = 
REMARK  9 active torsions:
REMARK  status: ('A' for Active; 'I' for Inactive)
REMARK    1  A    between atoms: C_1  and  C_2
REMARK    2  A    between atoms: C_2  and  S_3
REMARK    3  A    between atoms: S_3  and  C_4
REMARK    4  A    between atoms: C_7  and  C_8
REMARK    5  A    between atoms: C_8  and  S_9
REMARK    6  A    between atoms: S_9  and  C_10
REMARK    7  A    between atoms: C_14  and  C_15
REMARK    8  A    between atoms: N_17  and  C_18
REMARK    9  A    between atoms: C_21  and  C_22
REMARK                            x       y       z     vdW  Elec       q    Type
REMARK                         _______ _______ _______ _____ _____    ______ ____
ROOT
ATOM      1  C   UNL     1       7.326   5.458  17.043  0.00  0.00    +0.000 A 
ATOM      2  C   UNL     1       7.578   4.708  18.199  0.00  0.00    +0.000 A 
ATOM      3  C   UNL     1       8.028   5.331  19.367  0.00  0.00    +0.000 A 
ATOM      4  C   UNL     1       8.235   6.707  19.387  0.00  0.00    +0.000 A 
ATOM      5  C   UNL     1       7.988   7.474  18.241  0.00  0.00    +0.000 A 
ATOM      6  C   UNL     1       7.543   6.848  17.070  0.00  0.00    +0.000 A 
ENDROOT
BRANCH   5   7
ATOM      7  C   UNL     1       8.312   8.924  18.302  0.00  0.00    +0.000 C 
ATOM      8  O   UNL     1       7.768   9.652  17.477  0.00  0.00    +0.000 OA
ATOM      9  N   UNL     1       9.253   9.316  19.242  0.00  0.00    +0.000 N 
ATOM     10  H   UNL     1       9.769   8.590  19.723  0.00  0.00    +0.000 HD
BRANCH   9  11
ATOM     11  C   UNL     1       9.686  10.648  19.452  0.00  0.00    +0.000 A 
ATOM     12  C   UNL     1      10.329  11.403  18.467  0.00  0.00    +0.000 A 
ATOM     13  C   UNL     1      10.763  12.709  18.725  0.00  0.00    +0.000 A 
ATOM     14  C   UNL     1      10.553  13.283  19.978  0.00  0.00    +0.000 A 
ATOM     15  C   UNL     1       9.895  12.544  20.967  0.00  0.00    +0.000 A 
ATOM     16  C   UNL     1       9.454  11.239  20.701  0.00  0.00    +0.000 A 
BRANCH  14  17
ATOM     17  C   UNL     1      11.006  14.620  20.239  0.00  0.00    +0.000 C 
ATOM     18  N   UNL     1      11.378  15.700  20.440  0.00  0.00    +0.000 NA
ENDBRANCH  14  17
ENDBRANCH   9  11
ENDBRANCH   5   7
BRANCH   1  19
ATOM     19  S   UNL     1       6.853   4.740  15.472  0.00  0.00    +0.000 S 
BRANCH  19  20
ATOM     20  C   UNL     1       5.137   5.322  15.233  0.00  0.00    +0.000 C 
BRANCH  20  24
ATOM     21  C   UNL     1       2.907   5.227  18.950  0.00  0.00    +0.000 A 
ATOM     22  C   UNL     1       3.372   6.437  18.433  0.00  0.00    +0.000 A 
ATOM     23  C   UNL     1       4.092   6.465  17.234  0.00  0.00    +0.000 A 
ATOM     24  C   UNL     1       4.361   5.281  16.532  0.00  0.00    +0.000 A 
ATOM     25  C   UNL     1       3.922   4.065  17.075  0.00  0.00    +0.000 A 
ATOM     26  C   UNL     1       3.203   4.039  18.277  0.00  0.00    +0.000 A 
BRANCH  21  27
ATOM     27  S   UNL     1       1.961   5.177  20.462  0.00  0.00    +0.000 S 
BRANCH  27  29
ATOM     28  C   UNL     1       2.350   2.713  21.617  0.00  0.00    +0.000 C 
ATOM     29  C   UNL     1       1.574   3.395  20.505  0.00  0.00    +0.000 C 
ENDBRANCH  27  29
ENDBRANCH  21  27
ENDBRANCH  20  24
ENDBRANCH  19  20
ENDBRANCH   1  19
TORSDOF 8
ENDMDL
MODEL 2
REMARK VINA RESULT:      -6.9      1.807      2.192
REMARK  Name = 
REMARK  9 active torsions:
REMARK  status: ('A' for Active; 'I' for Inactive)
REMARK    1  A    between atoms: C_1  and  C_2
REMARK    2  A    between atoms: C_2  and  S_3
REMARK    3  A    between atoms: S_3  and  C_4
REMARK    4  A    between atoms: C_7  and  C_8
REMARK    5  A    between atoms: C_8  and  S_9
REMARK    6  A    between atoms: S_9  and  C_10
REMARK    7  A    between atoms: C_14  and  C_15
REMARK    8  A    between atoms: N_17  and  C_18
REMARK    9  A    between atoms: C_21  and  C_22
REMARK                            x       y       z     vdW  Elec       q    Type
REMARK                         _______ _______ _______ _____ _____    ______ ____
ROOT
ATOM      1  C   UNL     1       6.571   5.819  17.321  0.00  0.00    +0.000 A 
ATOM      2  C   UNL     1       7.221   4.950  18.207  0.00  0.00    +0.000 A 
ATOM      3  C   UNL     1       8.176   5.436  19.107  0.00  0.00    +0.000 A 
ATOM      4  C   UNL     1       8.493   6.791  19.122  0.00  0.00    +0.000 A 
ATOM      5  C   UNL     1       7.852   7.675  18.243  0.00  0.00    +0.000 A 
ATOM      6  C   UNL     1       6.900   7.186  17.339  0.00  0.00    +0.000 A 
ENDROOT
BRANCH   5   7
ATOM      7  C   UNL     1       8.297   9.094  18.250  0.00  0.00    +0.000 C 
ATOM      8  O   UNL     1       7.809   9.835  17.404  0.00  0.00    +0.000 OA
ATOM      9  N   UNL     1       9.277   9.437  19.169  0.00  0.00    +0.000 N 
ATOM     10  H   UNL     1       9.734   8.687  19.672  0.00  0.00    +0.000 HD
BRANCH   9  11
ATOM     11  C   UNL     1       9.822  10.735  19.329  0.00  0.00    +0.000 A 
ATOM     12  C   UNL     1      10.594  11.361  18.346  0.00  0.00    +0.000 A 
ATOM     13  C   UNL     1      11.136  12.635  18.555  0.00  0.00    +0.000 A 
ATOM     14  C   UNL     1      10.905  13.307  19.756  0.00  0.00    +0.000 A 
ATOM     15  C   UNL     1      10.119  12.698  20.740  0.00  0.00    +0.000 A 
ATOM     16  C   UNL     1       9.572  11.424  20.522  0.00  0.00    +0.000 A 
BRANCH  14  17
ATOM     17  C   UNL     1      11.468  14.611  19.967  0.00  0.00    +0.000 C 
ATOM     18  N   UNL     1      11.921  15.663  20.147  0.00  0.00    +0.000 NA
ENDBRANCH  14  17
ENDBRANCH   9  11
ENDBRANCH   5   7
BRANCH   1  19
ATOM     19  S   UNL     1       5.417   5.278  16.063  0.00  0.00    +0.000 S 
BRANCH  19  20
ATOM     20  C   UNL     1       3.980   4.684  17.024  0.00  0.00    +0.000 C 
BRANCH  20  24
ATOM     21  C   UNL     1       2.086   7.948  19.160  0.00  0.00    +0.000 A 
ATOM     22  C   UNL     1       2.652   8.158  17.902  0.00  0.00    +0.000 A 
ATOM     23  C   UNL     1       3.263   7.103  17.214  0.00  0.00    +0.000 A 
ATOM     24  C   UNL     1       3.321   5.820  17.777  0.00  0.00    +0.000 A 
ATOM     25  C   UNL     1       2.784   5.624  19.057  0.00  0.00    +0.000 A 
ATOM     26  C   UNL     1       2.174   6.682  19.744  0.00  0.00    +0.000 A 
BRANCH  21  27
ATOM     27  S   UNL     1       1.276   9.274  20.036  0.00  0.00    +0.000 S 
BRANCH  27  29
ATOM     28  C   UNL     1      -0.507   8.825  22.080  0.00  0.00    +0.000 C 
ATOM     29  C   UNL     1       0.860   8.393  21.579  0.00  0.00    +0.000 C 
ENDBRANCH  27  29
ENDBRANCH  21  27
ENDBRANCH  20  24
ENDBRANCH  19  20
ENDBRANCH   1  19
TORSDOF 8
ENDMDL
MODEL 3
REMARK VINA RESULT:      -6.9      3.085      4.378
REMARK  Name = 
REMARK  9 active torsions:
REMARK  status: ('A' for Active; 'I' for Inactive)
REMARK    1  A    between atoms: C_1  and  C_2
REMARK    2  A    between atoms: C_2  and  S_3
REMARK    3  A    between atoms: S_3  and  C_4
REMARK    4  A    between atoms: C_7  and  C_8
REMARK    5  A    between atoms: C_8  and  S_9
REMARK    6  A    between atoms: S_9  and  C_10
REMARK    7  A    between atoms: C_14  and  C_15
REMARK    8  A    between atoms: N_17  and  C_18
REMARK    9  A    between atoms: C_21  and  C_22
REMARK                            x       y       z     vdW  Elec       q    Type
REMARK                         _______ _______ _______ _____ _____    ______ ____
ROOT
ATOM      1  C   UNL     1       4.476   5.183  17.290  0.00  0.00    +0.000 A 
ATOM      2  C   UNL     1       4.940   4.415  16.215  0.00  0.00    +0.000 A 
ATOM      3  C   UNL     1       6.262   4.535  15.773  0.00  0.00    +0.000 A 
ATOM      4  C   UNL     1       7.126   5.429  16.399  0.00  0.00    +0.000 A 
ATOM      5  C   UNL     1       6.679   6.205  17.476  0.00  0.00    +0.000 A 
ATOM      6  C   UNL     1       5.354   6.087  17.914  0.00  0.00    +0.000 A 
ENDROOT
BRANCH   5   7
ATOM      7  C   UNL     1       7.626   7.201  18.044  0.00  0.00    +0.000 C 
ATOM      8  O   UNL     1       8.454   6.788  18.849  0.00  0.00    +0.000 OA
ATOM      9  N   UNL     1       7.444   8.523  17.665  0.00  0.00    +0.000 N 
ATOM     10  H   UNL     1       6.603   8.755  17.153  0.00  0.00    +0.000 HD
BRANCH   9  11
ATOM     11  C   UNL     1       8.245   9.609  18.095  0.00  0.00    +0.000 A 
ATOM     12  C   UNL     1       9.172   9.504  19.137  0.00  0.00    +0.000 A 
ATOM     13  C   UNL     1       9.926  10.610  19.548  0.00  0.00    +0.000 A 
ATOM     14  C   UNL     1       9.767  11.842  18.913  0.00  0.00    +0.000 A 
ATOM     15  C   UNL     1       8.856  11.955  17.857  0.00  0.00    +0.000 A 
ATOM     16  C   UNL     1       8.109  10.841  17.444  0.00  0.00    +0.000 A 
BRANCH  14  17
ATOM     17  C   UNL     1      10.539  12.974  19.343  0.00  0.00    +0.000 C 
ATOM     18  N   UNL     1      11.161  13.885  19.700  0.00  0.00    +0.000 NA
ENDBRANCH  14  17
ENDBRANCH   9  11
ENDBRANCH   5   7
BRANCH   1  19
ATOM     19  S   UNL     1       2.777   5.178  17.857  0.00  0.00    +0.000 S 
BRANCH  19  20
ATOM     20  C   UNL     1       2.845   6.113  19.427  0.00  0.00    +0.000 C 
BRANCH  20  24
ATOM     21  C   UNL     1       1.076  10.044  18.956  0.00  0.00    +0.000 A 
ATOM     22  C   UNL     1       1.827   9.477  17.925  0.00  0.00    +0.000 A 
ATOM     23  C   UNL     1       2.397   8.208  18.080  0.00  0.00    +0.000 A 
ATOM     24  C   UNL     1       2.228   7.487  19.270  0.00  0.00    +0.000 A 
ATOM     25  C   UNL     1       1.504   8.078  20.316  0.00  0.00    +0.000 A 
ATOM     26  C   UNL     1       0.935   9.349  20.159  0.00  0.00    +0.000 A 
BRANCH  21  27
ATOM     27  S   UNL     1       0.317  11.647  18.764  0.00  0.00    +0.000 S 
BRANCH  27  29
ATOM     28  C   UNL     1      -2.392  11.718  19.230  0.00  0.00    +0.000 C 
ATOM     29  C   UNL     1      -1.364  11.117  18.289  0.00  0.00    +0.000 C 
ENDBRANCH  27  29
ENDBRANCH  21  27
ENDBRANCH  20  24
ENDBRANCH  19  20
ENDBRANCH   1  19
TORSDOF 8
ENDMDL
MODEL 4
REMARK VINA RESULT:      -6.9      6.223      8.626
REMARK  Name = 
REMARK  9 active torsions:
REMARK  status: ('A' for Active; 'I' for Inactive)
REMARK    1  A    between atoms: C_1  and  C_2
REMARK    2  A    between atoms: C_2  and  S_3
REMARK    3  A    between atoms: S_3  and  C_4
REMARK    4  A    between atoms: C_7  and  C_8
REMARK    5  A    between atoms: C_8  and  S_9
REMARK    6  A    between atoms: S_9  and  C_10
REMARK    7  A    between atoms: C_14  and  C_15
REMARK    8  A    between atoms: N_17  and  C_18
REMARK    9  A    between atoms: C_21  and  C_22
REMARK                            x       y       z     vdW  Elec       q    Type
REMARK                         _______ _______ _______ _____ _____    ______ ____
ROOT
ATOM      1  C   UNL     1       2.198   6.779  19.281  0.00  0.00    +0.000 A 
ATOM      2  C   UNL     1       2.282   7.333  17.997  0.00  0.00    +0.000 A 
ATOM      3  C   UNL     1       1.977   8.681  17.784  0.00  0.00    +0.000 A 
ATOM      4  C   UNL     1       1.580   9.483  18.850  0.00  0.00    +0.000 A 
ATOM      5  C   UNL     1       1.491   8.946  20.141  0.00  0.00    +0.000 A 
ATOM      6  C   UNL     1       1.791   7.594  20.353  0.00  0.00    +0.000 A 
ENDROOT
BRANCH   5   7
ATOM      7  C   UNL     1       0.978   9.832  21.220  0.00  0.00    +0.000 C 
ATOM      8  O   UNL     1       1.387   9.620  22.357  0.00  0.00    +0.000 OA
ATOM      9  N   UNL     1       0.030  10.776  20.855  0.00  0.00    +0.000 N 
ATOM     10  H   UNL     1      -0.365  10.713  19.926  0.00  0.00    +0.000 HD
BRANCH   9  11
ATOM     11  C   UNL     1      -0.569  11.708  21.738  0.00  0.00    +0.000 A 
ATOM     12  C   UNL     1      -1.638  11.382  22.577  0.00  0.00    +0.000 A 
ATOM     13  C   UNL     1      -2.218  12.341  23.416  0.00  0.00    +0.000 A 
ATOM     14  C   UNL     1      -1.728  13.647  23.431  0.00  0.00    +0.000 A 
ATOM     15  C   UNL     1      -0.647  13.981  22.609  0.00  0.00    +0.000 A 
ATOM     16  C   UNL     1      -0.064  13.014  21.776  0.00  0.00    +0.000 A 
BRANCH  14  17
ATOM     17  C   UNL     1      -2.331  14.628  24.289  0.00  0.00    +0.000 C 
ATOM     18  N   UNL     1      -2.809  15.424  24.984  0.00  0.00    +0.000 NA
ENDBRANCH  14  17
ENDBRANCH   9  11
ENDBRANCH   5   7
BRANCH   1  19
ATOM     19  S   UNL     1       2.463   5.043  19.636  0.00  0.00    +0.000 S 
BRANCH  19  20
ATOM     20  C   UNL     1       4.278   4.910  19.798  0.00  0.00    +0.000 C 
BRANCH  20  24
ATOM     21  C   UNL     1       6.219   4.945  15.921  0.00  0.00    +0.000 A 
ATOM     22  C   UNL     1       6.600   5.850  16.913  0.00  0.00    +0.000 A 
ATOM     23  C   UNL     1       5.973   5.837  18.164  0.00  0.00    +0.000 A 
ATOM     24  C   UNL     1       4.949   4.919  18.441  0.00  0.00    +0.000 A 
ATOM     25  C   UNL     1       4.546   4.037  17.429  0.00  0.00    +0.000 A 
ATOM     26  C   UNL     1       5.175   4.053  16.177  0.00  0.00    +0.000 A 
BRANCH  21  27
ATOM     27  S   UNL     1       7.031   4.928  14.333  0.00  0.00    +0.000 S 
BRANCH  27  29
ATOM     28  C   UNL     1       6.445   3.511  12.051  0.00  0.00    +0.000 C 
ATOM     29  C   UNL     1       6.002   3.677  13.493  0.00  0.00    +0.000 C 
ENDBRANCH  27  29
ENDBRANCH  21  27
ENDBRANCH  20  24
ENDBRANCH  19  20
ENDBRANCH   1  19
TORSDOF 8
ENDMDL
MODEL 5
REMARK VINA RESULT:      -6.9      7.015     10.027
REMARK  Name = 
REMARK  9 active torsions:
REMARK  status: ('A' for Active; 'I' for Inactive)
REMARK    1  A    between atoms: C_1  and  C_2
REMARK    2  A    between atoms: C_2  and  S_3
REMARK    3  A    between atoms: S_3  and  C_4
REMARK    4  A    between atoms: C_7  and  C_8
REMARK    5  A    between atoms: C_8  and  S_9
REMARK    6  A    between atoms: S_9  and  C_10
REMARK    7  A    between atoms: C_14  and  C_15
REMARK    8  A    between atoms: N_17  and  C_18
REMARK    9  A    between atoms: C_21  and  C_22
REMARK                            x       y       z     vdW  Elec       q    Type
REMARK                         _______ _______ _______ _____ _____    ______ ____
ROOT
ATOM      1  C   UNL     1      -0.055  11.205  21.120  0.00  0.00    +0.000 A 
ATOM      2  C   UNL     1      -0.688  10.934  22.340  0.00  0.00    +0.000 A 
ATOM      3  C   UNL     1      -0.566   9.676  22.941  0.00  0.00    +0.000 A 
ATOM      4  C   UNL     1       0.183   8.679  22.323  0.00  0.00    +0.000 A 
ATOM      5  C   UNL     1       0.823   8.932  21.103  0.00  0.00    +0.000 A 
ATOM      6  C   UNL     1       0.696  10.190  20.499  0.00  0.00    +0.000 A 
ENDROOT
BRANCH   5   7
ATOM      7  C   UNL     1       1.535   7.800  20.453  0.00  0.00    +0.000 C 
ATOM      8  O   UNL     1       1.599   6.748  21.080  0.00  0.00    +0.000 OA
ATOM      9  N   UNL     1       2.123   8.054  19.223  0.00  0.00    +0.000 N 
ATOM     10  H   UNL     1       2.165   9.016  18.911  0.00  0.00    +0.000 HD
BRANCH   9  11
ATOM     11  C   UNL     1       2.836   7.104  18.451  0.00  0.00    +0.000 A 
ATOM     12  C   UNL     1       2.512   5.744  18.431  0.00  0.00    +0.000 A 
ATOM     13  C   UNL     1       3.260   4.834  17.674  0.00  0.00    +0.000 A 
ATOM     14  C   UNL     1       4.344   5.276  16.917  0.00  0.00    +0.000 A 
ATOM     15  C   UNL     1       4.667   6.637  16.914  0.00  0.00    +0.000 A 
ATOM     16  C   UNL     1       3.910   7.547  17.668  0.00  0.00    +0.000 A 
BRANCH  14  17
ATOM     17  C   UNL     1       5.110   4.337  16.147  0.00  0.00    +0.000 C 
ATOM     18  N   UNL     1       5.721   3.577  15.519  0.00  0.00    +0.000 NA
ENDBRANCH  14  17
ENDBRANCH   9  11
ENDBRANCH   5   7
BRANCH   1  19
ATOM     19  S   UNL     1      -0.240  12.743  20.222  0.00  0.00    +0.000 S 
BRANCH  19  20
ATOM     20  C   UNL     1      -0.767  12.208  18.556  0.00  0.00    +0.000 C 
BRANCH  20  24
ATOM     21  C   UNL     1      -5.066  11.664  18.398  0.00  0.00    +0.000 A 
ATOM     22  C   UNL     1      -4.467  12.259  19.509  0.00  0.00    +0.000 A 
ATOM     23  C   UNL     1      -3.080  12.433  19.558  0.00  0.00    +0.000 A 
ATOM     24  C   UNL     1      -2.267  12.011  18.496  0.00  0.00    +0.000 A 
ATOM     25  C   UNL     1      -2.871  11.381  17.399  0.00  0.00    +0.000 A 
ATOM     26  C   UNL     1      -4.260  11.206  17.353  0.00  0.00    +0.000 A 
BRANCH  21  27
ATOM     27  S   UNL     1      -6.836  11.463  18.306  0.00  0.00    +0.000 S 
BRANCH  27  29
ATOM     28  C   UNL     1      -7.726  10.576  20.752  0.00  0.00    +0.000 C 
ATOM     29  C   UNL     1      -7.035  10.089  19.491  0.00  0.00    +0.000 C 
ENDBRANCH  27  29
ENDBRANCH  21  27
ENDBRANCH  20  24
ENDBRANCH  19  20
ENDBRANCH   1  19
TORSDOF 8
ENDMDL
MODEL 6
REMARK VINA RESULT:      -6.8      2.434      3.440
REMARK  Name = 
REMARK  9 active torsions:
REMARK  status: ('A' for Active; 'I' for Inactive)
REMARK    1  A    between atoms: C_1  and  C_2
REMARK    2  A    between atoms: C_2  and  S_3
REMARK    3  A    between atoms: S_3  and  C_4
REMARK    4  A    between atoms: C_7  and  C_8
REMARK    5  A    between atoms: C_8  and  S_9
REMARK    6  A    between atoms: S_9  and  C_10
REMARK    7  A    between atoms: C_14  and  C_15
REMARK    8  A    between atoms: N_17  and  C_18
REMARK    9  A    between atoms: C_21  and  C_22
REMARK                            x       y       z     vdW  Elec       q    Type
REMARK                         _______ _______ _______ _____ _____    ______ ____
ROOT
ATOM      1  C   UNL     1       5.326   4.490  17.737  0.00  0.00    +0.000 A 
ATOM      2  C   UNL     1       5.162   4.524  16.347  0.00  0.00    +0.000 A 
ATOM      3  C   UNL     1       5.871   5.445  15.569  0.00  0.00    +0.000 A 
ATOM      4  C   UNL     1       6.744   6.343  16.176  0.00  0.00    +0.000 A 
ATOM      5  C   UNL     1       6.922   6.323  17.565  0.00  0.00    +0.000 A 
ATOM      6  C   UNL     1       6.207   5.405  18.344  0.00  0.00    +0.000 A 
ENDROOT
BRANCH   5   7
ATOM      7  C   UNL     1       7.802   7.365  18.160  0.00  0.00    +0.000 C 
ATOM      8  O   UNL     1       8.572   7.005  19.044  0.00  0.00    +0.000 OA
ATOM      9  N   UNL     1       7.625   8.665  17.709  0.00  0.00    +0.000 N 
ATOM     10  H   UNL     1       6.822   8.855  17.124  0.00  0.00    +0.000 HD
BRANCH   9  11
ATOM     11  C   UNL     1       8.369   9.786  18.151  0.00  0.00    +0.000 A 
ATOM     12  C   UNL     1       9.216   9.746  19.263  0.00  0.00    +0.000 A 
ATOM     13  C   UNL     1       9.914  10.885  19.681  0.00  0.00    +0.000 A 
ATOM     14  C   UNL     1       9.779  12.085  18.984  0.00  0.00    +0.000 A 
ATOM     15  C   UNL     1       8.949  12.133  17.859  0.00  0.00    +0.000 A 
ATOM     16  C   UNL     1       8.257  10.987  17.439  0.00  0.00    +0.000 A 
BRANCH  14  17
ATOM     17  C   UNL     1      10.493  13.252  19.422  0.00  0.00    +0.000 C 
ATOM     18  N   UNL     1      11.065  14.193  19.784  0.00  0.00    +0.000 NA
ENDBRANCH  14  17
ENDBRANCH   9  11
ENDBRANCH   5   7
BRANCH   1  19
ATOM     19  S   UNL     1       4.386   3.425  18.827  0.00  0.00    +0.000 S 
BRANCH  19  20
ATOM     20  C   UNL     1       2.650   3.882  18.483  0.00  0.00    +0.000 C 
BRANCH  20  24
ATOM     21  C   UNL     1       1.728   7.828  20.027  0.00  0.00    +0.000 A 
ATOM     22  C   UNL     1       2.212   7.670  18.727  0.00  0.00    +0.000 A 
ATOM     23  C   UNL     1       2.509   6.396  18.231  0.00  0.00    +0.000 A 
ATOM     24  C   UNL     1       2.330   5.257  19.029  0.00  0.00    +0.000 A 
ATOM     25  C   UNL     1       1.879   5.425  20.346  0.00  0.00    +0.000 A 
ATOM     26  C   UNL     1       1.583   6.702  20.841  0.00  0.00    +0.000 A 
BRANCH  21  27
ATOM     27  S   UNL     1       1.315   9.442  20.663  0.00  0.00    +0.000 S 
BRANCH  27  29
ATOM     28  C   UNL     1      -0.328  10.053  22.782  0.00  0.00    +0.000 C 
ATOM     29  C   UNL     1       0.566   8.946  22.251  0.00  0.00    +0.000 C 
ENDBRANCH  27  29
ENDBRANCH  21  27
ENDBRANCH  20  24
ENDBRANCH  19  20
ENDBRANCH   1  19
TORSDOF 8
ENDMDL
MODEL 7
REMARK VINA RESULT:      -6.7      0.971      1.541
REMARK  Name = 
REMARK  9 active torsions:
REMARK  status: ('A' for Active; 'I' for Inactive)
REMARK    1  A    between atoms: C_1  and  C_2
REMARK    2  A    between atoms: C_2  and  S_3
REMARK    3  A    between atoms: S_3  and  C_4
REMARK    4  A    between atoms: C_7  and  C_8
REMARK    5  A    between atoms: C_8  and  S_9
REMARK    6  A    between atoms: S_9  and  C_10
REMARK    7  A    between atoms: C_14  and  C_15
REMARK    8  A    between atoms: N_17  and  C_18
REMARK    9  A    between atoms: C_21  and  C_22
REMARK                            x       y       z     vdW  Elec       q    Type
REMARK                         _______ _______ _______ _____ _____    ______ ____
ROOT
ATOM      1  C   UNL     1       7.377   5.486  16.806  0.00  0.00    +0.000 A 
ATOM      2  C   UNL     1       7.544   4.691  17.947  0.00  0.00    +0.000 A 
ATOM      3  C   UNL     1       7.901   5.269  19.170  0.00  0.00    +0.000 A 
ATOM      4  C   UNL     1       8.100   6.644  19.258  0.00  0.00    +0.000 A 
ATOM      5  C   UNL     1       7.937   7.454  18.127  0.00  0.00    +0.000 A 
ATOM      6  C   UNL     1       7.586   6.874  16.902  0.00  0.00    +0.000 A 
ENDROOT
BRANCH   5   7
ATOM      7  C   UNL     1       8.249   8.902  18.269  0.00  0.00    +0.000 C 
ATOM      8  O   UNL     1       7.691   9.670  17.493  0.00  0.00    +0.000 OA
ATOM      9  N   UNL     1       9.196   9.247  19.221  0.00  0.00    +0.000 N 
ATOM     10  H   UNL     1       9.722   8.500  19.655  0.00  0.00    +0.000 HD
BRANCH   9  11
ATOM     11  C   UNL     1       9.619  10.569  19.504  0.00  0.00    +0.000 A 
ATOM     12  C   UNL     1       9.364  11.204  20.724  0.00  0.00    +0.000 A 
ATOM     13  C   UNL     1       9.777  12.522  20.954  0.00  0.00    +0.000 A 
ATOM     14  C   UNL     1      10.462  13.224  19.962  0.00  0.00    +0.000 A 
ATOM     15  C   UNL     1      10.739  12.594  18.745  0.00  0.00    +0.000 A 
ATOM     16  C   UNL     1      10.330  11.270  18.522  0.00  0.00    +0.000 A 
BRANCH  14  17
ATOM     17  C   UNL     1      10.878  14.577  20.202  0.00  0.00    +0.000 C 
ATOM     18  N   UNL     1      11.208  15.674  20.388  0.00  0.00    +0.000 NA
ENDBRANCH  14  17
ENDBRANCH   9  11
ENDBRANCH   5   7
BRANCH   1  19
ATOM     19  S   UNL     1       7.029   4.829  15.176  0.00  0.00    +0.000 S 
BRANCH  19  20
ATOM     20  C   UNL     1       5.258   5.209  14.930  0.00  0.00    +0.000 C 
BRANCH  20  24
ATOM     21  C   UNL     1       3.130   5.319  18.707  0.00  0.00    +0.000 A 
ATOM     22  C   UNL     1       3.613   6.495  18.130  0.00  0.00    +0.000 A 
ATOM     23  C   UNL     1       4.299   6.457  16.911  0.00  0.00    +0.000 A 
ATOM     24  C   UNL     1       4.518   5.240  16.250  0.00  0.00    +0.000 A 
ATOM     25  C   UNL     1       4.063   4.058  16.852  0.00  0.00    +0.000 A 
ATOM     26  C   UNL     1       3.377   4.098  18.074  0.00  0.00    +0.000 A 
BRANCH  21  27
ATOM     27  S   UNL     1       2.226   5.354  20.244  0.00  0.00    +0.000 S 
BRANCH  27  29
ATOM     28  C   UNL     1       0.841   7.654  20.833  0.00  0.00    +0.000 C 
ATOM     29  C   UNL     1       2.245   7.152  20.553  0.00  0.00    +0.000 C 
ENDBRANCH  27  29
ENDBRANCH  21  27
ENDBRANCH  20  24
ENDBRANCH  19  20
ENDBRANCH   1  19
TORSDOF 8
ENDMDL
MODEL 8
REMARK VINA RESULT:      -6.7      6.447      9.821
REMARK  Name = 
REMARK  9 active torsions:
REMARK  status: ('A' for Active; 'I' for Inactive)
REMARK    1  A    between atoms: C_1  and  C_2
REMARK    2  A    between atoms: C_2  and  S_3
REMARK    3  A    between atoms: S_3  and  C_4
REMARK    4  A    between atoms: C_7  and  C_8
REMARK    5  A    between atoms: C_8  and  S_9
REMARK    6  A    between atoms: S_9  and  C_10
REMARK    7  A    between atoms: C_14  and  C_15
REMARK    8  A    between atoms: N_17  and  C_18
REMARK    9  A    between atoms: C_21  and  C_22
REMARK                            x       y       z     vdW  Elec       q    Type
REMARK                         _______ _______ _______ _____ _____    ______ ____
ROOT
ATOM      1  C   UNL     1       0.325  11.186  21.343  0.00  0.00    +0.000 A 
ATOM      2  C   UNL     1      -0.290  10.377  22.307  0.00  0.00    +0.000 A 
ATOM      3  C   UNL     1      -0.213   8.983  22.220  0.00  0.00    +0.000 A 
ATOM      4  C   UNL     1       0.474   8.389  21.165  0.00  0.00    +0.000 A 
ATOM      5  C   UNL     1       1.095   9.183  20.192  0.00  0.00    +0.000 A 
ATOM      6  C   UNL     1       1.012  10.578  20.277  0.00  0.00    +0.000 A 
ENDROOT
BRANCH   5   7
ATOM      7  C   UNL     1       1.738   8.486  19.045  0.00  0.00    +0.000 C 
ATOM      8  O   UNL     1       1.477   8.905  17.922  0.00  0.00    +0.000 OA
ATOM      9  N   UNL     1       2.521   7.381  19.344  0.00  0.00    +0.000 N 
ATOM     10  H   UNL     1       2.492   7.026  20.291  0.00  0.00    +0.000 HD
BRANCH   9  11
ATOM     11  C   UNL     1       3.215   6.596  18.391  0.00  0.00    +0.000 A 
ATOM     12  C   UNL     1       3.019   5.218  18.254  0.00  0.00    +0.000 A 
ATOM     13  C   UNL     1       3.745   4.474  17.317  0.00  0.00    +0.000 A 
ATOM     14  C   UNL     1       4.678   5.104  16.493  0.00  0.00    +0.000 A 
ATOM     15  C   UNL     1       4.869   6.485  16.607  0.00  0.00    +0.000 A 
ATOM     16  C   UNL     1       4.133   7.227  17.543  0.00  0.00    +0.000 A 
BRANCH  14  17
ATOM     17  C   UNL     1       5.424   4.335  15.537  0.00  0.00    +0.000 C 
ATOM     18  N   UNL     1       6.018   3.713  14.759  0.00  0.00    +0.000 NA
ENDBRANCH  14  17
ENDBRANCH   9  11
ENDBRANCH   5   7
BRANCH   1  19
ATOM     19  S   UNL     1       0.190  12.972  21.309  0.00  0.00    +0.000 S 
BRANCH  19  20
ATOM     20  C   UNL     1      -1.610  13.270  21.407  0.00  0.00    +0.000 C 
BRANCH  20  24
ATOM     21  C   UNL     1      -3.627  11.689  17.909  0.00  0.00    +0.000 A 
ATOM     22  C   UNL     1      -2.247  11.898  17.898  0.00  0.00    +0.000 A 
ATOM     23  C   UNL     1      -1.598  12.408  19.028  0.00  0.00    +0.000 A 
ATOM     24  C   UNL     1      -2.321  12.722  20.188  0.00  0.00    +0.000 A 
ATOM     25  C   UNL     1      -3.712  12.544  20.181  0.00  0.00    +0.000 A 
ATOM     26  C   UNL     1      -4.359  12.034  19.047  0.00  0.00    +0.000 A 
BRANCH  21  27
ATOM     27  S   UNL     1      -4.464  11.009  16.488  0.00  0.00    +0.000 S 
BRANCH  27  29
ATOM     28  C   UNL     1      -2.919  10.064  14.420  0.00  0.00    +0.000 C 
ATOM     29  C   UNL     1      -3.166   9.867  15.904  0.00  0.00    +0.000 C 
ENDBRANCH  27  29
ENDBRANCH  21  27
ENDBRANCH  20  24
ENDBRANCH  19  20
ENDBRANCH   1  19
TORSDOF 8
ENDMDL
MODEL 9
REMARK VINA RESULT:      -6.6      7.073      9.315
REMARK  Name = 
REMARK  9 active torsions:
REMARK  status: ('A' for Active; 'I' for Inactive)
REMARK    1  A    between atoms: C_1  and  C_2
REMARK    2  A    between atoms: C_2  and  S_3
REMARK    3  A    between atoms: S_3  and  C_4
REMARK    4  A    between atoms: C_7  and  C_8
REMARK    5  A    between atoms: C_8  and  S_9
REMARK    6  A    between atoms: S_9  and  C_10
REMARK    7  A    between atoms: C_14  and  C_15
REMARK    8  A    between atoms: N_17  and  C_18
REMARK    9  A    between atoms: C_21  and  C_22
REMARK                            x       y       z     vdW  Elec       q    Type
REMARK                         _______ _______ _______ _____ _____    ______ ____
ROOT
ATOM      1  C   UNL     1       1.739   7.566  20.352  0.00  0.00    +0.000 A 
ATOM      2  C   UNL     1       1.870   8.050  19.044  0.00  0.00    +0.000 A 
ATOM      3  C   UNL     1       1.430   9.337  18.714  0.00  0.00    +0.000 A 
ATOM      4  C   UNL     1       0.850  10.145  19.687  0.00  0.00    +0.000 A 
ATOM      5  C   UNL     1       0.712   9.678  21.001  0.00  0.00    +0.000 A 
ATOM      6  C   UNL     1       1.147   8.388  21.329  0.00  0.00    +0.000 A 
ENDROOT
BRANCH   5   7
ATOM      7  C   UNL     1       0.006  10.557  21.972  0.00  0.00    +0.000 C 
ATOM      8  O   UNL     1       0.095  10.261  23.158  0.00  0.00    +0.000 OA
ATOM      9  N   UNL     1      -0.746  11.595  21.443  0.00  0.00    +0.000 N 
ATOM     10  H   UNL     1      -0.894  11.607  20.442  0.00  0.00    +0.000 HD
BRANCH   9  11
ATOM     11  C   UNL     1      -1.481  12.536  22.205  0.00  0.00    +0.000 A 
ATOM     12  C   UNL     1      -2.870  12.478  22.349  0.00  0.00    +0.000 A 
ATOM     13  C   UNL     1      -3.561  13.444  23.091  0.00  0.00    +0.000 A 
ATOM     14  C   UNL     1      -2.865  14.483  23.708  0.00  0.00    +0.000 A 
ATOM     15  C   UNL     1      -1.473  14.541  23.587  0.00  0.00    +0.000 A 
ATOM     16  C   UNL     1      -0.785  13.566  22.849  0.00  0.00    +0.000 A 
BRANCH  14  17
ATOM     17  C   UNL     1      -3.580  15.474  24.463  0.00  0.00    +0.000 C 
ATOM     18  N   UNL     1      -4.165  16.274  25.066  0.00  0.00    +0.000 NA
ENDBRANCH  14  17
ENDBRANCH   9  11
ENDBRANCH   5   7
BRANCH   1  19
ATOM     19  S   UNL     1       2.171   5.900  20.845  0.00  0.00    +0.000 S 
BRANCH  19  20
ATOM     20  C   UNL     1       1.897   4.917  19.329  0.00  0.00    +0.000 C 
BRANCH  20  24
ATOM     21  C   UNL     1       5.565   4.545  17.047  0.00  0.00    +0.000 A 
ATOM     22  C   UNL     1       5.548   5.251  18.251  0.00  0.00    +0.000 A 
ATOM     23  C   UNL     1       4.363   5.370  18.985  0.00  0.00    +0.000 A 
ATOM     24  C   UNL     1       3.173   4.787  18.525  0.00  0.00    +0.000 A 
ATOM     25  C   UNL     1       3.189   4.110  17.297  0.00  0.00    +0.000 A 
ATOM     26  C   UNL     1       4.377   3.994  16.563  0.00  0.00    +0.000 A 
BRANCH  21  27
ATOM     27  S   UNL     1       7.074   4.357  16.115  0.00  0.00    +0.000 S 
BRANCH  27  29
ATOM     28  C   UNL     1       6.310   3.793  13.534  0.00  0.00    +0.000 C 
ATOM     29  C   UNL     1       6.491   4.957  14.493  0.00  0.00    +0.000 C 
ENDBRANCH  27  29
ENDBRANCH  21  27
ENDBRANCH  20  24
ENDBRANCH  19  20
ENDBRANCH   1  19
TORSDOF 8
ENDMDL
