MODEL 1
REMARK VINA RESULT:      -6.7      0.000      0.000
REMARK  Name = 
REMARK  6 active torsions:
REMARK  status: ('A' for Active; 'I' for Inactive)
REMARK    1  A    between atoms: C_1  and  C_2
REMARK    2  A    between atoms: C_6  and  C_7
REMARK    3  A    between atoms: C_7  and  C_8
REMARK    4  A    between atoms: C_8  and  N_9
REMARK    5  A    between atoms: C_14  and  N_15
REMARK    6  A    between atoms: C_23  and  C_24
REMARK                            x       y       z     vdW  Elec       q    Type
REMARK                         _______ _______ _______ _____ _____    ______ ____
ROOT
ATOM      1  C   UNL     1       1.227   3.460  20.970  0.00  0.00    +0.000 C 
ATOM      2  C   UNL     1       2.163   4.122  20.017  0.00  0.00    +0.000 A 
ATOM      3  S   UNL     1       3.165   3.188  18.995  0.00  0.00    +0.000 S 
ATOM      4  C   UNL     1       3.745   4.570  18.193  0.00  0.00    +0.000 A 
ATOM      5  N   UNL     1       4.659   4.463  17.217  0.00  0.00    +0.000 NA
ATOM      6  C   UNL     1       4.965   5.638  16.652  0.00  0.00    +0.000 A 
ATOM      7  N   UNL     1       4.373   6.825  16.914  0.00  0.00    +0.000 NA
ATOM      8  C   UNL     1       3.418   6.889  17.878  0.00  0.00    +0.000 A 
ATOM      9  N   UNL     1       2.668   8.050  18.105  0.00  0.00    +0.000 N 
ATOM     10  C   UNL     1       2.885   9.389  17.660  0.00  0.00    +0.000 C 
ATOM     11  C   UNL     1       1.388   9.668  18.005  0.00  0.00    +0.000 C 
ATOM     12  C   UNL     1       1.253   8.138  17.829  0.00  0.00    +0.000 C 
ATOM     13  C   UNL     1       3.140   5.731  18.634  0.00  0.00    +0.000 A 
ATOM     14  C   UNL     1       2.360   5.480  19.831  0.00  0.00    +0.000 A 
ATOM     15  C   UNL     1       1.807   6.527  20.750  0.00  0.00    +0.000 C 
ENDROOT
BRANCH  11  16
ATOM     16  N   UNL     1       1.167  10.027  19.448  0.00  0.00    +0.000 NA
ATOM     17  C   UNL     1       1.305  11.482  19.619  0.00  0.00    +0.000 C 
ATOM     18  C   UNL     1       0.994  11.923  21.050  0.00  0.00    +0.000 C 
ATOM     19  C   UNL     1      -0.419  11.520  21.440  0.00  0.00    +0.000 C 
ATOM     20  C   UNL     1      -0.579  10.018  21.265  0.00  0.00    +0.000 C 
ATOM     21  C   UNL     1      -0.177   9.568  19.857  0.00  0.00    +0.000 C 
ENDBRANCH  11  16
BRANCH   6  22
ATOM     22  C   UNL     1       6.095   5.610  15.648  0.00  0.00    +0.000 C 
BRANCH  22  23
ATOM     23  C   UNL     1       6.901   4.312  15.740  0.00  0.00    +0.000 C 
BRANCH  23  24
ATOM     24  N   UNL     1       7.782   4.293  16.910  0.00  0.00    +0.000 NA
ATOM     25  H   UNL     1       7.222   4.351  17.764  0.00  0.00    +0.000 HD
ATOM     26  H   UNL     1       8.372   5.122  16.902  0.00  0.00    +0.000 HD
ENDBRANCH  23  24
ENDBRANCH  22  23
ENDBRANCH   6  22
TORSDOF 4
ENDMDL
MODEL 2
REMARK VINA RESULT:      -5.9      1.584      1.638
REMARK  Name = 
REMARK  6 active torsions:
REMARK  status: ('A' for Active; 'I' for Inactive)
REMARK    1  A    between atoms: C_1  and  C_2
REMARK    2  A    between atoms: C_6  and  C_7
REMARK    3  A    between atoms: C_7  and  C_8
REMARK    4  A    between atoms: C_8  and  N_9
REMARK    5  A    between atoms: C_14  and  N_15
REMARK    6  A    between atoms: C_23  and  C_24
REMARK                            x       y       z     vdW  Elec       q    Type
REMARK                         _______ _______ _______ _____ _____    ______ ____
ROOT
ATOM      1  C   UNL     1       1.038   2.953  21.218  0.00  0.00    +0.000 C 
ATOM      2  C   UNL     1       2.198   3.630  20.571  0.00  0.00    +0.000 A 
ATOM      3  S   UNL     1       3.595   2.743  20.146  0.00  0.00    +0.000 S 
ATOM      4  C   UNL     1       4.301   4.092  19.391  0.00  0.00    +0.000 A 
ATOM      5  N   UNL     1       5.523   4.007  18.841  0.00  0.00    +0.000 NA
ATOM      6  C   UNL     1       5.907   5.140  18.239  0.00  0.00    +0.000 A 
ATOM      7  N   UNL     1       5.151   6.249  18.072  0.00  0.00    +0.000 NA
ATOM      8  C   UNL     1       3.901   6.283  18.604  0.00  0.00    +0.000 A 
ATOM      9  N   UNL     1       3.016   7.338  18.352  0.00  0.00    +0.000 N 
ATOM     10  C   UNL     1       3.258   8.634  17.802  0.00  0.00    +0.000 C 
ATOM     11  C   UNL     1       1.722   8.726  17.535  0.00  0.00    +0.000 C 
ATOM     12  C   UNL     1       1.808   7.183  17.576  0.00  0.00    +0.000 C 
ATOM     13  C   UNL     1       3.468   5.194  19.388  0.00  0.00    +0.000 A 
ATOM     14  C   UNL     1       2.322   4.972  20.249  0.00  0.00    +0.000 A 
ATOM     15  C   UNL     1       1.366   6.026  20.722  0.00  0.00    +0.000 C 
ENDROOT
BRANCH  11  16
ATOM     16  N   UNL     1       0.940   9.215  18.722  0.00  0.00    +0.000 NA
ATOM     17  C   UNL     1       1.657  10.332  19.356  0.00  0.00    +0.000 C 
ATOM     18  C   UNL     1       0.864  10.940  20.514  0.00  0.00    +0.000 C 
ATOM     19  C   UNL     1      -0.488  11.441  20.032  0.00  0.00    +0.000 C 
ATOM     20  C   UNL     1      -1.241  10.298  19.370  0.00  0.00    +0.000 C 
ATOM     21  C   UNL     1      -0.405   9.632  18.273  0.00  0.00    +0.000 C 
ENDBRANCH  11  16
BRANCH   6  22
ATOM     22  C   UNL     1       7.329   5.163  17.729  0.00  0.00    +0.000 C 
BRANCH  22  23
ATOM     23  C   UNL     1       8.343   5.139  18.876  0.00  0.00    +0.000 C 
BRANCH  23  24
ATOM     24  N   UNL     1       7.748   5.561  20.145  0.00  0.00    +0.000 NA
ATOM     25  H   UNL     1       6.980   6.212  19.967  0.00  0.00    +0.000 HD
ATOM     26  H   UNL     1       8.439   6.079  20.685  0.00  0.00    +0.000 HD
ENDBRANCH  23  24
ENDBRANCH  22  23
ENDBRANCH   6  22
TORSDOF 4
ENDMDL
MODEL 3
REMARK VINA RESULT:      -5.8      1.363      1.454
REMARK  Name = 
REMARK  6 active torsions:
REMARK  status: ('A' for Active; 'I' for Inactive)
REMARK    1  A    between atoms: C_1  and  C_2
REMARK    2  A    between atoms: C_6  and  C_7
REMARK    3  A    between atoms: C_7  and  C_8
REMARK    4  A    between atoms: C_8  and  N_9
REMARK    5  A    between atoms: C_14  and  N_15
REMARK    6  A    between atoms: C_23  and  C_24
REMARK                            x       y       z     vdW  Elec       q    Type
REMARK                         _______ _______ _______ _____ _____    ______ ____
ROOT
ATOM      1  C   UNL     1       1.118   2.912  21.406  0.00  0.00    +0.000 C 
ATOM      2  C   UNL     1       2.275   3.553  20.718  0.00  0.00    +0.000 A 
ATOM      3  S   UNL     1       3.651   2.633  20.293  0.00  0.00    +0.000 S 
ATOM      4  C   UNL     1       4.363   3.949  19.487  0.00  0.00    +0.000 A 
ATOM      5  N   UNL     1       5.572   3.831  18.918  0.00  0.00    +0.000 NA
ATOM      6  C   UNL     1       5.961   4.940  18.276  0.00  0.00    +0.000 A 
ATOM      7  N   UNL     1       5.218   6.055  18.090  0.00  0.00    +0.000 NA
ATOM      8  C   UNL     1       3.979   6.123  18.644  0.00  0.00    +0.000 A 
ATOM      9  N   UNL     1       3.104   7.183  18.377  0.00  0.00    +0.000 N 
ATOM     10  C   UNL     1       3.354   8.458  17.785  0.00  0.00    +0.000 C 
ATOM     11  C   UNL     1       1.815   8.566  17.543  0.00  0.00    +0.000 C 
ATOM     12  C   UNL     1       1.879   7.023  17.628  0.00  0.00    +0.000 C 
ATOM     13  C   UNL     1       3.545   5.063  19.467  0.00  0.00    +0.000 A 
ATOM     14  C   UNL     1       2.412   4.883  20.354  0.00  0.00    +0.000 A 
ATOM     15  C   UNL     1       1.481   5.964  20.814  0.00  0.00    +0.000 C 
ENDROOT
BRANCH  11  16
ATOM     16  N   UNL     1       1.062   9.100  18.730  0.00  0.00    +0.000 NA
ATOM     17  C   UNL     1       1.798  10.235  19.308  0.00  0.00    +0.000 C 
ATOM     18  C   UNL     1       1.034  10.888  20.461  0.00  0.00    +0.000 C 
ATOM     19  C   UNL     1      -0.326  11.378  19.992  0.00  0.00    +0.000 C 
ATOM     20  C   UNL     1      -1.099  10.216  19.389  0.00  0.00    +0.000 C 
ATOM     21  C   UNL     1      -0.291   9.508  18.296  0.00  0.00    +0.000 C 
ENDBRANCH  11  16
BRANCH   6  22
ATOM     22  C   UNL     1       7.373   4.928  17.739  0.00  0.00    +0.000 C 
BRANCH  22  23
ATOM     23  C   UNL     1       7.421   4.451  16.284  0.00  0.00    +0.000 C 
BRANCH  23  24
ATOM     24  N   UNL     1       7.149   5.536  15.340  0.00  0.00    +0.000 NA
ATOM     25  H   UNL     1       6.818   5.147  14.454  0.00  0.00    +0.000 HD
ATOM     26  H   UNL     1       8.018   6.023  15.127  0.00  0.00    +0.000 HD
ENDBRANCH  23  24
ENDBRANCH  22  23
ENDBRANCH   6  22
TORSDOF 4
ENDMDL
MODEL 4
REMARK VINA RESULT:      -5.7      1.155      1.267
REMARK  Name = 
REMARK  6 active torsions:
REMARK  status: ('A' for Active; 'I' for Inactive)
REMARK    1  A    between atoms: C_1  and  C_2
REMARK    2  A    between atoms: C_6  and  C_7
REMARK    3  A    between atoms: C_7  and  C_8
REMARK    4  A    between atoms: C_8  and  N_9
REMARK    5  A    between atoms: C_14  and  N_15
REMARK    6  A    between atoms: C_23  and  C_24
REMARK                            x       y       z     vdW  Elec       q    Type
REMARK                         _______ _______ _______ _____ _____    ______ ____
ROOT
ATOM      1  C   UNL     1       1.165   3.418  21.021  0.00  0.00    +0.000 C 
ATOM      2  C   UNL     1       2.188   4.179  20.248  0.00  0.00    +0.000 A 
ATOM      3  S   UNL     1       3.496   3.367  19.506  0.00  0.00    +0.000 S 
ATOM      4  C   UNL     1       4.050   4.795  18.770  0.00  0.00    +0.000 A 
ATOM      5  N   UNL     1       5.157   4.790  18.012  0.00  0.00    +0.000 NA
ATOM      6  C   UNL     1       5.421   5.982  17.461  0.00  0.00    +0.000 A 
ATOM      7  N   UNL     1       4.639   7.083  17.531  0.00  0.00    +0.000 NA
ATOM      8  C   UNL     1       3.501   7.039  18.272  0.00  0.00    +0.000 A 
ATOM      9  N   UNL     1       2.577   8.091  18.277  0.00  0.00    +0.000 N 
ATOM     10  C   UNL     1       2.709   9.436  17.817  0.00  0.00    +0.000 C 
ATOM     11  C   UNL     1       1.150   9.516  17.829  0.00  0.00    +0.000 C 
ATOM     12  C   UNL     1       1.253   7.978  17.710  0.00  0.00    +0.000 C 
ATOM     13  C   UNL     1       3.220   5.873  19.014  0.00  0.00    +0.000 A 
ATOM     14  C   UNL     1       2.243   5.547  20.036  0.00  0.00    +0.000 A 
ATOM     15  C   UNL     1       1.377   6.530  20.764  0.00  0.00    +0.000 C 
ENDROOT
BRANCH  11  16
ATOM     16  N   UNL     1       0.583   9.876  19.174  0.00  0.00    +0.000 NA
ATOM     17  C   UNL     1       1.342  11.002  19.741  0.00  0.00    +0.000 C 
ATOM     18  C   UNL     1       0.751  11.483  21.068  0.00  0.00    +0.000 C 
ATOM     19  C   UNL     1      -0.695  11.913  20.886  0.00  0.00    +0.000 C 
ATOM     20  C   UNL     1      -1.493  10.760  20.297  0.00  0.00    +0.000 C 
ATOM     21  C   UNL     1      -0.845  10.222  19.017  0.00  0.00    +0.000 C 
ENDBRANCH  11  16
BRANCH   6  22
ATOM     22  C   UNL     1       6.732   6.085  16.716  0.00  0.00    +0.000 C 
BRANCH  22  23
ATOM     23  C   UNL     1       7.768   6.892  17.504  0.00  0.00    +0.000 C 
BRANCH  23  24
ATOM     24  N   UNL     1       7.567   8.335  17.362  0.00  0.00    +0.000 NA
ATOM     25  H   UNL     1       6.713   8.614  17.850  0.00  0.00    +0.000 HD
ATOM     26  H   UNL     1       7.418   8.559  16.380  0.00  0.00    +0.000 HD
ENDBRANCH  23  24
ENDBRANCH  22  23
ENDBRANCH   6  22
TORSDOF 4
ENDMDL
MODEL 5
REMARK VINA RESULT:      -5.7      2.176      4.392
REMARK  Name = 
REMARK  6 active torsions:
REMARK  status: ('A' for Active; 'I' for Inactive)
REMARK    1  A    between atoms: C_1  and  C_2
REMARK    2  A    between atoms: C_6  and  C_7
REMARK    3  A    between atoms: C_7  and  C_8
REMARK    4  A    between atoms: C_8  and  N_9
REMARK    5  A    between atoms: C_14  and  N_15
REMARK    6  A    between atoms: C_23  and  C_24
REMARK                            x       y       z     vdW  Elec       q    Type
REMARK                         _______ _______ _______ _____ _____    ______ ____
ROOT
ATOM      1  C   UNL     1       5.159   7.309  16.290  0.00  0.00    +0.000 C 
ATOM      2  C   UNL     1       4.342   6.685  17.371  0.00  0.00    +0.000 A 
ATOM      3  S   UNL     1       4.774   5.164  18.018  0.00  0.00    +0.000 S 
ATOM      4  C   UNL     1       3.546   5.241  19.190  0.00  0.00    +0.000 A 
ATOM      5  N   UNL     1       3.359   4.230  20.053  0.00  0.00    +0.000 NA
ATOM      6  C   UNL     1       2.391   4.474  20.946  0.00  0.00    +0.000 A 
ATOM      7  N   UNL     1       1.712   5.636  21.086  0.00  0.00    +0.000 NA
ATOM      8  C   UNL     1       1.959   6.654  20.222  0.00  0.00    +0.000 A 
ATOM      9  N   UNL     1       1.398   7.926  20.393  0.00  0.00    +0.000 N 
ATOM     10  C   UNL     1       0.319   8.353  21.226  0.00  0.00    +0.000 C 
ATOM     11  C   UNL     1       0.846   9.810  21.035  0.00  0.00    +0.000 C 
ATOM     12  C   UNL     1       2.181   9.093  20.730  0.00  0.00    +0.000 C 
ATOM     13  C   UNL     1       2.853   6.435  19.153  0.00  0.00    +0.000 A 
ATOM     14  C   UNL     1       3.196   7.191  17.964  0.00  0.00    +0.000 A 
ATOM     15  C   UNL     1       2.449   8.378  17.435  0.00  0.00    +0.000 C 
ENDROOT
BRANCH  11  16
ATOM     16  N   UNL     1       0.335  10.468  19.784  0.00  0.00    +0.000 NA
ATOM     17  C   UNL     1      -1.134  10.538  19.830  0.00  0.00    +0.000 C 
ATOM     18  C   UNL     1      -1.711  11.288  18.628  0.00  0.00    +0.000 C 
ATOM     19  C   UNL     1      -1.159  12.702  18.564  0.00  0.00    +0.000 C 
ATOM     20  C   UNL     1       0.360  12.648  18.518  0.00  0.00    +0.000 C 
ATOM     21  C   UNL     1       0.929  11.818  19.673  0.00  0.00    +0.000 C 
ENDBRANCH  11  16
BRANCH   6  22
ATOM     22  C   UNL     1       2.027   3.322  21.852  0.00  0.00    +0.000 C 
BRANCH  22  23
ATOM     23  C   UNL     1       1.152   2.291  21.134  0.00  0.00    +0.000 C 
BRANCH  23  24
ATOM     24  N   UNL     1       0.514   2.848  19.939  0.00  0.00    +0.000 NA
ATOM     25  H   UNL     1      -0.229   2.221  19.621  0.00  0.00    +0.000 HD
ATOM     26  H   UNL     1       1.193   2.888  19.182  0.00  0.00    +0.000 HD
ENDBRANCH  23  24
ENDBRANCH  22  23
ENDBRANCH   6  22
TORSDOF 4
ENDMDL
MODEL 6
REMARK VINA RESULT:      -5.4      6.608      9.070
REMARK  Name = 
REMARK  6 active torsions:
REMARK  status: ('A' for Active; 'I' for Inactive)
REMARK    1  A    between atoms: C_1  and  C_2
REMARK    2  A    between atoms: C_6  and  C_7
REMARK    3  A    between atoms: C_7  and  C_8
REMARK    4  A    between atoms: C_8  and  N_9
REMARK    5  A    between atoms: C_14  and  N_15
REMARK    6  A    between atoms: C_23  and  C_24
REMARK                            x       y       z     vdW  Elec       q    Type
REMARK                         _______ _______ _______ _____ _____    ______ ____
ROOT
ATOM      1  C   UNL     1      -0.355  11.794  21.513  0.00  0.00    +0.000 C 
ATOM      2  C   UNL     1      -1.014  11.553  20.197  0.00  0.00    +0.000 A 
ATOM      3  S   UNL     1      -0.384  10.394  19.111  0.00  0.00    +0.000 S 
ATOM      4  C   UNL     1      -1.681  10.604  18.033  0.00  0.00    +0.000 A 
ATOM      5  N   UNL     1      -1.732   9.919  16.880  0.00  0.00    +0.000 NA
ATOM      6  C   UNL     1      -2.846  10.158  16.176  0.00  0.00    +0.000 A 
ATOM      7  N   UNL     1      -3.894  10.912  16.576  0.00  0.00    +0.000 NA
ATOM      8  C   UNL     1      -3.828  11.557  17.770  0.00  0.00    +0.000 A 
ATOM      9  N   UNL     1      -4.926  12.238  18.309  0.00  0.00    +0.000 N 
ATOM     10  C   UNL     1      -6.148  12.649  17.695  0.00  0.00    +0.000 C 
ATOM     11  C   UNL     1      -6.734  12.805  19.133  0.00  0.00    +0.000 C 
ATOM     12  C   UNL     1      -5.618  11.799  19.499  0.00  0.00    +0.000 C 
ATOM     13  C   UNL     1      -2.630  11.488  18.512  0.00  0.00    +0.000 A 
ATOM     14  C   UNL     1      -2.137  12.182  19.686  0.00  0.00    +0.000 A 
ATOM     15  C   UNL     1      -2.751  13.403  20.302  0.00  0.00    +0.000 C 
ENDROOT
BRANCH  11  16
ATOM     16  N   UNL     1      -6.428  14.138  19.758  0.00  0.00    +0.000 NA
ATOM     17  C   UNL     1      -7.366  15.148  19.244  0.00  0.00    +0.000 C 
ATOM     18  C   UNL     1      -7.171  16.508  19.917  0.00  0.00    +0.000 C 
ATOM     19  C   UNL     1      -7.357  16.392  21.421  0.00  0.00    +0.000 C 
ATOM     20  C   UNL     1      -6.395  15.349  21.968  0.00  0.00    +0.000 C 
ATOM     21  C   UNL     1      -6.531  14.015  21.228  0.00  0.00    +0.000 C 
ENDBRANCH  11  16
BRANCH   6  22
ATOM     22  C   UNL     1      -2.900   9.534  14.800  0.00  0.00    +0.000 C 
BRANCH  22  23
ATOM     23  C   UNL     1      -3.966  10.195  13.922  0.00  0.00    +0.000 C 
BRANCH  23  24
ATOM     24  N   UNL     1      -3.784   9.878  12.504  0.00  0.00    +0.000 NA
ATOM     25  H   UNL     1      -4.346   9.060  12.258  0.00  0.00    +0.000 HD
ATOM     26  H   UNL     1      -2.814   9.615  12.339  0.00  0.00    +0.000 HD
ENDBRANCH  23  24
ENDBRANCH  22  23
ENDBRANCH   6  22
TORSDOF 4
ENDMDL
MODEL 7
REMARK VINA RESULT:      -5.4      6.392      8.826
REMARK  Name = 
REMARK  6 active torsions:
REMARK  status: ('A' for Active; 'I' for Inactive)
REMARK    1  A    between atoms: C_1  and  C_2
REMARK    2  A    between atoms: C_6  and  C_7
REMARK    3  A    between atoms: C_7  and  C_8
REMARK    4  A    between atoms: C_8  and  N_9
REMARK    5  A    between atoms: C_14  and  N_15
REMARK    6  A    between atoms: C_23  and  C_24
REMARK                            x       y       z     vdW  Elec       q    Type
REMARK                         _______ _______ _______ _____ _____    ______ ____
ROOT
ATOM      1  C   UNL     1       0.082  10.612  20.461  0.00  0.00    +0.000 C 
ATOM      2  C   UNL     1      -0.862  10.756  19.316  0.00  0.00    +0.000 A 
ATOM      3  S   UNL     1      -0.636   9.849  17.885  0.00  0.00    +0.000 S 
ATOM      4  C   UNL     1      -2.087  10.425  17.214  0.00  0.00    +0.000 A 
ATOM      5  N   UNL     1      -2.469  10.049  15.983  0.00  0.00    +0.000 NA
ATOM      6  C   UNL     1      -3.661  10.546  15.629  0.00  0.00    +0.000 A 
ATOM      7  N   UNL     1      -4.491  11.265  16.418  0.00  0.00    +0.000 NA
ATOM      8  C   UNL     1      -4.090  11.590  17.675  0.00  0.00    +0.000 A 
ATOM      9  N   UNL     1      -4.949  12.209  18.591  0.00  0.00    +0.000 N 
ATOM     10  C   UNL     1      -6.204  12.859  18.385  0.00  0.00    +0.000 C 
ATOM     11  C   UNL     1      -6.451  12.708  19.919  0.00  0.00    +0.000 C 
ATOM     12  C   UNL     1      -5.433  11.553  19.784  0.00  0.00    +0.000 C 
ATOM     13  C   UNL     1      -2.786  11.241  18.082  0.00  0.00    +0.000 A 
ATOM     14  C   UNL     1      -1.970  11.583  19.232  0.00  0.00    +0.000 A 
ATOM     15  C   UNL     1      -2.270  12.664  20.227  0.00  0.00    +0.000 C 
ENDROOT
BRANCH  11  16
ATOM     16  N   UNL     1      -5.843  13.817  20.732  0.00  0.00    +0.000 NA
ATOM     17  C   UNL     1      -6.746  14.978  20.732  0.00  0.00    +0.000 C 
ATOM     18  C   UNL     1      -6.230  16.108  21.625  0.00  0.00    +0.000 C 
ATOM     19  C   UNL     1      -6.061  15.624  23.056  0.00  0.00    +0.000 C 
ATOM     20  C   UNL     1      -5.131  14.420  23.073  0.00  0.00    +0.000 C 
ATOM     21  C   UNL     1      -5.603  13.329  22.107  0.00  0.00    +0.000 C 
ENDBRANCH  11  16
BRANCH   6  22
ATOM     22  C   UNL     1      -4.084  10.284  14.202  0.00  0.00    +0.000 C 
BRANCH  22  23
ATOM     23  C   UNL     1      -2.921   9.762  13.354  0.00  0.00    +0.000 C 
BRANCH  23  24
ATOM     24  N   UNL     1      -3.275   9.660  11.937  0.00  0.00    +0.000 NA
ATOM     25  H   UNL     1      -4.292   9.655  11.834  0.00  0.00    +0.000 HD
ATOM     26  H   UNL     1      -2.949   8.767  11.572  0.00  0.00    +0.000 HD
ENDBRANCH  23  24
ENDBRANCH  22  23
ENDBRANCH   6  22
TORSDOF 4
ENDMDL
MODEL 8
REMARK VINA RESULT:      -5.4      8.622     10.456
REMARK  Name = 
REMARK  6 active torsions:
REMARK  status: ('A' for Active; 'I' for Inactive)
REMARK    1  A    between atoms: C_1  and  C_2
REMARK    2  A    between atoms: C_6  and  C_7
REMARK    3  A    between atoms: C_7  and  C_8
REMARK    4  A    between atoms: C_8  and  N_9
REMARK    5  A    between atoms: C_14  and  N_15
REMARK    6  A    between atoms: C_23  and  C_24
REMARK                            x       y       z     vdW  Elec       q    Type
REMARK                         _______ _______ _______ _____ _____    ______ ____
ROOT
ATOM      1  C   UNL     1       9.151  10.122  18.859  0.00  0.00    +0.000 C 
ATOM      2  C   UNL     1       9.383  11.577  19.087  0.00  0.00    +0.000 A 
ATOM      3  S   UNL     1       9.931  12.580  17.816  0.00  0.00    +0.000 S 
ATOM      4  C   UNL     1       9.796  13.977  18.773  0.00  0.00    +0.000 A 
ATOM      5  N   UNL     1      10.140  15.178  18.283  0.00  0.00    +0.000 NA
ATOM      6  C   UNL     1       9.920  16.180  19.144  0.00  0.00    +0.000 A 
ATOM      7  N   UNL     1       9.318  16.074  20.351  0.00  0.00    +0.000 NA
ATOM      8  C   UNL     1       8.942  14.847  20.797  0.00  0.00    +0.000 A 
ATOM      9  N   UNL     1       8.192  14.680  21.967  0.00  0.00    +0.000 N 
ATOM     10  C   UNL     1       7.922  15.597  23.028  0.00  0.00    +0.000 C 
ATOM     11  C   UNL     1       6.746  14.658  23.443  0.00  0.00    +0.000 C 
ATOM     12  C   UNL     1       6.826  14.209  21.966  0.00  0.00    +0.000 C 
ATOM     13  C   UNL     1       9.273  13.715  20.024  0.00  0.00    +0.000 A 
ATOM     14  C   UNL     1       9.216  12.285  20.266  0.00  0.00    +0.000 A 
ATOM     15  C   UNL     1       8.984  11.632  21.595  0.00  0.00    +0.000 C 
ENDROOT
BRANCH  11  16
ATOM     16  N   UNL     1       7.176  13.525  24.334  0.00  0.00    +0.000 NA
ATOM     17  C   UNL     1       7.333  14.016  25.712  0.00  0.00    +0.000 C 
ATOM     18  C   UNL     1       7.673  12.888  26.687  0.00  0.00    +0.000 C 
ATOM     19  C   UNL     1       6.591  11.822  26.672  0.00  0.00    +0.000 C 
ATOM     20  C   UNL     1       6.414  11.305  25.252  0.00  0.00    +0.000 C 
ATOM     21  C   UNL     1       6.164  12.449  24.264  0.00  0.00    +0.000 C 
ENDBRANCH  11  16
BRANCH   6  22
ATOM     22  C   UNL     1      10.421  17.539  18.714  0.00  0.00    +0.000 C 
BRANCH  22  23
ATOM     23  C   UNL     1       9.295  18.399  18.134  0.00  0.00    +0.000 C 
BRANCH  23  24
ATOM     24  N   UNL     1       7.976  17.808  18.363  0.00  0.00    +0.000 NA
ATOM     25  H   UNL     1       7.588  17.474  17.477  0.00  0.00    +0.000 HD
ATOM     26  H   UNL     1       7.338  18.527  18.697  0.00  0.00    +0.000 HD
ENDBRANCH  23  24
ENDBRANCH  22  23
ENDBRANCH   6  22
TORSDOF 4
ENDMDL
MODEL 9
REMARK VINA RESULT:      -5.3      2.185      4.319
REMARK  Name = 
REMARK  6 active torsions:
REMARK  status: ('A' for Active; 'I' for Inactive)
REMARK    1  A    between atoms: C_1  and  C_2
REMARK    2  A    between atoms: C_6  and  C_7
REMARK    3  A    between atoms: C_7  and  C_8
REMARK    4  A    between atoms: C_8  and  N_9
REMARK    5  A    between atoms: C_14  and  N_15
REMARK    6  A    between atoms: C_23  and  C_24
REMARK                            x       y       z     vdW  Elec       q    Type
REMARK                         _______ _______ _______ _____ _____    ______ ____
ROOT
ATOM      1  C   UNL     1       5.324   7.314  16.690  0.00  0.00    +0.000 C 
ATOM      2  C   UNL     1       4.279   6.640  17.512  0.00  0.00    +0.000 A 
ATOM      3  S   UNL     1       4.381   4.967  17.844  0.00  0.00    +0.000 S 
ATOM      4  C   UNL     1       3.027   5.021  18.870  0.00  0.00    +0.000 A 
ATOM      5  N   UNL     1       2.571   3.906  19.461  0.00  0.00    +0.000 NA
ATOM      6  C   UNL     1       1.535   4.132  20.279  0.00  0.00    +0.000 A 
ATOM      7  N   UNL     1       1.027   5.342  20.604  0.00  0.00    +0.000 NA
ATOM      8  C   UNL     1       1.543   6.455  20.021  0.00  0.00    +0.000 A 
ATOM      9  N   UNL     1       1.162   7.744  20.412  0.00  0.00    +0.000 N 
ATOM     10  C   UNL     1       0.054   8.178  21.202  0.00  0.00    +0.000 C 
ATOM     11  C   UNL     1       0.816   9.527  21.398  0.00  0.00    +0.000 C 
ATOM     12  C   UNL     1       2.057   8.660  21.080  0.00  0.00    +0.000 C 
ATOM     13  C   UNL     1       2.534   6.301  19.028  0.00  0.00    +0.000 A 
ATOM     14  C   UNL     1       3.151   7.210  18.080  0.00  0.00    +0.000 A 
ATOM     15  C   UNL     1       2.673   8.593  17.756  0.00  0.00    +0.000 C 
ENDROOT
BRANCH  11  16
ATOM     16  N   UNL     1       0.591  10.505  20.278  0.00  0.00    +0.000 NA
ATOM     17  C   UNL     1      -0.850  10.612  20.002  0.00  0.00    +0.000 C 
ATOM     18  C   UNL     1      -1.154  11.668  18.938  0.00  0.00    +0.000 C 
ATOM     19  C   UNL     1      -0.641  13.030  19.374  0.00  0.00    +0.000 C 
ATOM     20  C   UNL     1       0.849  12.936  19.666  0.00  0.00    +0.000 C 
ATOM     21  C   UNL     1       1.158  11.815  20.664  0.00  0.00    +0.000 C 
ENDBRANCH  11  16
BRANCH   6  22
ATOM     22  C   UNL     1       0.878   2.902  20.863  0.00  0.00    +0.000 C 
BRANCH  22  23
ATOM     23  C   UNL     1       1.641   2.378  22.082  0.00  0.00    +0.000 C 
BRANCH  23  24
ATOM     24  N   UNL     1       3.087   2.348  21.856  0.00  0.00    +0.000 NA
ATOM     25  H   UNL     1       3.456   1.425  22.097  0.00  0.00    +0.000 HD
ATOM     26  H   UNL     1       3.540   3.007  22.486  0.00  0.00    +0.000 HD
ENDBRANCH  23  24
ENDBRANCH  22  23
ENDBRANCH   6  22
TORSDOF 4
ENDMDL
