MODEL 1
REMARK VINA RESULT:      -9.1      0.000      0.000
REMARK  Name = 
REMARK  6 active torsions:
REMARK  status: ('A' for Active; 'I' for Inactive)
REMARK    1  A    between atoms: C_1  and  C_2
REMARK    2  A    between atoms: C_4  and  N_5
REMARK    3  A    between atoms: N_8  and  C_9
REMARK    4  A    between atoms: C_12  and  C_13
REMARK    5  A    between atoms: C_20  and  C_21
REMARK    6  A    between atoms: C_27  and  N_28
REMARK                            x       y       z     vdW  Elec       q    Type
REMARK                         _______ _______ _______ _____ _____    ______ ____
ROOT
ATOM      1  N   UNL     1      -0.573  11.760  20.582  0.00  0.00    +0.000 N 
ATOM      2  C   UNL     1      -0.286  10.453  20.215  0.00  0.00    +0.000 C 
ATOM      3  O   UNL     1      -1.084   9.522  20.263  0.00  0.00    +0.000 OA
ATOM      4  N   UNL     1       1.030  10.314  19.805  0.00  0.00    +0.000 N 
ATOM      5  H   UNL     1      -0.048  12.477  20.102  0.00  0.00    +0.000 HD
ATOM      6  H   UNL     1       1.679  10.941  20.258  0.00  0.00    +0.000 HD
ENDROOT
BRANCH   1  10
ATOM      7  C   UNL     1      -5.197  13.409  20.139  0.00  0.00    +0.000 C 
ATOM      8  C   UNL     1      -4.061  13.044  21.063  0.00  0.00    +0.000 A 
ATOM      9  C   UNL     1      -2.876  12.594  20.454  0.00  0.00    +0.000 A 
ATOM     10  C   UNL     1      -1.787  12.146  21.197  0.00  0.00    +0.000 A 
ATOM     11  C   UNL     1      -1.917  12.066  22.578  0.00  0.00    +0.000 A 
ATOM     12  C   UNL     1      -3.089  12.529  23.203  0.00  0.00    +0.000 A 
ATOM     13  C   UNL     1      -4.169  13.062  22.472  0.00  0.00    +0.000 A 
BRANCH  13  14
ATOM     14  N   UNL     1      -5.317  13.534  23.094  0.00  0.00    +0.000 N 
ATOM     15  C   UNL     1      -6.156  12.677  23.948  0.00  0.00    +0.000 C 
ATOM     16  C   UNL     1      -7.584  13.263  23.957  0.00  0.00    +0.000 C 
ATOM     17  O   UNL     1      -7.613  14.647  24.364  0.00  0.00    +0.000 OA
ATOM     18  C   UNL     1      -6.745  15.441  23.531  0.00  0.00    +0.000 C 
ATOM     19  C   UNL     1      -5.303  14.919  23.609  0.00  0.00    +0.000 C 
ENDBRANCH  13  14
ENDBRANCH   1  10
BRANCH   4  20
ATOM     20  C   UNL     1       1.544   9.075  19.361  0.00  0.00    +0.000 A 
ATOM     21  C   UNL     1       1.815   8.814  18.017  0.00  0.00    +0.000 A 
ATOM     22  C   UNL     1       2.243   7.542  17.610  0.00  0.00    +0.000 A 
ATOM     23  C   UNL     1       2.441   6.503  18.535  0.00  0.00    +0.000 A 
ATOM     24  C   UNL     1       2.253   6.824  19.888  0.00  0.00    +0.000 A 
ATOM     25  C   UNL     1       1.787   8.080  20.299  0.00  0.00    +0.000 A 
BRANCH  23  26
ATOM     26  C   UNL     1       2.890   5.163  18.108  0.00  0.00    +0.000 A 
ATOM     27  C   UNL     1       2.053   4.035  18.264  0.00  0.00    +0.000 A 
ATOM     28  C   UNL     1       2.455   2.779  17.831  0.00  0.00    +0.000 A 
ATOM     29  N   UNL     1       3.627   2.514  17.226  0.00  0.00    +0.000 NA
ATOM     30  C   UNL     1       4.410   3.600  17.097  0.00  0.00    +0.000 A 
ATOM     31  N   UNL     1       5.644   3.592  16.528  0.00  0.00    +0.000 N 
ATOM     32  N   UNL     1       6.256   4.788  16.531  0.00  0.00    +0.000 NA
ATOM     33  C   UNL     1       5.372   5.596  17.148  0.00  0.00    +0.000 A 
ATOM     34  C   UNL     1       5.785   7.011  17.356  0.00  0.00    +0.000 C 
ATOM     35  C   UNL     1       4.154   4.912  17.502  0.00  0.00    +0.000 A 
ATOM     36  H   UNL     1       6.119   2.801  16.124  0.00  0.00    +0.000 HD
ENDBRANCH  23  26
ENDBRANCH   4  20
TORSDOF 4
ENDMDL
MODEL 2
REMARK VINA RESULT:      -8.8      0.797      2.137
REMARK  Name = 
REMARK  6 active torsions:
REMARK  status: ('A' for Active; 'I' for Inactive)
REMARK    1  A    between atoms: C_1  and  C_2
REMARK    2  A    between atoms: C_4  and  N_5
REMARK    3  A    between atoms: N_8  and  C_9
REMARK    4  A    between atoms: C_12  and  C_13
REMARK    5  A    between atoms: C_20  and  C_21
REMARK    6  A    between atoms: C_27  and  N_28
REMARK                            x       y       z     vdW  Elec       q    Type
REMARK                         _______ _______ _______ _____ _____    ______ ____
ROOT
ATOM      1  N   UNL     1      -0.711  11.840  20.620  0.00  0.00    +0.000 N 
ATOM      2  C   UNL     1      -0.406  10.545  20.226  0.00  0.00    +0.000 C 
ATOM      3  O   UNL     1      -1.203   9.611  20.217  0.00  0.00    +0.000 OA
ATOM      4  N   UNL     1       0.925  10.420  19.864  0.00  0.00    +0.000 N 
ATOM      5  H   UNL     1      -0.171  12.571  20.180  0.00  0.00    +0.000 HD
ATOM      6  H   UNL     1       1.554  11.035  20.360  0.00  0.00    +0.000 HD
ENDROOT
BRANCH   1  10
ATOM      7  C   UNL     1      -5.375  13.323  20.030  0.00  0.00    +0.000 C 
ATOM      8  C   UNL     1      -4.247  13.025  20.988  0.00  0.00    +0.000 A 
ATOM      9  C   UNL     1      -3.037  12.594  20.418  0.00  0.00    +0.000 A 
ATOM     10  C   UNL     1      -1.949  12.206  21.197  0.00  0.00    +0.000 A 
ATOM     11  C   UNL     1      -2.106  12.167  22.577  0.00  0.00    +0.000 A 
ATOM     12  C   UNL     1      -3.305  12.612  23.162  0.00  0.00    +0.000 A 
ATOM     13  C   UNL     1      -4.386  13.086  22.393  0.00  0.00    +0.000 A 
BRANCH  13  14
ATOM     14  N   UNL     1      -5.561  13.540  22.976  0.00  0.00    +0.000 N 
ATOM     15  C   UNL     1      -6.532  12.626  23.600  0.00  0.00    +0.000 C 
ATOM     16  C   UNL     1      -7.917  13.309  23.574  0.00  0.00    +0.000 C 
ATOM     17  O   UNL     1      -7.904  14.611  24.195  0.00  0.00    +0.000 OA
ATOM     18  C   UNL     1      -6.910  15.458  23.584  0.00  0.00    +0.000 C 
ATOM     19  C   UNL     1      -5.517  14.823  23.707  0.00  0.00    +0.000 C 
ENDBRANCH  13  14
ENDBRANCH   1  10
BRANCH   4  20
ATOM     20  C   UNL     1       1.460   9.195  19.406  0.00  0.00    +0.000 A 
ATOM     21  C   UNL     1       1.742   8.132  20.265  0.00  0.00    +0.000 A 
ATOM     22  C   UNL     1       2.352   6.967  19.779  0.00  0.00    +0.000 A 
ATOM     23  C   UNL     1       2.670   6.816  18.419  0.00  0.00    +0.000 A 
ATOM     24  C   UNL     1       2.286   7.861  17.565  0.00  0.00    +0.000 A 
ATOM     25  C   UNL     1       1.713   9.045  18.048  0.00  0.00    +0.000 A 
BRANCH  23  26
ATOM     26  C   UNL     1       3.314   5.589  17.907  0.00  0.00    +0.000 A 
ATOM     27  C   UNL     1       4.340   5.660  16.939  0.00  0.00    +0.000 A 
ATOM     28  C   UNL     1       4.974   4.514  16.481  0.00  0.00    +0.000 A 
ATOM     29  N   UNL     1       4.704   3.265  16.904  0.00  0.00    +0.000 NA
ATOM     30  C   UNL     1       3.718   3.222  17.818  0.00  0.00    +0.000 A 
ATOM     31  N   UNL     1       3.255   2.081  18.392  0.00  0.00    +0.000 N 
ATOM     32  N   UNL     1       2.248   2.274  19.260  0.00  0.00    +0.000 NA
ATOM     33  C   UNL     1       2.048   3.606  19.223  0.00  0.00    +0.000 A 
ATOM     34  C   UNL     1       0.938   4.142  20.058  0.00  0.00    +0.000 C 
ATOM     35  C   UNL     1       2.978   4.278  18.352  0.00  0.00    +0.000 A 
ATOM     36  H   UNL     1       3.587   1.144  18.230  0.00  0.00    +0.000 HD
ENDBRANCH  23  26
ENDBRANCH   4  20
TORSDOF 4
ENDMDL
MODEL 3
REMARK VINA RESULT:      -8.5      0.671      1.763
REMARK  Name = 
REMARK  6 active torsions:
REMARK  status: ('A' for Active; 'I' for Inactive)
REMARK    1  A    between atoms: C_1  and  C_2
REMARK    2  A    between atoms: C_4  and  N_5
REMARK    3  A    between atoms: N_8  and  C_9
REMARK    4  A    between atoms: C_12  and  C_13
REMARK    5  A    between atoms: C_20  and  C_21
REMARK    6  A    between atoms: C_27  and  N_28
REMARK                            x       y       z     vdW  Elec       q    Type
REMARK                         _______ _______ _______ _____ _____    ______ ____
ROOT
ATOM      1  N   UNL     1      -0.226  12.040  20.237  0.00  0.00    +0.000 N 
ATOM      2  C   UNL     1      -0.080  10.680  20.004  0.00  0.00    +0.000 C 
ATOM      3  O   UNL     1      -0.960   9.842  20.175  0.00  0.00    +0.000 OA
ATOM      4  N   UNL     1       1.200  10.369  19.573  0.00  0.00    +0.000 N 
ATOM      5  H   UNL     1       0.346  12.647  19.667  0.00  0.00    +0.000 HD
ATOM      6  H   UNL     1       1.923  10.972  19.937  0.00  0.00    +0.000 HD
ENDROOT
BRANCH   1  10
ATOM      7  C   UNL     1      -2.325  14.149  24.167  0.00  0.00    +0.000 C 
ATOM      8  C   UNL     1      -2.507  13.578  22.781  0.00  0.00    +0.000 A 
ATOM      9  C   UNL     1      -1.353  13.079  22.151  0.00  0.00    +0.000 A 
ATOM     10  C   UNL     1      -1.372  12.606  20.842  0.00  0.00    +0.000 A 
ATOM     11  C   UNL     1      -2.553  12.715  20.117  0.00  0.00    +0.000 A 
ATOM     12  C   UNL     1      -3.718  13.195  20.738  0.00  0.00    +0.000 A 
ATOM     13  C   UNL     1      -3.738  13.601  22.087  0.00  0.00    +0.000 A 
BRANCH  13  14
ATOM     14  N   UNL     1      -4.895  14.059  22.702  0.00  0.00    +0.000 N 
ATOM     15  C   UNL     1      -5.298  15.475  22.661  0.00  0.00    +0.000 C 
ATOM     16  C   UNL     1      -6.201  15.751  23.883  0.00  0.00    +0.000 C 
ATOM     17  O   UNL     1      -7.330  14.856  23.950  0.00  0.00    +0.000 OA
ATOM     18  C   UNL     1      -6.894  13.482  23.943  0.00  0.00    +0.000 C 
ATOM     19  C   UNL     1      -6.085  13.184  22.671  0.00  0.00    +0.000 C 
ENDBRANCH  13  14
ENDBRANCH   1  10
BRANCH   4  20
ATOM     20  C   UNL     1       1.575   9.046  19.250  0.00  0.00    +0.000 A 
ATOM     21  C   UNL     1       1.765   8.062  20.221  0.00  0.00    +0.000 A 
ATOM     22  C   UNL     1       2.221   6.786  19.862  0.00  0.00    +0.000 A 
ATOM     23  C   UNL     1       2.472   6.444  18.523  0.00  0.00    +0.000 A 
ATOM     24  C   UNL     1       2.180   7.423  17.561  0.00  0.00    +0.000 A 
ATOM     25  C   UNL     1       1.763   8.713  17.913  0.00  0.00    +0.000 A 
BRANCH  23  26
ATOM     26  C   UNL     1       2.954   5.101  18.144  0.00  0.00    +0.000 A 
ATOM     27  C   UNL     1       2.159   3.956  18.374  0.00  0.00    +0.000 A 
ATOM     28  C   UNL     1       2.590   2.695  17.987  0.00  0.00    +0.000 A 
ATOM     29  N   UNL     1       3.753   2.438  17.362  0.00  0.00    +0.000 NA
ATOM     30  C   UNL     1       4.496   3.542  17.163  0.00  0.00    +0.000 A 
ATOM     31  N   UNL     1       5.715   3.546  16.560  0.00  0.00    +0.000 N 
ATOM     32  N   UNL     1       6.287   4.760  16.492  0.00  0.00    +0.000 NA
ATOM     33  C   UNL     1       5.394   5.567  17.096  0.00  0.00    +0.000 A 
ATOM     34  C   UNL     1       5.766   7.002  17.229  0.00  0.00    +0.000 C 
ATOM     35  C   UNL     1       4.209   4.862  17.514  0.00  0.00    +0.000 A 
ATOM     36  H   UNL     1       6.205   2.753  16.179  0.00  0.00    +0.000 HD
ENDBRANCH  23  26
ENDBRANCH   4  20
TORSDOF 4
ENDMDL
MODEL 4
REMARK VINA RESULT:      -8.5      0.524      1.228
REMARK  Name = 
REMARK  6 active torsions:
REMARK  status: ('A' for Active; 'I' for Inactive)
REMARK    1  A    between atoms: C_1  and  C_2
REMARK    2  A    between atoms: C_4  and  N_5
REMARK    3  A    between atoms: N_8  and  C_9
REMARK    4  A    between atoms: C_12  and  C_13
REMARK    5  A    between atoms: C_20  and  C_21
REMARK    6  A    between atoms: C_27  and  N_28
REMARK                            x       y       z     vdW  Elec       q    Type
REMARK                         _______ _______ _______ _____ _____    ______ ____
ROOT
ATOM      1  N   UNL     1      -0.511  12.049  20.163  0.00  0.00    +0.000 N 
ATOM      2  C   UNL     1      -0.247  10.707  19.925  0.00  0.00    +0.000 C 
ATOM      3  O   UNL     1      -1.039   9.792  20.129  0.00  0.00    +0.000 OA
ATOM      4  N   UNL     1       1.039  10.516  19.448  0.00  0.00    +0.000 N 
ATOM      5  H   UNL     1      -0.021  12.704  19.572  0.00  0.00    +0.000 HD
ATOM      6  H   UNL     1       1.715  11.185  19.785  0.00  0.00    +0.000 HD
ENDROOT
BRANCH   1  10
ATOM      7  C   UNL     1      -2.659  13.948  24.172  0.00  0.00    +0.000 C 
ATOM      8  C   UNL     1      -2.835  13.368  22.790  0.00  0.00    +0.000 A 
ATOM      9  C   UNL     1      -1.663  12.976  22.120  0.00  0.00    +0.000 A 
ATOM     10  C   UNL     1      -1.683  12.507  20.808  0.00  0.00    +0.000 A 
ATOM     11  C   UNL     1      -2.892  12.512  20.124  0.00  0.00    +0.000 A 
ATOM     12  C   UNL     1      -4.075  12.884  20.787  0.00  0.00    +0.000 A 
ATOM     13  C   UNL     1      -4.085  13.282  22.138  0.00  0.00    +0.000 A 
BRANCH  13  14
ATOM     14  N   UNL     1      -5.258  13.632  22.793  0.00  0.00    +0.000 N 
ATOM     15  C   UNL     1      -5.765  12.878  23.951  0.00  0.00    +0.000 C 
ATOM     16  C   UNL     1      -7.291  13.100  24.036  0.00  0.00    +0.000 C 
ATOM     17  O   UNL     1      -7.646  14.497  24.087  0.00  0.00    +0.000 OA
ATOM     18  C   UNL     1      -7.093  15.206  22.960  0.00  0.00    +0.000 C 
ATOM     19  C   UNL     1      -5.563  15.070  22.941  0.00  0.00    +0.000 C 
ENDBRANCH  13  14
ENDBRANCH   1  10
BRANCH   4  20
ATOM     20  C   UNL     1       1.525   9.232  19.112  0.00  0.00    +0.000 A 
ATOM     21  C   UNL     1       1.793   8.852  17.797  0.00  0.00    +0.000 A 
ATOM     22  C   UNL     1       2.191   7.540  17.501  0.00  0.00    +0.000 A 
ATOM     23  C   UNL     1       2.363   6.579  18.512  0.00  0.00    +0.000 A 
ATOM     24  C   UNL     1       2.180   7.017  19.832  0.00  0.00    +0.000 A 
ATOM     25  C   UNL     1       1.743   8.314  20.133  0.00  0.00    +0.000 A 
BRANCH  23  26
ATOM     26  C   UNL     1       2.781   5.197  18.201  0.00  0.00    +0.000 A 
ATOM     27  C   UNL     1       1.932   4.104  18.481  0.00  0.00    +0.000 A 
ATOM     28  C   UNL     1       2.305   2.806  18.158  0.00  0.00    +0.000 A 
ATOM     29  N   UNL     1       3.457   2.466  17.553  0.00  0.00    +0.000 NA
ATOM     30  C   UNL     1       4.252   3.522  17.305  0.00  0.00    +0.000 A 
ATOM     31  N   UNL     1       5.471   3.440  16.710  0.00  0.00    +0.000 N 
ATOM     32  N   UNL     1       6.100   4.620  16.587  0.00  0.00    +0.000 NA
ATOM     33  C   UNL     1       5.245   5.497  17.146  0.00  0.00    +0.000 A 
ATOM     34  C   UNL     1       5.684   6.918  17.211  0.00  0.00    +0.000 C 
ATOM     35  C   UNL     1       4.026   4.869  17.591  0.00  0.00    +0.000 A 
ATOM     36  H   UNL     1       5.925   2.607  16.371  0.00  0.00    +0.000 HD
ENDBRANCH  23  26
ENDBRANCH   4  20
TORSDOF 4
ENDMDL
MODEL 5
REMARK VINA RESULT:      -8.3      0.975      1.869
REMARK  Name = 
REMARK  6 active torsions:
REMARK  status: ('A' for Active; 'I' for Inactive)
REMARK    1  A    between atoms: C_1  and  C_2
REMARK    2  A    between atoms: C_4  and  N_5
REMARK    3  A    between atoms: N_8  and  C_9
REMARK    4  A    between atoms: C_12  and  C_13
REMARK    5  A    between atoms: C_20  and  C_21
REMARK    6  A    between atoms: C_27  and  N_28
REMARK                            x       y       z     vdW  Elec       q    Type
REMARK                         _______ _______ _______ _____ _____    ______ ____
ROOT
ATOM      1  N   UNL     1      -0.219  11.351  21.423  0.00  0.00    +0.000 N 
ATOM      2  C   UNL     1      -0.108  10.117  20.796  0.00  0.00    +0.000 C 
ATOM      3  O   UNL     1      -1.031   9.529  20.242  0.00  0.00    +0.000 OA
ATOM      4  N   UNL     1       1.177   9.610  20.891  0.00  0.00    +0.000 N 
ATOM      5  H   UNL     1       0.617  11.917  21.430  0.00  0.00    +0.000 HD
ATOM      6  H   UNL     1       1.673   9.877  21.729  0.00  0.00    +0.000 HD
ENDROOT
BRANCH   1  10
ATOM      7  C   UNL     1      -4.002  12.432  24.392  0.00  0.00    +0.000 C 
ATOM      8  C   UNL     1      -3.406  12.522  23.009  0.00  0.00    +0.000 A 
ATOM      9  C   UNL     1      -2.147  11.924  22.827  0.00  0.00    +0.000 A 
ATOM     10  C   UNL     1      -1.453  12.012  21.623  0.00  0.00    +0.000 A 
ATOM     11  C   UNL     1      -1.993  12.789  20.605  0.00  0.00    +0.000 A 
ATOM     12  C   UNL     1      -3.259  13.378  20.765  0.00  0.00    +0.000 A 
ATOM     13  C   UNL     1      -4.012  13.230  21.947  0.00  0.00    +0.000 A 
BRANCH  13  14
ATOM     14  N   UNL     1      -5.270  13.800  22.094  0.00  0.00    +0.000 N 
ATOM     15  C   UNL     1      -5.503  15.243  21.924  0.00  0.00    +0.000 C 
ATOM     16  C   UNL     1      -6.766  15.622  22.728  0.00  0.00    +0.000 C 
ATOM     17  O   UNL     1      -7.914  14.830  22.362  0.00  0.00    +0.000 OA
ATOM     18  C   UNL     1      -7.628  13.424  22.500  0.00  0.00    +0.000 C 
ATOM     19  C   UNL     1      -6.436  13.030  21.615  0.00  0.00    +0.000 C 
ENDBRANCH  13  14
ENDBRANCH   1  10
BRANCH   4  20
ATOM     20  C   UNL     1       1.534   8.374  20.305  0.00  0.00    +0.000 A 
ATOM     21  C   UNL     1       1.505   7.172  21.014  0.00  0.00    +0.000 A 
ATOM     22  C   UNL     1       1.950   5.983  20.418  0.00  0.00    +0.000 A 
ATOM     23  C   UNL     1       2.407   5.953  19.090  0.00  0.00    +0.000 A 
ATOM     24  C   UNL     1       2.332   7.157  18.373  0.00  0.00    +0.000 A 
ATOM     25  C   UNL     1       1.928   8.357  18.973  0.00  0.00    +0.000 A 
BRANCH  23  26
ATOM     26  C   UNL     1       2.876   4.702  18.462  0.00  0.00    +0.000 A 
ATOM     27  C   UNL     1       2.128   3.509  18.577  0.00  0.00    +0.000 A 
ATOM     28  C   UNL     1       2.545   2.339  17.958  0.00  0.00    +0.000 A 
ATOM     29  N   UNL     1       3.650   2.223  17.199  0.00  0.00    +0.000 NA
ATOM     30  C   UNL     1       4.350   3.368  17.112  0.00  0.00    +0.000 A 
ATOM     31  N   UNL     1       5.507   3.507  16.412  0.00  0.00    +0.000 N 
ATOM     32  N   UNL     1       6.047   4.735  16.486  0.00  0.00    +0.000 NA
ATOM     33  C   UNL     1       5.199   5.407  17.288  0.00  0.00    +0.000 A 
ATOM     34  C   UNL     1       5.555   6.816  17.612  0.00  0.00    +0.000 C 
ATOM     35  C   UNL     1       4.072   4.606  17.693  0.00  0.00    +0.000 A 
ATOM     36  H   UNL     1       5.974   2.800  15.867  0.00  0.00    +0.000 HD
ENDBRANCH  23  26
ENDBRANCH   4  20
TORSDOF 4
ENDMDL
MODEL 6
REMARK VINA RESULT:      -8.3      0.981      2.670
REMARK  Name = 
REMARK  6 active torsions:
REMARK  status: ('A' for Active; 'I' for Inactive)
REMARK    1  A    between atoms: C_1  and  C_2
REMARK    2  A    between atoms: C_4  and  N_5
REMARK    3  A    between atoms: N_8  and  C_9
REMARK    4  A    between atoms: C_12  and  C_13
REMARK    5  A    between atoms: C_20  and  C_21
REMARK    6  A    between atoms: C_27  and  N_28
REMARK                            x       y       z     vdW  Elec       q    Type
REMARK                         _______ _______ _______ _____ _____    ______ ____
ROOT
ATOM      1  N   UNL     1      -0.399  11.979  20.449  0.00  0.00    +0.000 N 
ATOM      2  C   UNL     1      -0.184  10.645  20.128  0.00  0.00    +0.000 C 
ATOM      3  O   UNL     1      -1.041   9.768  20.176  0.00  0.00    +0.000 OA
ATOM      4  N   UNL     1       1.132  10.412  19.766  0.00  0.00    +0.000 N 
ATOM      5  H   UNL     1       0.185  12.646  19.966  0.00  0.00    +0.000 HD
ATOM      6  H   UNL     1       1.805  11.010  20.223  0.00  0.00    +0.000 HD
ENDROOT
BRANCH   1  10
ATOM      7  C   UNL     1      -3.133  12.872  24.452  0.00  0.00    +0.000 C 
ATOM      8  C   UNL     1      -3.055  12.850  22.945  0.00  0.00    +0.000 A 
ATOM      9  C   UNL     1      -1.832  12.439  22.385  0.00  0.00    +0.000 A 
ATOM     10  C   UNL     1      -1.604  12.458  21.011  0.00  0.00    +0.000 A 
ATOM     11  C   UNL     1      -2.592  12.980  20.185  0.00  0.00    +0.000 A 
ATOM     12  C   UNL     1      -3.827  13.378  20.728  0.00  0.00    +0.000 A 
ATOM     13  C   UNL     1      -4.104  13.289  22.106  0.00  0.00    +0.000 A 
BRANCH  13  14
ATOM     14  N   UNL     1      -5.331  13.666  22.636  0.00  0.00    +0.000 N 
ATOM     15  C   UNL     1      -5.743  15.076  22.734  0.00  0.00    +0.000 C 
ATOM     16  C   UNL     1      -6.784  15.193  23.868  0.00  0.00    +0.000 C 
ATOM     17  O   UNL     1      -7.903  14.301  23.686  0.00  0.00    +0.000 OA
ATOM     18  C   UNL     1      -7.453  12.939  23.550  0.00  0.00    +0.000 C 
ATOM     19  C   UNL     1      -6.499  12.807  22.354  0.00  0.00    +0.000 C 
ENDBRANCH  13  14
ENDBRANCH   1  10
BRANCH   4  20
ATOM     20  C   UNL     1       1.580   9.130  19.375  0.00  0.00    +0.000 A 
ATOM     21  C   UNL     1       1.849   8.117  20.296  0.00  0.00    +0.000 A 
ATOM     22  C   UNL     1       2.375   6.888  19.869  0.00  0.00    +0.000 A 
ATOM     23  C   UNL     1       2.617   6.624  18.511  0.00  0.00    +0.000 A 
ATOM     24  C   UNL     1       2.245   7.626  17.601  0.00  0.00    +0.000 A 
ATOM     25  C   UNL     1       1.759   8.871  18.021  0.00  0.00    +0.000 A 
BRANCH  23  26
ATOM     26  C   UNL     1       3.170   5.331  18.061  0.00  0.00    +0.000 A 
ATOM     27  C   UNL     1       4.168   5.279  17.062  0.00  0.00    +0.000 A 
ATOM     28  C   UNL     1       4.718   4.069  16.662  0.00  0.00    +0.000 A 
ATOM     29  N   UNL     1       4.389   2.868  17.172  0.00  0.00    +0.000 NA
ATOM     30  C   UNL     1       3.432   2.943  18.114  0.00  0.00    +0.000 A 
ATOM     31  N   UNL     1       2.921   1.870  18.774  0.00  0.00    +0.000 N 
ATOM     32  N   UNL     1       1.955   2.178  19.655  0.00  0.00    +0.000 NA
ATOM     33  C   UNL     1       1.833   3.515  19.538  0.00  0.00    +0.000 A 
ATOM     34  C   UNL     1       0.784   4.169  20.367  0.00  0.00    +0.000 C 
ATOM     35  C   UNL     1       2.773   4.074  18.600  0.00  0.00    +0.000 A 
ATOM     36  H   UNL     1       3.192   0.906  18.663  0.00  0.00    +0.000 HD
ENDBRANCH  23  26
ENDBRANCH   4  20
TORSDOF 4
ENDMDL
MODEL 7
REMARK VINA RESULT:      -8.2      2.804      3.832
REMARK  Name = 
REMARK  6 active torsions:
REMARK  status: ('A' for Active; 'I' for Inactive)
REMARK    1  A    between atoms: C_1  and  C_2
REMARK    2  A    between atoms: C_4  and  N_5
REMARK    3  A    between atoms: N_8  and  C_9
REMARK    4  A    between atoms: C_12  and  C_13
REMARK    5  A    between atoms: C_20  and  C_21
REMARK    6  A    between atoms: C_27  and  N_28
REMARK                            x       y       z     vdW  Elec       q    Type
REMARK                         _______ _______ _______ _____ _____    ______ ____
ROOT
ATOM      1  N   UNL     1      -1.105  11.510  21.091  0.00  0.00    +0.000 N 
ATOM      2  C   UNL     1       0.077  10.861  20.763  0.00  0.00    +0.000 C 
ATOM      3  O   UNL     1       1.171  11.106  21.262  0.00  0.00    +0.000 OA
ATOM      4  N   UNL     1      -0.119   9.909  19.776  0.00  0.00    +0.000 N 
ATOM      5  H   UNL     1      -1.948  10.965  20.986  0.00  0.00    +0.000 HD
ATOM      6  H   UNL     1      -0.856  10.128  19.122  0.00  0.00    +0.000 HD
ENDROOT
BRANCH   1  10
ATOM      7  C   UNL     1       0.674  15.920  22.389  0.00  0.00    +0.000 C 
ATOM      8  C   UNL     1      -0.278  14.791  22.701  0.00  0.00    +0.000 A 
ATOM      9  C   UNL     1      -0.271  13.700  21.814  0.00  0.00    +0.000 A 
ATOM     10  C   UNL     1      -1.162  12.637  21.942  0.00  0.00    +0.000 A 
ATOM     11  C   UNL     1      -2.138  12.709  22.929  0.00  0.00    +0.000 A 
ATOM     12  C   UNL     1      -2.146  13.785  23.834  0.00  0.00    +0.000 A 
ATOM     13  C   UNL     1      -1.201  14.828  23.770  0.00  0.00    +0.000 A 
BRANCH  13  14
ATOM     14  N   UNL     1      -1.203  15.879  24.676  0.00  0.00    +0.000 N 
ATOM     15  C   UNL     1      -2.028  17.083  24.481  0.00  0.00    +0.000 C 
ATOM     16  C   UNL     1      -1.368  18.246  25.253  0.00  0.00    +0.000 C 
ATOM     17  O   UNL     1      -1.161  17.937  26.647  0.00  0.00    +0.000 OA
ATOM     18  C   UNL     1      -0.389  16.730  26.794  0.00  0.00    +0.000 C 
ATOM     19  C   UNL     1      -1.102  15.552  26.113  0.00  0.00    +0.000 C 
ENDBRANCH  13  14
ENDBRANCH   1  10
BRANCH   4  20
ATOM     20  C   UNL     1       0.940   9.105  19.297  0.00  0.00    +0.000 A 
ATOM     21  C   UNL     1       1.512   9.291  18.038  0.00  0.00    +0.000 A 
ATOM     22  C   UNL     1       2.502   8.415  17.569  0.00  0.00    +0.000 A 
ATOM     23  C   UNL     1       2.971   7.348  18.354  0.00  0.00    +0.000 A 
ATOM     24  C   UNL     1       2.447   7.246  19.651  0.00  0.00    +0.000 A 
ATOM     25  C   UNL     1       1.429   8.091  20.113  0.00  0.00    +0.000 A 
BRANCH  23  26
ATOM     26  C   UNL     1       4.013   6.425  17.861  0.00  0.00    +0.000 A 
ATOM     27  C   UNL     1       5.292   6.903  17.501  0.00  0.00    +0.000 A 
ATOM     28  C   UNL     1       6.287   6.036  17.072  0.00  0.00    +0.000 A 
ATOM     29  N   UNL     1       6.153   4.700  16.974  0.00  0.00    +0.000 NA
ATOM     30  C   UNL     1       4.924   4.270  17.313  0.00  0.00    +0.000 A 
ATOM     31  N   UNL     1       4.535   2.968  17.289  0.00  0.00    +0.000 N 
ATOM     32  N   UNL     1       3.254   2.773  17.644  0.00  0.00    +0.000 NA
ATOM     33  C   UNL     1       2.800   4.017  17.890  0.00  0.00    +0.000 A 
ATOM     34  C   UNL     1       1.365   4.147  18.266  0.00  0.00    +0.000 C 
ATOM     35  C   UNL     1       3.824   5.018  17.736  0.00  0.00    +0.000 A 
ATOM     36  H   UNL     1       5.099   2.172  17.039  0.00  0.00    +0.000 HD
ENDBRANCH  23  26
ENDBRANCH   4  20
TORSDOF 4
ENDMDL
MODEL 8
REMARK VINA RESULT:      -8.2      0.490      1.273
REMARK  Name = 
REMARK  6 active torsions:
REMARK  status: ('A' for Active; 'I' for Inactive)
REMARK    1  A    between atoms: C_1  and  C_2
REMARK    2  A    between atoms: C_4  and  N_5
REMARK    3  A    between atoms: N_8  and  C_9
REMARK    4  A    between atoms: C_12  and  C_13
REMARK    5  A    between atoms: C_20  and  C_21
REMARK    6  A    between atoms: C_27  and  N_28
REMARK                            x       y       z     vdW  Elec       q    Type
REMARK                         _______ _______ _______ _____ _____    ______ ____
ROOT
ATOM      1  N   UNL     1      -0.317  11.445  21.071  0.00  0.00    +0.000 N 
ATOM      2  C   UNL     1      -0.153  10.147  20.609  0.00  0.00    +0.000 C 
ATOM      3  O   UNL     1      -1.064   9.342  20.447  0.00  0.00    +0.000 OA
ATOM      4  N   UNL     1       1.180   9.854  20.372  0.00  0.00    +0.000 N 
ATOM      5  H   UNL     1       0.364  12.116  20.747  0.00  0.00    +0.000 HD
ATOM      6  H   UNL     1       1.830  10.337  20.975  0.00  0.00    +0.000 HD
ENDROOT
BRANCH   1  10
ATOM      7  C   UNL     1      -4.764  13.346  20.116  0.00  0.00    +0.000 C 
ATOM      8  C   UNL     1      -3.736  12.978  21.158  0.00  0.00    +0.000 A 
ATOM      9  C   UNL     1      -2.538  12.411  20.686  0.00  0.00    +0.000 A 
ATOM     10  C   UNL     1      -1.548  11.949  21.550  0.00  0.00    +0.000 A 
ATOM     11  C   UNL     1      -1.799  11.977  22.917  0.00  0.00    +0.000 A 
ATOM     12  C   UNL     1      -2.984  12.556  23.403  0.00  0.00    +0.000 A 
ATOM     13  C   UNL     1      -3.960  13.103  22.547  0.00  0.00    +0.000 A 
BRANCH  13  14
ATOM     14  N   UNL     1      -5.120  13.689  23.033  0.00  0.00    +0.000 N 
ATOM     15  C   UNL     1      -5.425  15.115  22.827  0.00  0.00    +0.000 C 
ATOM     16  C   UNL     1      -6.382  15.568  23.951  0.00  0.00    +0.000 C 
ATOM     17  O   UNL     1      -7.570  14.753  24.029  0.00  0.00    +0.000 OA
ATOM     18  C   UNL     1      -7.226  13.362  24.186  0.00  0.00    +0.000 C 
ATOM     19  C   UNL     1      -6.361  12.888  23.008  0.00  0.00    +0.000 C 
ENDBRANCH  13  14
ENDBRANCH   1  10
BRANCH   4  20
ATOM     20  C   UNL     1       1.588   8.595  19.874  0.00  0.00    +0.000 A 
ATOM     21  C   UNL     1       1.692   7.465  20.686  0.00  0.00    +0.000 A 
ATOM     22  C   UNL     1       2.183   6.259  20.167  0.00  0.00    +0.000 A 
ATOM     23  C   UNL     1       2.556   6.136  18.818  0.00  0.00    +0.000 A 
ATOM     24  C   UNL     1       2.348   7.261  18.005  0.00  0.00    +0.000 A 
ATOM     25  C   UNL     1       1.896   8.482  18.523  0.00  0.00    +0.000 A 
BRANCH  23  26
ATOM     26  C   UNL     1       3.074   4.866  18.271  0.00  0.00    +0.000 A 
ATOM     27  C   UNL     1       2.367   3.657  18.455  0.00  0.00    +0.000 A 
ATOM     28  C   UNL     1       2.830   2.466  17.913  0.00  0.00    +0.000 A 
ATOM     29  N   UNL     1       3.944   2.343  17.169  0.00  0.00    +0.000 NA
ATOM     30  C   UNL     1       4.604   3.504  17.015  0.00  0.00    +0.000 A 
ATOM     31  N   UNL     1       5.761   3.641  16.314  0.00  0.00    +0.000 N 
ATOM     32  N   UNL     1       6.257   4.890  16.316  0.00  0.00    +0.000 NA
ATOM     33  C   UNL     1       5.379   5.580  17.070  0.00  0.00    +0.000 A 
ATOM     34  C   UNL     1       5.683   7.017  17.309  0.00  0.00    +0.000 C 
ATOM     35  C   UNL     1       4.278   4.766  17.517  0.00  0.00    +0.000 A 
ATOM     36  H   UNL     1       6.257   2.919  15.818  0.00  0.00    +0.000 HD
ENDBRANCH  23  26
ENDBRANCH   4  20
TORSDOF 4
ENDMDL
MODEL 9
REMARK VINA RESULT:      -8.0      2.598      3.625
REMARK  Name = 
REMARK  6 active torsions:
REMARK  status: ('A' for Active; 'I' for Inactive)
REMARK    1  A    between atoms: C_1  and  C_2
REMARK    2  A    between atoms: C_4  and  N_5
REMARK    3  A    between atoms: N_8  and  C_9
REMARK    4  A    between atoms: C_12  and  C_13
REMARK    5  A    between atoms: C_20  and  C_21
REMARK    6  A    between atoms: C_27  and  N_28
REMARK                            x       y       z     vdW  Elec       q    Type
REMARK                         _______ _______ _______ _____ _____    ______ ____
ROOT
ATOM      1  N   UNL     1      -0.999  11.551  20.917  0.00  0.00    +0.000 N 
ATOM      2  C   UNL     1       0.167  10.843  20.658  0.00  0.00    +0.000 C 
ATOM      3  O   UNL     1       1.223  10.990  21.264  0.00  0.00    +0.000 OA
ATOM      4  N   UNL     1       0.004   9.957  19.606  0.00  0.00    +0.000 N 
ATOM      5  H   UNL     1      -1.861  11.069  20.707  0.00  0.00    +0.000 HD
ATOM      6  H   UNL     1      -0.656  10.257  18.903  0.00  0.00    +0.000 HD
ENDROOT
BRANCH   1  10
ATOM      7  C   UNL     1      -3.278  13.791  24.670  0.00  0.00    +0.000 C 
ATOM      8  C   UNL     1      -2.190  13.850  23.625  0.00  0.00    +0.000 A 
ATOM      9  C   UNL     1      -2.080  12.740  22.769  0.00  0.00    +0.000 A 
ATOM     10  C   UNL     1      -1.065  12.635  21.822  0.00  0.00    +0.000 A 
ATOM     11  C   UNL     1      -0.088  13.623  21.788  0.00  0.00    +0.000 A 
ATOM     12  C   UNL     1      -0.195  14.747  22.625  0.00  0.00    +0.000 A 
ATOM     13  C   UNL     1      -1.260  14.910  23.532  0.00  0.00    +0.000 A 
BRANCH  13  14
ATOM     14  N   UNL     1      -1.370  16.030  24.345  0.00  0.00    +0.000 N 
ATOM     15  C   UNL     1      -0.472  16.262  25.488  0.00  0.00    +0.000 C 
ATOM     16  C   UNL     1      -1.205  17.176  26.495  0.00  0.00    +0.000 C 
ATOM     17  O   UNL     1      -1.665  18.404  25.894  0.00  0.00    +0.000 OA
ATOM     18  C   UNL     1      -2.504  18.132  24.754  0.00  0.00    +0.000 C 
ATOM     19  C   UNL     1      -1.734  17.312  23.708  0.00  0.00    +0.000 C 
ENDBRANCH  13  14
ENDBRANCH   1  10
BRANCH   4  20
ATOM     20  C   UNL     1       1.051   9.110  19.177  0.00  0.00    +0.000 A 
ATOM     21  C   UNL     1       1.684   9.266  17.944  0.00  0.00    +0.000 A 
ATOM     22  C   UNL     1       2.659   8.350  17.522  0.00  0.00    +0.000 A 
ATOM     23  C   UNL     1       3.052   7.271  18.332  0.00  0.00    +0.000 A 
ATOM     24  C   UNL     1       2.468   7.197  19.606  0.00  0.00    +0.000 A 
ATOM     25  C   UNL     1       1.464   8.084  20.018  0.00  0.00    +0.000 A 
BRANCH  23  26
ATOM     26  C   UNL     1       4.078   6.306  17.890  0.00  0.00    +0.000 A 
ATOM     27  C   UNL     1       5.382   6.736  17.559  0.00  0.00    +0.000 A 
ATOM     28  C   UNL     1       6.361   5.829  17.178  0.00  0.00    +0.000 A 
ATOM     29  N   UNL     1       6.187   4.497  17.102  0.00  0.00    +0.000 NA
ATOM     30  C   UNL     1       4.936   4.113  17.412  0.00  0.00    +0.000 A 
ATOM     31  N   UNL     1       4.507   2.823  17.403  0.00  0.00    +0.000 N 
ATOM     32  N   UNL     1       3.210   2.676  17.722  0.00  0.00    +0.000 NA
ATOM     33  C   UNL     1       2.788   3.938  17.929  0.00  0.00    +0.000 A 
ATOM     34  C   UNL     1       1.348   4.121  18.258  0.00  0.00    +0.000 C 
ATOM     35  C   UNL     1       3.848   4.903  17.787  0.00  0.00    +0.000 A 
ATOM     36  H   UNL     1       5.052   2.005  17.185  0.00  0.00    +0.000 HD
ENDBRANCH  23  26
ENDBRANCH   4  20
TORSDOF 4
ENDMDL
