MODEL 1
REMARK VINA RESULT:      -8.5      0.000      0.000
REMARK  Name = 
REMARK  4 active torsions:
REMARK  status: ('A' for Active; 'I' for Inactive)
REMARK    1  A    between atoms: C_2  and  C_3
REMARK    2  A    between atoms: C_2  and  C_11
REMARK    3  A    between atoms: C_4  and  C_5
REMARK    4  A    between atoms: C_20  and  O_21
REMARK                            x       y       z     vdW  Elec       q    Type
REMARK                         _______ _______ _______ _____ _____    ______ ____
ROOT
ATOM      1  C   UNL     1       5.143   4.694  19.050  0.00  0.00    +0.000 A 
ATOM      2  C   UNL     1       4.344   5.796  19.268  0.00  0.00    +0.000 A 
ATOM      3  N   UNL     1       3.061   5.708  19.719  0.00  0.00    +0.000 NA
ATOM      4  C   UNL     1       2.467   4.495  19.702  0.00  0.00    +0.000 A 
ATOM      5  C   UNL     1       1.127   4.336  20.030  0.00  0.00    +0.000 A 
ATOM      6  C   UNL     1       0.426   3.176  19.679  0.00  0.00    +0.000 A 
ATOM      7  C   UNL     1       1.088   2.143  19.029  0.00  0.00    +0.000 A 
ATOM      8  C   UNL     1       2.474   2.188  18.929  0.00  0.00    +0.000 A 
ATOM      9  C   UNL     1       3.168   3.348  19.314  0.00  0.00    +0.000 A 
ATOM     10  C   UNL     1       4.556   3.460  19.264  0.00  0.00    +0.000 A 
ENDROOT
BRANCH   1  12
ATOM     11  O   UNL     1       7.436   5.204  19.224  0.00  0.00    +0.000 OA
ATOM     12  C   UNL     1       6.518   4.819  18.513  0.00  0.00    +0.000 C 
BRANCH  12  13
ATOM     13  C   UNL     1       6.694   4.510  17.061  0.00  0.00    +0.000 C 
ATOM     14  C   UNL     1       6.047   5.171  16.093  0.00  0.00    +0.000 C 
BRANCH  14  15
ATOM     15  C   UNL     1       6.313   4.819  14.694  0.00  0.00    +0.000 A 
ATOM     16  C   UNL     1       5.483   3.901  14.039  0.00  0.00    +0.000 A 
ATOM     17  C   UNL     1       5.768   3.492  12.736  0.00  0.00    +0.000 A 
ATOM     18  C   UNL     1       6.893   3.995  12.079  0.00  0.00    +0.000 A 
ATOM     19  C   UNL     1       7.719   4.907  12.735  0.00  0.00    +0.000 A 
ATOM     20  C   UNL     1       7.443   5.322  14.036  0.00  0.00    +0.000 A 
ENDBRANCH  14  15
ENDBRANCH  12  13
ENDBRANCH   1  12
BRANCH  10  21
ATOM     21  O   UNL     1       5.323   2.368  19.586  0.00  0.00    +0.000 OA
ATOM     22  H   UNL     1       5.123   1.701  18.893  0.00  0.00    +0.000 HD
ENDBRANCH  10  21
TORSDOF 4
ENDMDL
MODEL 2
REMARK VINA RESULT:      -8.4      0.140      1.061
REMARK  Name = 
REMARK  4 active torsions:
REMARK  status: ('A' for Active; 'I' for Inactive)
REMARK    1  A    between atoms: C_2  and  C_3
REMARK    2  A    between atoms: C_2  and  C_11
REMARK    3  A    between atoms: C_4  and  C_5
REMARK    4  A    between atoms: C_20  and  O_21
REMARK                            x       y       z     vdW  Elec       q    Type
REMARK                         _______ _______ _______ _____ _____    ______ ____
ROOT
ATOM      1  C   UNL     1       5.133   4.656  19.050  0.00  0.00    +0.000 A 
ATOM      2  C   UNL     1       4.336   5.761  19.262  0.00  0.00    +0.000 A 
ATOM      3  N   UNL     1       3.057   5.680  19.725  0.00  0.00    +0.000 NA
ATOM      4  C   UNL     1       2.463   4.467  19.727  0.00  0.00    +0.000 A 
ATOM      5  C   UNL     1       1.125   4.313  20.068  0.00  0.00    +0.000 A 
ATOM      6  C   UNL     1       0.421   3.149  19.737  0.00  0.00    +0.000 A 
ATOM      7  C   UNL     1       1.076   2.108  19.093  0.00  0.00    +0.000 A 
ATOM      8  C   UNL     1       2.462   2.152  18.980  0.00  0.00    +0.000 A 
ATOM      9  C   UNL     1       3.159   3.315  19.346  0.00  0.00    +0.000 A 
ATOM     10  C   UNL     1       4.547   3.426  19.284  0.00  0.00    +0.000 A 
ENDROOT
BRANCH   1  12
ATOM     11  O   UNL     1       7.420   5.201  19.188  0.00  0.00    +0.000 OA
ATOM     12  C   UNL     1       6.503   4.775  18.500  0.00  0.00    +0.000 C 
BRANCH  12  13
ATOM     13  C   UNL     1       6.675   4.404  17.062  0.00  0.00    +0.000 C 
ATOM     14  C   UNL     1       6.337   5.220  16.055  0.00  0.00    +0.000 C 
BRANCH  14  15
ATOM     15  C   UNL     1       6.577   4.782  14.676  0.00  0.00    +0.000 A 
ATOM     16  C   UNL     1       7.587   5.389  13.921  0.00  0.00    +0.000 A 
ATOM     17  C   UNL     1       7.776   5.043  12.582  0.00  0.00    +0.000 A 
ATOM     18  C   UNL     1       6.948   4.090  11.987  0.00  0.00    +0.000 A 
ATOM     19  C   UNL     1       5.940   3.489  12.741  0.00  0.00    +0.000 A 
ATOM     20  C   UNL     1       5.744   3.828  14.078  0.00  0.00    +0.000 A 
ENDBRANCH  14  15
ENDBRANCH  12  13
ENDBRANCH   1  12
BRANCH  10  21
ATOM     21  O   UNL     1       5.316   2.337  19.612  0.00  0.00    +0.000 OA
ATOM     22  H   UNL     1       5.212   1.714  18.859  0.00  0.00    +0.000 HD
ENDBRANCH  10  21
TORSDOF 4
ENDMDL
MODEL 3
REMARK VINA RESULT:      -8.3      4.103      5.318
REMARK  Name = 
REMARK  4 active torsions:
REMARK  status: ('A' for Active; 'I' for Inactive)
REMARK    1  A    between atoms: C_2  and  C_3
REMARK    2  A    between atoms: C_2  and  C_11
REMARK    3  A    between atoms: C_4  and  C_5
REMARK    4  A    between atoms: C_20  and  O_21
REMARK                            x       y       z     vdW  Elec       q    Type
REMARK                         _______ _______ _______ _____ _____    ______ ____
ROOT
ATOM      1  C   UNL     1       5.454   6.177  17.544  0.00  0.00    +0.000 A 
ATOM      2  C   UNL     1       4.302   6.934  17.539  0.00  0.00    +0.000 A 
ATOM      3  N   UNL     1       3.090   6.448  17.929  0.00  0.00    +0.000 NA
ATOM      4  C   UNL     1       2.963   5.112  18.077  0.00  0.00    +0.000 A 
ATOM      5  C   UNL     1       1.736   4.523  18.355  0.00  0.00    +0.000 A 
ATOM      6  C   UNL     1       1.527   3.153  18.160  0.00  0.00    +0.000 A 
ATOM      7  C   UNL     1       2.574   2.353  17.722  0.00  0.00    +0.000 A 
ATOM      8  C   UNL     1       3.859   2.883  17.690  0.00  0.00    +0.000 A 
ATOM      9  C   UNL     1       4.058   4.256  17.918  0.00  0.00    +0.000 A 
ATOM     10  C   UNL     1       5.316   4.855  17.925  0.00  0.00    +0.000 A 
ENDROOT
BRANCH   1  12
ATOM     11  O   UNL     1       7.474   6.061  16.338  0.00  0.00    +0.000 OA
ATOM     12  C   UNL     1       6.748   6.720  17.069  0.00  0.00    +0.000 C 
BRANCH  12  13
ATOM     13  C   UNL     1       7.127   8.073  17.579  0.00  0.00    +0.000 C 
ATOM     14  C   UNL     1       8.377   8.388  17.944  0.00  0.00    +0.000 C 
BRANCH  14  15
ATOM     15  C   UNL     1       8.659   9.754  18.399  0.00  0.00    +0.000 A 
ATOM     16  C   UNL     1       8.387  10.837  17.555  0.00  0.00    +0.000 A 
ATOM     17  C   UNL     1       8.725  12.135  17.938  0.00  0.00    +0.000 A 
ATOM     18  C   UNL     1       9.346  12.359  19.168  0.00  0.00    +0.000 A 
ATOM     19  C   UNL     1       9.619  11.278  20.006  0.00  0.00    +0.000 A 
ATOM     20  C   UNL     1       9.285   9.977  19.633  0.00  0.00    +0.000 A 
ENDBRANCH  14  15
ENDBRANCH  12  13
ENDBRANCH   1  12
BRANCH  10  21
ATOM     21  O   UNL     1       6.377   4.167  18.460  0.00  0.00    +0.000 OA
ATOM     22  H   UNL     1       6.050   3.820  19.319  0.00  0.00    +0.000 HD
ENDBRANCH  10  21
TORSDOF 4
ENDMDL
MODEL 4
REMARK VINA RESULT:      -8.3      4.166      5.452
REMARK  Name = 
REMARK  4 active torsions:
REMARK  status: ('A' for Active; 'I' for Inactive)
REMARK    1  A    between atoms: C_2  and  C_3
REMARK    2  A    between atoms: C_2  and  C_11
REMARK    3  A    between atoms: C_4  and  C_5
REMARK    4  A    between atoms: C_20  and  O_21
REMARK                            x       y       z     vdW  Elec       q    Type
REMARK                         _______ _______ _______ _____ _____    ______ ____
ROOT
ATOM      1  C   UNL     1       5.816   6.257  17.564  0.00  0.00    +0.000 A 
ATOM      2  C   UNL     1       4.758   7.140  17.603  0.00  0.00    +0.000 A 
ATOM      3  N   UNL     1       3.498   6.776  17.972  0.00  0.00    +0.000 NA
ATOM      4  C   UNL     1       3.218   5.457  18.048  0.00  0.00    +0.000 A 
ATOM      5  C   UNL     1       1.930   4.999  18.298  0.00  0.00    +0.000 A 
ATOM      6  C   UNL     1       1.566   3.674  18.030  0.00  0.00    +0.000 A 
ATOM      7  C   UNL     1       2.516   2.784  17.546  0.00  0.00    +0.000 A 
ATOM      8  C   UNL     1       3.853   3.165  17.537  0.00  0.00    +0.000 A 
ATOM      9  C   UNL     1       4.208   4.491  17.839  0.00  0.00    +0.000 A 
ATOM     10  C   UNL     1       5.526   4.940  17.873  0.00  0.00    +0.000 A 
ENDROOT
BRANCH   1  12
ATOM     11  O   UNL     1       7.722   6.097  16.189  0.00  0.00    +0.000 OA
ATOM     12  C   UNL     1       7.165   6.672  17.114  0.00  0.00    +0.000 C 
BRANCH  12  13
ATOM     13  C   UNL     1       7.811   7.777  17.886  0.00  0.00    +0.000 C 
ATOM     14  C   UNL     1       7.999   9.003  17.381  0.00  0.00    +0.000 C 
BRANCH  14  15
ATOM     15  C   UNL     1       8.611  10.033  18.229  0.00  0.00    +0.000 A 
ATOM     16  C   UNL     1       9.059   9.699  19.512  0.00  0.00    +0.000 A 
ATOM     17  C   UNL     1       9.568  10.681  20.363  0.00  0.00    +0.000 A 
ATOM     18  C   UNL     1       9.624  12.009  19.937  0.00  0.00    +0.000 A 
ATOM     19  C   UNL     1       9.174  12.340  18.659  0.00  0.00    +0.000 A 
ATOM     20  C   UNL     1       8.665  11.366  17.802  0.00  0.00    +0.000 A 
ENDBRANCH  14  15
ENDBRANCH  12  13
ENDBRANCH   1  12
BRANCH  10  21
ATOM     21  O   UNL     1       6.499   4.108  18.366  0.00  0.00    +0.000 OA
ATOM     22  H   UNL     1       6.146   3.780  19.223  0.00  0.00    +0.000 HD
ENDBRANCH  10  21
TORSDOF 4
ENDMDL
MODEL 5
REMARK VINA RESULT:      -8.0      1.022      1.108
REMARK  Name = 
REMARK  4 active torsions:
REMARK  status: ('A' for Active; 'I' for Inactive)
REMARK    1  A    between atoms: C_2  and  C_3
REMARK    2  A    between atoms: C_2  and  C_11
REMARK    3  A    between atoms: C_4  and  C_5
REMARK    4  A    between atoms: C_20  and  O_21
REMARK                            x       y       z     vdW  Elec       q    Type
REMARK                         _______ _______ _______ _____ _____    ______ ____
ROOT
ATOM      1  C   UNL     1       4.616   5.757  18.326  0.00  0.00    +0.000 A 
ATOM      2  C   UNL     1       3.543   6.561  18.645  0.00  0.00    +0.000 A 
ATOM      3  N   UNL     1       2.469   6.121  19.358  0.00  0.00    +0.000 NA
ATOM      4  C   UNL     1       2.329   4.789  19.532  0.00  0.00    +0.000 A 
ATOM      5  C   UNL     1       1.203   4.249  20.140  0.00  0.00    +0.000 A 
ATOM      6  C   UNL     1       0.887   2.891  20.008  0.00  0.00    +0.000 A 
ATOM      7  C   UNL     1       1.733   2.055  19.291  0.00  0.00    +0.000 A 
ATOM      8  C   UNL     1       2.980   2.531  18.902  0.00  0.00    +0.000 A 
ATOM      9  C   UNL     1       3.296   3.890  19.070  0.00  0.00    +0.000 A 
ATOM     10  C   UNL     1       4.531   4.436  18.725  0.00  0.00    +0.000 A 
ENDROOT
BRANCH   1  12
ATOM     11  O   UNL     1       6.573   7.021  17.980  0.00  0.00    +0.000 OA
ATOM     12  C   UNL     1       5.748   6.252  17.508  0.00  0.00    +0.000 C 
BRANCH  12  13
ATOM     13  C   UNL     1       5.779   5.808  16.081  0.00  0.00    +0.000 C 
ATOM     14  C   UNL     1       6.775   5.071  15.570  0.00  0.00    +0.000 C 
BRANCH  14  15
ATOM     15  C   UNL     1       6.699   4.653  14.166  0.00  0.00    +0.000 A 
ATOM     16  C   UNL     1       5.744   3.707  13.774  0.00  0.00    +0.000 A 
ATOM     17  C   UNL     1       5.711   3.237  12.461  0.00  0.00    +0.000 A 
ATOM     18  C   UNL     1       6.640   3.705  11.530  0.00  0.00    +0.000 A 
ATOM     19  C   UNL     1       7.592   4.645  11.924  0.00  0.00    +0.000 A 
ATOM     20  C   UNL     1       7.634   5.121  13.233  0.00  0.00    +0.000 A 
ENDBRANCH  14  15
ENDBRANCH  12  13
ENDBRANCH   1  12
BRANCH  10  21
ATOM     21  O   UNL     1       5.667   3.697  18.940  0.00  0.00    +0.000 OA
ATOM     22  H   UNL     1       6.332   4.061  18.314  0.00  0.00    +0.000 HD
ENDBRANCH  10  21
TORSDOF 4
ENDMDL
MODEL 6
REMARK VINA RESULT:      -7.9      1.090      1.604
REMARK  Name = 
REMARK  4 active torsions:
REMARK  status: ('A' for Active; 'I' for Inactive)
REMARK    1  A    between atoms: C_2  and  C_3
REMARK    2  A    between atoms: C_2  and  C_11
REMARK    3  A    between atoms: C_4  and  C_5
REMARK    4  A    between atoms: C_20  and  O_21
REMARK                            x       y       z     vdW  Elec       q    Type
REMARK                         _______ _______ _______ _____ _____    ______ ____
ROOT
ATOM      1  C   UNL     1       4.504   5.840  18.302  0.00  0.00    +0.000 A 
ATOM      2  C   UNL     1       3.437   6.642  18.649  0.00  0.00    +0.000 A 
ATOM      3  N   UNL     1       2.422   6.222  19.454  0.00  0.00    +0.000 NA
ATOM      4  C   UNL     1       2.322   4.899  19.707  0.00  0.00    +0.000 A 
ATOM      5  C   UNL     1       1.250   4.373  20.418  0.00  0.00    +0.000 A 
ATOM      6  C   UNL     1       0.955   3.005  20.379  0.00  0.00    +0.000 A 
ATOM      7  C   UNL     1       1.770   2.146  19.653  0.00  0.00    +0.000 A 
ATOM      8  C   UNL     1       2.978   2.622  19.156  0.00  0.00    +0.000 A 
ATOM      9  C   UNL     1       3.275   3.994  19.230  0.00  0.00    +0.000 A 
ATOM     10  C   UNL     1       4.473   4.541  18.776  0.00  0.00    +0.000 A 
ENDROOT
BRANCH   1  12
ATOM     11  O   UNL     1       6.337   7.200  17.720  0.00  0.00    +0.000 OA
ATOM     12  C   UNL     1       5.569   6.310  17.385  0.00  0.00    +0.000 C 
BRANCH  12  13
ATOM     13  C   UNL     1       5.603   5.679  16.030  0.00  0.00    +0.000 C 
ATOM     14  C   UNL     1       6.739   5.281  15.441  0.00  0.00    +0.000 C 
BRANCH  14  15
ATOM     15  C   UNL     1       6.668   4.639  14.124  0.00  0.00    +0.000 A 
ATOM     16  C   UNL     1       7.606   4.970  13.140  0.00  0.00    +0.000 A 
ATOM     17  C   UNL     1       7.505   4.432  11.856  0.00  0.00    +0.000 A 
ATOM     18  C   UNL     1       6.458   3.562  11.546  0.00  0.00    +0.000 A 
ATOM     19  C   UNL     1       5.523   3.236  12.529  0.00  0.00    +0.000 A 
ATOM     20  C   UNL     1       5.615   3.769  13.813  0.00  0.00    +0.000 A 
ENDBRANCH  14  15
ENDBRANCH  12  13
ENDBRANCH   1  12
BRANCH  10  21
ATOM     21  O   UNL     1       5.636   3.834  18.952  0.00  0.00    +0.000 OA
ATOM     22  H   UNL     1       5.603   3.115  18.283  0.00  0.00    +0.000 HD
ENDBRANCH  10  21
TORSDOF 4
ENDMDL
MODEL 7
REMARK VINA RESULT:      -7.9      1.563      2.395
REMARK  Name = 
REMARK  4 active torsions:
REMARK  status: ('A' for Active; 'I' for Inactive)
REMARK    1  A    between atoms: C_2  and  C_3
REMARK    2  A    between atoms: C_2  and  C_11
REMARK    3  A    between atoms: C_4  and  C_5
REMARK    4  A    between atoms: C_20  and  O_21
REMARK                            x       y       z     vdW  Elec       q    Type
REMARK                         _______ _______ _______ _____ _____    ______ ____
ROOT
ATOM      1  C   UNL     1       5.364   5.614  17.229  0.00  0.00    +0.000 A 
ATOM      2  C   UNL     1       4.361   6.560  17.256  0.00  0.00    +0.000 A 
ATOM      3  N   UNL     1       3.454   6.653  18.268  0.00  0.00    +0.000 NA
ATOM      4  C   UNL     1       3.371   5.624  19.139  0.00  0.00    +0.000 A 
ATOM      5  C   UNL     1       2.394   5.583  20.126  0.00  0.00    +0.000 A 
ATOM      6  C   UNL     1       2.079   4.389  20.786  0.00  0.00    +0.000 A 
ATOM      7  C   UNL     1       2.782   3.230  20.484  0.00  0.00    +0.000 A 
ATOM      8  C   UNL     1       3.922   3.320  19.693  0.00  0.00    +0.000 A 
ATOM      9  C   UNL     1       4.243   4.533  19.061  0.00  0.00    +0.000 A 
ATOM     10  C   UNL     1       5.379   4.707  18.273  0.00  0.00    +0.000 A 
ENDROOT
BRANCH   1  12
ATOM     11  O   UNL     1       7.403   6.050  16.132  0.00  0.00    +0.000 OA
ATOM     12  C   UNL     1       6.307   5.508  16.091  0.00  0.00    +0.000 C 
BRANCH  12  13
ATOM     13  C   UNL     1       5.818   4.762  14.892  0.00  0.00    +0.000 C 
ATOM     14  C   UNL     1       6.625   4.379  13.894  0.00  0.00    +0.000 C 
BRANCH  14  15
ATOM     15  C   UNL     1       6.058   3.619  12.774  0.00  0.00    +0.000 A 
ATOM     16  C   UNL     1       4.734   3.845  12.382  0.00  0.00    +0.000 A 
ATOM     17  C   UNL     1       4.152   3.075  11.374  0.00  0.00    +0.000 A 
ATOM     18  C   UNL     1       4.892   2.066  10.755  0.00  0.00    +0.000 A 
ATOM     19  C   UNL     1       6.210   1.841  11.150  0.00  0.00    +0.000 A 
ATOM     20  C   UNL     1       6.800   2.605  12.155  0.00  0.00    +0.000 A 
ENDBRANCH  14  15
ENDBRANCH  12  13
ENDBRANCH   1  12
BRANCH  10  21
ATOM     21  O   UNL     1       6.546   4.088  18.644  0.00  0.00    +0.000 OA
ATOM     22  H   UNL     1       6.279   3.409  19.303  0.00  0.00    +0.000 HD
ENDBRANCH  10  21
TORSDOF 4
ENDMDL
MODEL 8
REMARK VINA RESULT:      -7.9      1.950      2.532
REMARK  Name = 
REMARK  4 active torsions:
REMARK  status: ('A' for Active; 'I' for Inactive)
REMARK    1  A    between atoms: C_2  and  C_3
REMARK    2  A    between atoms: C_2  and  C_11
REMARK    3  A    between atoms: C_4  and  C_5
REMARK    4  A    between atoms: C_20  and  O_21
REMARK                            x       y       z     vdW  Elec       q    Type
REMARK                         _______ _______ _______ _____ _____    ______ ____
ROOT
ATOM      1  C   UNL     1       4.179   5.031  18.110  0.00  0.00    +0.000 A 
ATOM      2  C   UNL     1       5.170   4.344  18.778  0.00  0.00    +0.000 A 
ATOM      3  N   UNL     1       4.914   3.328  19.650  0.00  0.00    +0.000 NA
ATOM      4  C   UNL     1       3.642   3.164  20.072  0.00  0.00    +0.000 A 
ATOM      5  C   UNL     1       3.314   2.233  21.049  0.00  0.00    +0.000 A 
ATOM      6  C   UNL     1       2.095   2.299  21.735  0.00  0.00    +0.000 A 
ATOM      7  C   UNL     1       1.174   3.285  21.407  0.00  0.00    +0.000 A 
ATOM      8  C   UNL     1       1.385   4.052  20.267  0.00  0.00    +0.000 A 
ATOM      9  C   UNL     1       2.602   3.953  19.570  0.00  0.00    +0.000 A 
ATOM     10  C   UNL     1       2.877   4.671  18.408  0.00  0.00    +0.000 A 
ENDROOT
BRANCH   1  12
ATOM     11  O   UNL     1       4.079   7.289  17.448  0.00  0.00    +0.000 OA
ATOM     12  C   UNL     1       4.487   6.162  17.205  0.00  0.00    +0.000 C 
BRANCH  12  13
ATOM     13  C   UNL     1       5.260   5.831  15.969  0.00  0.00    +0.000 C 
ATOM     14  C   UNL     1       5.235   4.620  15.398  0.00  0.00    +0.000 C 
BRANCH  14  15
ATOM     15  C   UNL     1       6.000   4.401  14.165  0.00  0.00    +0.000 A 
ATOM     16  C   UNL     1       7.156   5.152  13.923  0.00  0.00    +0.000 A 
ATOM     17  C   UNL     1       7.850   5.015  12.721  0.00  0.00    +0.000 A 
ATOM     18  C   UNL     1       7.387   4.130  11.746  0.00  0.00    +0.000 A 
ATOM     19  C   UNL     1       6.233   3.385  11.988  0.00  0.00    +0.000 A 
ATOM     20  C   UNL     1       5.533   3.514  13.187  0.00  0.00    +0.000 A 
ENDBRANCH  14  15
ENDBRANCH  12  13
ENDBRANCH   1  12
BRANCH  10  21
ATOM     21  O   UNL     1       1.871   4.874  17.498  0.00  0.00    +0.000 OA
ATOM     22  H   UNL     1       1.135   5.274  18.014  0.00  0.00    +0.000 HD
ENDBRANCH  10  21
TORSDOF 4
ENDMDL
MODEL 9
REMARK VINA RESULT:      -7.7      4.344      5.739
REMARK  Name = 
REMARK  4 active torsions:
REMARK  status: ('A' for Active; 'I' for Inactive)
REMARK    1  A    between atoms: C_2  and  C_3
REMARK    2  A    between atoms: C_2  and  C_11
REMARK    3  A    between atoms: C_4  and  C_5
REMARK    4  A    between atoms: C_20  and  O_21
REMARK                            x       y       z     vdW  Elec       q    Type
REMARK                         _______ _______ _______ _____ _____    ______ ____
ROOT
ATOM      1  C   UNL     1       6.389   5.902  17.907  0.00  0.00    +0.000 A 
ATOM      2  C   UNL     1       6.572   5.475  19.205  0.00  0.00    +0.000 A 
ATOM      3  N   UNL     1       5.671   4.695  19.866  0.00  0.00    +0.000 NA
ATOM      4  C   UNL     1       4.442   4.553  19.325  0.00  0.00    +0.000 A 
ATOM      5  C   UNL     1       3.428   3.875  19.990  0.00  0.00    +0.000 A 
ATOM      6  C   UNL     1       2.088   4.026  19.615  0.00  0.00    +0.000 A 
ATOM      7  C   UNL     1       1.762   4.831  18.532  0.00  0.00    +0.000 A 
ATOM      8  C   UNL     1       2.782   5.301  17.712  0.00  0.00    +0.000 A 
ATOM      9  C   UNL     1       4.124   5.116  18.085  0.00  0.00    +0.000 A 
ATOM     10  C   UNL     1       5.199   5.538  17.305  0.00  0.00    +0.000 A 
ENDROOT
BRANCH   1  12
ATOM     11  O   UNL     1       7.770   6.534  16.106  0.00  0.00    +0.000 OA
ATOM     12  C   UNL     1       7.365   6.789  17.231  0.00  0.00    +0.000 C 
BRANCH  12  13
ATOM     13  C   UNL     1       7.856   7.958  18.022  0.00  0.00    +0.000 C 
ATOM     14  C   UNL     1       8.261   9.102  17.455  0.00  0.00    +0.000 C 
BRANCH  14  15
ATOM     15  C   UNL     1       8.694  10.207  18.317  0.00  0.00    +0.000 A 
ATOM     16  C   UNL     1       8.645  11.521  17.837  0.00  0.00    +0.000 A 
ATOM     17  C   UNL     1       9.128  12.577  18.612  0.00  0.00    +0.000 A 
ATOM     18  C   UNL     1       9.671  12.323  19.872  0.00  0.00    +0.000 A 
ATOM     19  C   UNL     1       9.721  11.012  20.347  0.00  0.00    +0.000 A 
ATOM     20  C   UNL     1       9.241   9.951  19.581  0.00  0.00    +0.000 A 
ENDBRANCH  14  15
ENDBRANCH  12  13
ENDBRANCH   1  12
BRANCH  10  21
ATOM     21  O   UNL     1       5.110   5.435  15.939  0.00  0.00    +0.000 OA
ATOM     22  H   UNL     1       5.568   6.232  15.592  0.00  0.00    +0.000 HD
ENDBRANCH  10  21
TORSDOF 4
ENDMDL
