MODEL 1
REMARK VINA RESULT:      -7.8      0.000      0.000
REMARK  Name = 
REMARK  7 active torsions:
REMARK  status: ('A' for Active; 'I' for Inactive)
REMARK    1  A    between atoms: C_1  and  C_2
REMARK    2  A    between atoms: C_2  and  C_3
REMARK    3  A    between atoms: C_3  and  N_4
REMARK    4  A    between atoms: C_8  and  C_9
REMARK    5  A    between atoms: C_13  and  O_14
REMARK    6  A    between atoms: O_14  and  S_15
REMARK    7  A    between atoms: S_15  and  C_18
REMARK                            x       y       z     vdW  Elec       q    Type
REMARK                         _______ _______ _______ _____ _____    ______ ____
ROOT
ATOM      1  C   UNL     1       4.135   6.617  17.303  0.00  0.00    +0.000 A 
ATOM      2  C   UNL     1       3.469   7.679  17.934  0.00  0.00    +0.000 A 
ATOM      3  C   UNL     1       2.415   7.440  18.820  0.00  0.00    +0.000 A 
ATOM      4  C   UNL     1       1.978   6.137  19.054  0.00  0.00    +0.000 A 
ATOM      5  C   UNL     1       2.576   5.075  18.384  0.00  0.00    +0.000 A 
ATOM      6  C   UNL     1       3.660   5.317  17.542  0.00  0.00    +0.000 A 
ENDROOT
BRANCH   1  11
ATOM      7  N   UNL     1       6.041   4.521  15.877  0.00  0.00    +0.000 NA
ATOM      8  C   UNL     1       7.248   4.658  16.699  0.00  0.00    +0.000 C 
ATOM      9  C   UNL     1       7.088   5.711  17.797  0.00  0.00    +0.000 C 
ATOM     10  C   UNL     1       6.636   7.053  17.227  0.00  0.00    +0.000 C 
ATOM     11  C   UNL     1       5.346   6.886  16.402  0.00  0.00    +0.000 C 
ATOM     12  C   UNL     1       5.629   5.819  15.302  0.00  0.00    +0.000 C 
BRANCH   7  13
ATOM     13  C   UNL     1       6.150   3.473  14.851  0.00  0.00    +0.000 C 
BRANCH  13  15
ATOM     14  C   UNL     1       5.795   3.299  12.340  0.00  0.00    +0.000 C 
ATOM     15  C   UNL     1       6.481   4.052  13.468  0.00  0.00    +0.000 C 
ENDBRANCH  13  15
ENDBRANCH   7  13
ENDBRANCH   1  11
BRANCH   5  16
ATOM     16  O   UNL     1       2.046   3.827  18.610  0.00  0.00    +0.000 OA
BRANCH  16  17
ATOM     17  S   UNL     1       2.759   2.750  19.626  0.00  0.00    +0.000 S 
ATOM     18  O   UNL     1       2.436   1.398  19.188  0.00  0.00    +0.000 OA
ATOM     19  O   UNL     1       4.151   3.146  19.793  0.00  0.00    +0.000 OA
BRANCH  17  20
ATOM     20  C   UNL     1       1.792   3.158  21.126  0.00  0.00    +0.000 C 
ATOM     21  F   UNL     1       0.516   3.553  20.849  0.00  0.00    +0.000 F 
ATOM     22  F   UNL     1       1.684   2.094  21.977  0.00  0.00    +0.000 F 
ATOM     23  F   UNL     1       2.356   4.167  21.852  0.00  0.00    +0.000 F 
ENDBRANCH  17  20
ENDBRANCH  16  17
ENDBRANCH   5  16
TORSDOF 6
ENDMDL
MODEL 2
REMARK VINA RESULT:      -7.8      0.959      1.100
REMARK  Name = 
REMARK  7 active torsions:
REMARK  status: ('A' for Active; 'I' for Inactive)
REMARK    1  A    between atoms: C_1  and  C_2
REMARK    2  A    between atoms: C_2  and  C_3
REMARK    3  A    between atoms: C_3  and  N_4
REMARK    4  A    between atoms: C_8  and  C_9
REMARK    5  A    between atoms: C_13  and  O_14
REMARK    6  A    between atoms: O_14  and  S_15
REMARK    7  A    between atoms: S_15  and  C_18
REMARK                            x       y       z     vdW  Elec       q    Type
REMARK                         _______ _______ _______ _____ _____    ______ ____
ROOT
ATOM      1  C   UNL     1       4.543   6.896  17.602  0.00  0.00    +0.000 A 
ATOM      2  C   UNL     1       3.511   7.846  17.536  0.00  0.00    +0.000 A 
ATOM      3  C   UNL     1       2.447   7.813  18.440  0.00  0.00    +0.000 A 
ATOM      4  C   UNL     1       2.370   6.801  19.397  0.00  0.00    +0.000 A 
ATOM      5  C   UNL     1       3.343   5.808  19.433  0.00  0.00    +0.000 A 
ATOM      6  C   UNL     1       4.429   5.878  18.562  0.00  0.00    +0.000 A 
ENDROOT
BRANCH   1  11
ATOM      7  N   UNL     1       6.075   4.560  16.101  0.00  0.00    +0.000 NA
ATOM      8  C   UNL     1       7.315   4.511  16.883  0.00  0.00    +0.000 C 
ATOM      9  C   UNL     1       7.347   5.565  17.991  0.00  0.00    +0.000 C 
ATOM     10  C   UNL     1       7.077   6.963  17.445  0.00  0.00    +0.000 C 
ATOM     11  C   UNL     1       5.750   6.995  16.663  0.00  0.00    +0.000 C 
ATOM     12  C   UNL     1       5.838   5.910  15.548  0.00  0.00    +0.000 C 
BRANCH   7  13
ATOM     13  C   UNL     1       5.996   3.518  15.067  0.00  0.00    +0.000 C 
BRANCH  13  15
ATOM     14  C   UNL     1       5.713   3.482  12.540  0.00  0.00    +0.000 C 
ATOM     15  C   UNL     1       6.526   4.010  13.712  0.00  0.00    +0.000 C 
ENDBRANCH  13  15
ENDBRANCH   7  13
ENDBRANCH   1  11
BRANCH   5  16
ATOM     16  O   UNL     1       3.165   4.805  20.356  0.00  0.00    +0.000 OA
BRANCH  16  17
ATOM     17  S   UNL     1       2.851   3.256  19.908  0.00  0.00    +0.000 S 
ATOM     18  O   UNL     1       2.932   3.155  18.456  0.00  0.00    +0.000 OA
ATOM     19  O   UNL     1       3.658   2.376  20.742  0.00  0.00    +0.000 OA
BRANCH  17  20
ATOM     20  C   UNL     1       1.097   3.205  20.430  0.00  0.00    +0.000 C 
ATOM     21  F   UNL     1       0.306   2.486  19.582  0.00  0.00    +0.000 F 
ATOM     22  F   UNL     1       0.941   2.640  21.665  0.00  0.00    +0.000 F 
ATOM     23  F   UNL     1       0.541   4.449  20.511  0.00  0.00    +0.000 F 
ENDBRANCH  17  20
ENDBRANCH  16  17
ENDBRANCH   5  16
TORSDOF 6
ENDMDL
MODEL 3
REMARK VINA RESULT:      -7.7      1.809      2.006
REMARK  Name = 
REMARK  7 active torsions:
REMARK  status: ('A' for Active; 'I' for Inactive)
REMARK    1  A    between atoms: C_1  and  C_2
REMARK    2  A    between atoms: C_2  and  C_3
REMARK    3  A    between atoms: C_3  and  N_4
REMARK    4  A    between atoms: C_8  and  C_9
REMARK    5  A    between atoms: C_13  and  O_14
REMARK    6  A    between atoms: O_14  and  S_15
REMARK    7  A    between atoms: S_15  and  C_18
REMARK                            x       y       z     vdW  Elec       q    Type
REMARK                         _______ _______ _______ _____ _____    ______ ____
ROOT
ATOM      1  C   UNL     1       4.350   6.776  17.600  0.00  0.00    +0.000 A 
ATOM      2  C   UNL     1       3.381   7.782  17.738  0.00  0.00    +0.000 A 
ATOM      3  C   UNL     1       2.343   7.655  18.664  0.00  0.00    +0.000 A 
ATOM      4  C   UNL     1       2.228   6.499  19.436  0.00  0.00    +0.000 A 
ATOM      5  C   UNL     1       3.135   5.459  19.263  0.00  0.00    +0.000 A 
ATOM      6  C   UNL     1       4.198   5.615  18.375  0.00  0.00    +0.000 A 
ENDROOT
BRANCH   1  11
ATOM      7  N   UNL     1       5.974   4.567  16.005  0.00  0.00    +0.000 NA
ATOM      8  C   UNL     1       7.228   4.559  16.765  0.00  0.00    +0.000 C 
ATOM      9  C   UNL     1       7.225   5.581  17.904  0.00  0.00    +0.000 C 
ATOM     10  C   UNL     1       6.874   6.979  17.404  0.00  0.00    +0.000 C 
ATOM     11  C   UNL     1       5.534   6.964  16.645  0.00  0.00    +0.000 C 
ATOM     12  C   UNL     1       5.658   5.918  15.496  0.00  0.00    +0.000 C 
BRANCH   7  13
ATOM     13  C   UNL     1       5.931   3.553  14.941  0.00  0.00    +0.000 C 
BRANCH  13  15
ATOM     14  C   UNL     1       5.890   3.309  12.411  0.00  0.00    +0.000 C 
ATOM     15  C   UNL     1       6.411   4.111  13.593  0.00  0.00    +0.000 C 
ENDBRANCH  13  15
ENDBRANCH   7  13
ENDBRANCH   1  11
BRANCH   5  16
ATOM     16  O   UNL     1       2.918   4.324  20.006  0.00  0.00    +0.000 OA
BRANCH  16  17
ATOM     17  S   UNL     1       2.162   3.005  19.382  0.00  0.00    +0.000 S 
ATOM     18  O   UNL     1       1.614   2.210  20.473  0.00  0.00    +0.000 OA
ATOM     19  O   UNL     1       1.293   3.456  18.304  0.00  0.00    +0.000 OA
BRANCH  17  20
ATOM     20  C   UNL     1       3.647   2.176  18.703  0.00  0.00    +0.000 C 
ATOM     21  F   UNL     1       4.776   2.420  19.430  0.00  0.00    +0.000 F 
ATOM     22  F   UNL     1       3.508   0.818  18.662  0.00  0.00    +0.000 F 
ATOM     23  F   UNL     1       3.924   2.567  17.425  0.00  0.00    +0.000 F 
ENDBRANCH  17  20
ENDBRANCH  16  17
ENDBRANCH   5  16
TORSDOF 6
ENDMDL
MODEL 4
REMARK VINA RESULT:      -7.5      1.673      1.901
REMARK  Name = 
REMARK  7 active torsions:
REMARK  status: ('A' for Active; 'I' for Inactive)
REMARK    1  A    between atoms: C_1  and  C_2
REMARK    2  A    between atoms: C_2  and  C_3
REMARK    3  A    between atoms: C_3  and  N_4
REMARK    4  A    between atoms: C_8  and  C_9
REMARK    5  A    between atoms: C_13  and  O_14
REMARK    6  A    between atoms: O_14  and  S_15
REMARK    7  A    between atoms: S_15  and  C_18
REMARK                            x       y       z     vdW  Elec       q    Type
REMARK                         _______ _______ _______ _____ _____    ______ ____
ROOT
ATOM      1  C   UNL     1       4.376   6.663  17.653  0.00  0.00    +0.000 A 
ATOM      2  C   UNL     1       3.381   7.638  17.827  0.00  0.00    +0.000 A 
ATOM      3  C   UNL     1       2.381   7.479  18.790  0.00  0.00    +0.000 A 
ATOM      4  C   UNL     1       2.331   6.320  19.565  0.00  0.00    +0.000 A 
ATOM      5  C   UNL     1       3.264   5.309  19.358  0.00  0.00    +0.000 A 
ATOM      6  C   UNL     1       4.288   5.498  18.432  0.00  0.00    +0.000 A 
ENDROOT
BRANCH   1  11
ATOM      7  N   UNL     1       6.040   4.504  16.033  0.00  0.00    +0.000 NA
ATOM      8  C   UNL     1       7.318   4.562  16.750  0.00  0.00    +0.000 C 
ATOM      9  C   UNL     1       7.309   5.599  17.874  0.00  0.00    +0.000 C 
ATOM     10  C   UNL     1       6.880   6.973  17.368  0.00  0.00    +0.000 C 
ATOM     11  C   UNL     1       5.517   6.889  16.656  0.00  0.00    +0.000 C 
ATOM     12  C   UNL     1       5.649   5.832  15.517  0.00  0.00    +0.000 C 
BRANCH   7  13
ATOM     13  C   UNL     1       6.006   3.473  14.985  0.00  0.00    +0.000 C 
BRANCH  13  15
ATOM     14  C   UNL     1       6.327   3.437  12.463  0.00  0.00    +0.000 C 
ATOM     15  C   UNL     1       5.564   4.044  13.630  0.00  0.00    +0.000 C 
ENDBRANCH  13  15
ENDBRANCH   7  13
ENDBRANCH   1  11
BRANCH   5  16
ATOM     16  O   UNL     1       3.110   4.168  20.108  0.00  0.00    +0.000 OA
BRANCH  16  17
ATOM     17  S   UNL     1       1.646   3.452  20.314  0.00  0.00    +0.000 S 
ATOM     18  O   UNL     1       1.794   2.315  21.214  0.00  0.00    +0.000 OA
ATOM     19  O   UNL     1       0.676   4.496  20.617  0.00  0.00    +0.000 OA
BRANCH  17  20
ATOM     20  C   UNL     1       1.427   2.853  18.598  0.00  0.00    +0.000 C 
ATOM     21  F   UNL     1       1.107   3.848  17.720  0.00  0.00    +0.000 F 
ATOM     22  F   UNL     1       2.558   2.263  18.108  0.00  0.00    +0.000 F 
ATOM     23  F   UNL     1       0.437   1.919  18.494  0.00  0.00    +0.000 F 
ENDBRANCH  17  20
ENDBRANCH  16  17
ENDBRANCH   5  16
TORSDOF 6
ENDMDL
MODEL 5
REMARK VINA RESULT:      -7.4      1.826      2.057
REMARK  Name = 
REMARK  7 active torsions:
REMARK  status: ('A' for Active; 'I' for Inactive)
REMARK    1  A    between atoms: C_1  and  C_2
REMARK    2  A    between atoms: C_2  and  C_3
REMARK    3  A    between atoms: C_3  and  N_4
REMARK    4  A    between atoms: C_8  and  C_9
REMARK    5  A    between atoms: C_13  and  O_14
REMARK    6  A    between atoms: O_14  and  S_15
REMARK    7  A    between atoms: S_15  and  C_18
REMARK                            x       y       z     vdW  Elec       q    Type
REMARK                         _______ _______ _______ _____ _____    ______ ____
ROOT
ATOM      1  C   UNL     1       4.183   6.721  17.626  0.00  0.00    +0.000 A 
ATOM      2  C   UNL     1       3.250   7.722  17.941  0.00  0.00    +0.000 A 
ATOM      3  C   UNL     1       2.297   7.526  18.944  0.00  0.00    +0.000 A 
ATOM      4  C   UNL     1       2.229   6.306  19.618  0.00  0.00    +0.000 A 
ATOM      5  C   UNL     1       3.096   5.275  19.272  0.00  0.00    +0.000 A 
ATOM      6  C   UNL     1       4.077   5.497  18.307  0.00  0.00    +0.000 A 
ENDROOT
BRANCH   1  11
ATOM      7  N   UNL     1       6.015   4.615  16.121  0.00  0.00    +0.000 NA
ATOM      8  C   UNL     1       7.295   4.844  16.799  0.00  0.00    +0.000 C 
ATOM      9  C   UNL     1       7.207   5.954  17.848  0.00  0.00    +0.000 C 
ATOM     10  C   UNL     1       6.641   7.242  17.258  0.00  0.00    +0.000 C 
ATOM     11  C   UNL     1       5.279   6.980  16.587  0.00  0.00    +0.000 C 
ATOM     12  C   UNL     1       5.489   5.861  15.523  0.00  0.00    +0.000 C 
BRANCH   7  13
ATOM     13  C   UNL     1       6.060   3.513  15.148  0.00  0.00    +0.000 C 
BRANCH  13  15
ATOM     14  C   UNL     1       6.435   3.665  12.638  0.00  0.00    +0.000 C 
ATOM     15  C   UNL     1       5.474   3.920  13.788  0.00  0.00    +0.000 C 
ENDBRANCH  13  15
ENDBRANCH   7  13
ENDBRANCH   1  11
BRANCH   5  16
ATOM     16  O   UNL     1       2.924   4.080  19.928  0.00  0.00    +0.000 OA
BRANCH  16  17
ATOM     17  S   UNL     1       4.068   2.901  19.904  0.00  0.00    +0.000 S 
ATOM     18  O   UNL     1       5.339   3.480  19.491  0.00  0.00    +0.000 OA
ATOM     19  O   UNL     1       3.979   2.165  21.158  0.00  0.00    +0.000 OA
BRANCH  17  20
ATOM     20  C   UNL     1       3.366   1.914  18.531  0.00  0.00    +0.000 C 
ATOM     21  F   UNL     1       3.877   0.650  18.464  0.00  0.00    +0.000 F 
ATOM     22  F   UNL     1       2.011   1.770  18.636  0.00  0.00    +0.000 F 
ATOM     23  F   UNL     1       3.593   2.483  17.311  0.00  0.00    +0.000 F 
ENDBRANCH  17  20
ENDBRANCH  16  17
ENDBRANCH   5  16
TORSDOF 6
ENDMDL
MODEL 6
REMARK VINA RESULT:      -7.4      4.479      5.796
REMARK  Name = 
REMARK  7 active torsions:
REMARK  status: ('A' for Active; 'I' for Inactive)
REMARK    1  A    between atoms: C_1  and  C_2
REMARK    2  A    between atoms: C_2  and  C_3
REMARK    3  A    between atoms: C_3  and  N_4
REMARK    4  A    between atoms: C_8  and  C_9
REMARK    5  A    between atoms: C_13  and  O_14
REMARK    6  A    between atoms: O_14  and  S_15
REMARK    7  A    between atoms: S_15  and  C_18
REMARK                            x       y       z     vdW  Elec       q    Type
REMARK                         _______ _______ _______ _____ _____    ______ ____
ROOT
ATOM      1  C   UNL     1       2.349   7.154  19.534  0.00  0.00    +0.000 A 
ATOM      2  C   UNL     1       2.750   7.633  18.277  0.00  0.00    +0.000 A 
ATOM      3  C   UNL     1       2.220   8.817  17.758  0.00  0.00    +0.000 A 
ATOM      4  C   UNL     1       1.245   9.519  18.467  0.00  0.00    +0.000 A 
ATOM      5  C   UNL     1       0.780   9.023  19.681  0.00  0.00    +0.000 A 
ATOM      6  C   UNL     1       1.352   7.870  20.215  0.00  0.00    +0.000 A 
ENDROOT
BRANCH   1  11
ATOM      7  N   UNL     1       3.559   4.642  18.022  0.00  0.00    +0.000 NA
ATOM      8  C   UNL     1       2.530   3.638  18.310  0.00  0.00    +0.000 C 
ATOM      9  C   UNL     1       1.407   4.191  19.190  0.00  0.00    +0.000 C 
ATOM     10  C   UNL     1       1.953   4.825  20.466  0.00  0.00    +0.000 C 
ATOM     11  C   UNL     1       3.002   5.902  20.132  0.00  0.00    +0.000 C 
ATOM     12  C   UNL     1       4.106   5.227  19.264  0.00  0.00    +0.000 C 
BRANCH   7  13
ATOM     13  C   UNL     1       4.619   4.150  17.130  0.00  0.00    +0.000 C 
BRANCH  13  15
ATOM     14  C   UNL     1       5.597   5.008  14.945  0.00  0.00    +0.000 C 
ATOM     15  C   UNL     1       5.351   5.297  16.418  0.00  0.00    +0.000 C 
ENDBRANCH  13  15
ENDBRANCH   7  13
ENDBRANCH   1  11
BRANCH   5  16
ATOM     16  O   UNL     1      -0.230   9.730  20.287  0.00  0.00    +0.000 OA
BRANCH  16  17
ATOM     17  S   UNL     1       0.063  10.808  21.492  0.00  0.00    +0.000 S 
ATOM     18  O   UNL     1       1.499  11.030  21.592  0.00  0.00    +0.000 OA
ATOM     19  O   UNL     1      -0.836  11.939  21.309  0.00  0.00    +0.000 OA
BRANCH  17  20
ATOM     20  C   UNL     1      -0.496   9.764  22.889  0.00  0.00    +0.000 C 
ATOM     21  F   UNL     1       0.476   9.553  23.823  0.00  0.00    +0.000 F 
ATOM     22  F   UNL     1      -1.551  10.318  23.559  0.00  0.00    +0.000 F 
ATOM     23  F   UNL     1      -0.912   8.529  22.484  0.00  0.00    +0.000 F 
ENDBRANCH  17  20
ENDBRANCH  16  17
ENDBRANCH   5  16
TORSDOF 6
ENDMDL
MODEL 7
REMARK VINA RESULT:      -7.3      1.358      1.697
REMARK  Name = 
REMARK  7 active torsions:
REMARK  status: ('A' for Active; 'I' for Inactive)
REMARK    1  A    between atoms: C_1  and  C_2
REMARK    2  A    between atoms: C_2  and  C_3
REMARK    3  A    between atoms: C_3  and  N_4
REMARK    4  A    between atoms: C_8  and  C_9
REMARK    5  A    between atoms: C_13  and  O_14
REMARK    6  A    between atoms: O_14  and  S_15
REMARK    7  A    between atoms: S_15  and  C_18
REMARK                            x       y       z     vdW  Elec       q    Type
REMARK                         _______ _______ _______ _____ _____    ______ ____
ROOT
ATOM      1  C   UNL     1       4.467   6.685  17.899  0.00  0.00    +0.000 A 
ATOM      2  C   UNL     1       3.380   7.543  17.670  0.00  0.00    +0.000 A 
ATOM      3  C   UNL     1       2.258   7.519  18.503  0.00  0.00    +0.000 A 
ATOM      4  C   UNL     1       2.183   6.602  19.552  0.00  0.00    +0.000 A 
ATOM      5  C   UNL     1       3.217   5.693  19.752  0.00  0.00    +0.000 A 
ATOM      6  C   UNL     1       4.355   5.759  18.949  0.00  0.00    +0.000 A 
ENDROOT
BRANCH   1  11
ATOM      7  N   UNL     1       5.373   4.807  15.510  0.00  0.00    +0.000 NA
ATOM      8  C   UNL     1       6.470   4.073  16.151  0.00  0.00    +0.000 C 
ATOM      9  C   UNL     1       6.711   4.527  17.592  0.00  0.00    +0.000 C 
ATOM     10  C   UNL     1       6.913   6.037  17.679  0.00  0.00    +0.000 C 
ATOM     11  C   UNL     1       5.728   6.782  17.034  0.00  0.00    +0.000 C 
ATOM     12  C   UNL     1       5.593   6.267  15.569  0.00  0.00    +0.000 C 
BRANCH   7  13
ATOM     13  C   UNL     1       5.085   4.347  14.144  0.00  0.00    +0.000 C 
BRANCH  13  15
ATOM     14  C   UNL     1       6.016   3.115  12.124  0.00  0.00    +0.000 C 
ATOM     15  C   UNL     1       6.337   3.800  13.443  0.00  0.00    +0.000 C 
ENDBRANCH  13  15
ENDBRANCH   7  13
ENDBRANCH   1  11
BRANCH   5  16
ATOM     16  O   UNL     1       3.042   4.775  20.759  0.00  0.00    +0.000 OA
BRANCH  16  17
ATOM     17  S   UNL     1       2.993   3.159  20.465  0.00  0.00    +0.000 S 
ATOM     18  O   UNL     1       4.099   2.801  19.587  0.00  0.00    +0.000 OA
ATOM     19  O   UNL     1       2.829   2.476  21.741  0.00  0.00    +0.000 OA
BRANCH  17  20
ATOM     20  C   UNL     1       1.425   3.135  19.519  0.00  0.00    +0.000 C 
ATOM     21  F   UNL     1       0.430   3.857  20.113  0.00  0.00    +0.000 F 
ATOM     22  F   UNL     1       1.571   3.652  18.262  0.00  0.00    +0.000 F 
ATOM     23  F   UNL     1       0.934   1.872  19.354  0.00  0.00    +0.000 F 
ENDBRANCH  17  20
ENDBRANCH  16  17
ENDBRANCH   5  16
TORSDOF 6
ENDMDL
MODEL 8
REMARK VINA RESULT:      -7.2      4.770      5.880
REMARK  Name = 
REMARK  7 active torsions:
REMARK  status: ('A' for Active; 'I' for Inactive)
REMARK    1  A    between atoms: C_1  and  C_2
REMARK    2  A    between atoms: C_2  and  C_3
REMARK    3  A    between atoms: C_3  and  N_4
REMARK    4  A    between atoms: C_8  and  C_9
REMARK    5  A    between atoms: C_13  and  O_14
REMARK    6  A    between atoms: O_14  and  S_15
REMARK    7  A    between atoms: S_15  and  C_18
REMARK                            x       y       z     vdW  Elec       q    Type
REMARK                         _______ _______ _______ _____ _____    ______ ____
ROOT
ATOM      1  C   UNL     1       2.444   6.913  19.517  0.00  0.00    +0.000 A 
ATOM      2  C   UNL     1       2.644   7.284  18.177  0.00  0.00    +0.000 A 
ATOM      3  C   UNL     1       2.185   8.513  17.697  0.00  0.00    +0.000 A 
ATOM      4  C   UNL     1       1.476   9.373  18.536  0.00  0.00    +0.000 A 
ATOM      5  C   UNL     1       1.204   8.994  19.846  0.00  0.00    +0.000 A 
ATOM      6  C   UNL     1       1.710   7.790  20.332  0.00  0.00    +0.000 A 
ENDROOT
BRANCH   1  11
ATOM      7  N   UNL     1       3.425   4.373  17.892  0.00  0.00    +0.000 NA
ATOM      8  C   UNL     1       2.340   3.432  18.189  0.00  0.00    +0.000 C 
ATOM      9  C   UNL     1       1.289   4.033  19.124  0.00  0.00    +0.000 C 
ATOM     10  C   UNL     1       1.921   4.589  20.397  0.00  0.00    +0.000 C 
ATOM     11  C   UNL     1       3.029   5.603  20.055  0.00  0.00    +0.000 C 
ATOM     12  C   UNL     1       4.054   4.881  19.129  0.00  0.00    +0.000 C 
BRANCH   7  13
ATOM     13  C   UNL     1       4.418   3.838  16.948  0.00  0.00    +0.000 C 
BRANCH  13  15
ATOM     14  C   UNL     1       5.299   5.917  15.780  0.00  0.00    +0.000 C 
ATOM     15  C   UNL     1       5.605   4.793  16.757  0.00  0.00    +0.000 C 
ENDBRANCH  13  15
ENDBRANCH   7  13
ENDBRANCH   1  11
BRANCH   5  16
ATOM     16  O   UNL     1       0.441   9.861  20.591  0.00  0.00    +0.000 OA
BRANCH  16  17
ATOM     17  S   UNL     1       0.050   9.550  22.157  0.00  0.00    +0.000 S 
ATOM     18  O   UNL     1      -0.782   8.355  22.211  0.00  0.00    +0.000 OA
ATOM     19  O   UNL     1       1.271   9.621  22.947  0.00  0.00    +0.000 OA
BRANCH  17  20
ATOM     20  C   UNL     1      -0.985  11.033  22.444  0.00  0.00    +0.000 C 
ATOM     21  F   UNL     1      -0.255  12.146  22.744  0.00  0.00    +0.000 F 
ATOM     22  F   UNL     1      -1.739  11.357  21.351  0.00  0.00    +0.000 F 
ATOM     23  F   UNL     1      -1.865  10.863  23.474  0.00  0.00    +0.000 F 
ENDBRANCH  17  20
ENDBRANCH  16  17
ENDBRANCH   5  16
TORSDOF 6
ENDMDL
MODEL 9
REMARK VINA RESULT:      -7.2      0.949      1.107
REMARK  Name = 
REMARK  7 active torsions:
REMARK  status: ('A' for Active; 'I' for Inactive)
REMARK    1  A    between atoms: C_1  and  C_2
REMARK    2  A    between atoms: C_2  and  C_3
REMARK    3  A    between atoms: C_3  and  N_4
REMARK    4  A    between atoms: C_8  and  C_9
REMARK    5  A    between atoms: C_13  and  O_14
REMARK    6  A    between atoms: O_14  and  S_15
REMARK    7  A    between atoms: S_15  and  C_18
REMARK                            x       y       z     vdW  Elec       q    Type
REMARK                         _______ _______ _______ _____ _____    ______ ____
ROOT
ATOM      1  C   UNL     1       4.698   6.571  17.564  0.00  0.00    +0.000 A 
ATOM      2  C   UNL     1       3.527   7.345  17.580  0.00  0.00    +0.000 A 
ATOM      3  C   UNL     1       2.564   7.168  18.578  0.00  0.00    +0.000 A 
ATOM      4  C   UNL     1       2.734   6.181  19.550  0.00  0.00    +0.000 A 
ATOM      5  C   UNL     1       3.852   5.355  19.509  0.00  0.00    +0.000 A 
ATOM      6  C   UNL     1       4.833   5.573  18.542  0.00  0.00    +0.000 A 
ENDROOT
BRANCH   1  11
ATOM      7  N   UNL     1       5.601   4.730  15.145  0.00  0.00    +0.000 NA
ATOM      8  C   UNL     1       6.893   4.250  15.645  0.00  0.00    +0.000 C 
ATOM      9  C   UNL     1       7.242   4.836  17.015  0.00  0.00    +0.000 C 
ATOM     10  C   UNL     1       7.168   6.359  17.010  0.00  0.00    +0.000 C 
ATOM     11  C   UNL     1       5.787   6.834  16.518  0.00  0.00    +0.000 C 
ATOM     12  C   UNL     1       5.549   6.207  15.112  0.00  0.00    +0.000 C 
BRANCH   7  13
ATOM     13  C   UNL     1       5.218   4.135  13.856  0.00  0.00    +0.000 C 
BRANCH  13  15
ATOM     14  C   UNL     1       6.089   2.734  11.922  0.00  0.00    +0.000 C 
ATOM     15  C   UNL     1       6.441   3.716  13.028  0.00  0.00    +0.000 C 
ENDBRANCH  13  15
ENDBRANCH   7  13
ENDBRANCH   1  11
BRANCH   5  16
ATOM     16  O   UNL     1       3.918   4.361  20.456  0.00  0.00    +0.000 OA
BRANCH  16  17
ATOM     17  S   UNL     1       3.328   2.853  20.176  0.00  0.00    +0.000 S 
ATOM     18  O   UNL     1       2.858   2.774  18.799  0.00  0.00    +0.000 OA
ATOM     19  O   UNL     1       4.307   1.892  20.665  0.00  0.00    +0.000 OA
BRANCH  17  20
ATOM     20  C   UNL     1       1.894   2.942  21.311  0.00  0.00    +0.000 C 
ATOM     21  F   UNL     1       0.701   3.055  20.658  0.00  0.00    +0.000 F 
ATOM     22  F   UNL     1       1.790   1.832  22.101  0.00  0.00    +0.000 F 
ATOM     23  F   UNL     1       1.968   4.006  22.162  0.00  0.00    +0.000 F 
ENDBRANCH  17  20
ENDBRANCH  16  17
ENDBRANCH   5  16
TORSDOF 6
ENDMDL
