MODEL 1
REMARK VINA RESULT:      -7.4      0.000      0.000
REMARK  Name = 
REMARK  3 active torsions:
REMARK  status: ('A' for Active; 'I' for Inactive)
REMARK    1  A    between atoms: C_4  and  C_5
REMARK    2  A    between atoms: C_10  and  C_11
REMARK    3  A    between atoms: C_19  and  C_20
REMARK                            x       y       z     vdW  Elec       q    Type
REMARK                         _______ _______ _______ _____ _____    ______ ____
ROOT
ATOM      1  C   UNL     1       7.450  12.808  23.677  0.00  0.00    +0.000 C 
ATOM      2  N   UNL     1       6.737  13.717  23.073  0.00  0.00    +0.000 NA
ATOM      3  N   UNL     1       7.294  13.924  21.794  0.00  0.00    +0.000 N 
ATOM      4  C   UNL     1       6.928  14.946  20.921  0.00  0.00    +0.000 C 
ATOM      5  N   UNL     1       6.917  14.876  19.628  0.00  0.00    +0.000 NA
ATOM      6  C   UNL     1       6.649  16.179  18.977  0.00  0.00    +0.000 C 
ATOM      7  C   UNL     1       6.030  17.165  19.973  0.00  0.00    +0.000 C 
ATOM      8  S   UNL     1       6.482  16.522  21.610  0.00  0.00    +0.000 S 
ATOM      9  C   UNL     1       8.410  13.026  21.550  0.00  0.00    +0.000 C 
ATOM     10  C   UNL     1       8.576  12.242  22.869  0.00  0.00    +0.000 C 
ENDROOT
BRANCH   9  11
ATOM     11  C   UNL     1       9.700  13.767  21.187  0.00  0.00    +0.000 A 
ATOM     12  C   UNL     1       9.882  15.005  21.877  0.00  0.00    +0.000 A 
ATOM     13  C   UNL     1      10.883  15.871  21.490  0.00  0.00    +0.000 A 
ATOM     14  C   UNL     1      11.730  15.481  20.472  0.00  0.00    +0.000 A 
ATOM     15  C   UNL     1      11.560  14.278  19.779  0.00  0.00    +0.000 A 
ATOM     16  C   UNL     1      12.326  14.070  18.658  0.00  0.00    +0.000 A 
ATOM     17  C   UNL     1      12.129  12.918  17.869  0.00  0.00    +0.000 A 
ATOM     18  C   UNL     1      11.784  11.657  18.357  0.00  0.00    +0.000 A 
ATOM     19  C   UNL     1      10.873  12.004  19.355  0.00  0.00    +0.000 A 
ATOM     20  C   UNL     1      10.650  13.304  20.138  0.00  0.00    +0.000 A 
ENDBRANCH   9  11
BRANCH   1  24
ATOM     21  C   UNL     1       6.296  11.548  27.574  0.00  0.00    +0.000 A 
ATOM     22  C   UNL     1       5.758  10.962  26.420  0.00  0.00    +0.000 A 
ATOM     23  C   UNL     1       6.232  11.308  25.166  0.00  0.00    +0.000 A 
ATOM     24  C   UNL     1       7.146  12.343  25.044  0.00  0.00    +0.000 A 
ATOM     25  C   UNL     1       7.711  12.920  26.193  0.00  0.00    +0.000 A 
ATOM     26  C   UNL     1       7.281  12.526  27.466  0.00  0.00    +0.000 A 
ENDBRANCH   1  24
BRANCH   6  27
ATOM     27  C   UNL     1       7.957  16.712  18.424  0.00  0.00    +0.000 A 
ATOM     28  C   UNL     1       8.808  15.965  17.607  0.00  0.00    +0.000 A 
ATOM     29  C   UNL     1      10.064  16.485  17.279  0.00  0.00    +0.000 A 
ATOM     30  C   UNL     1      10.415  17.787  17.647  0.00  0.00    +0.000 A 
ATOM     31  C   UNL     1       9.566  18.542  18.433  0.00  0.00    +0.000 A 
ATOM     32  C   UNL     1       8.361  17.994  18.828  0.00  0.00    +0.000 A 
ENDBRANCH   6  27
TORSDOF 3
ENDMDL
MODEL 2
REMARK VINA RESULT:      -7.3      8.661     11.749
REMARK  Name = 
REMARK  3 active torsions:
REMARK  status: ('A' for Active; 'I' for Inactive)
REMARK    1  A    between atoms: C_4  and  C_5
REMARK    2  A    between atoms: C_10  and  C_11
REMARK    3  A    between atoms: C_19  and  C_20
REMARK                            x       y       z     vdW  Elec       q    Type
REMARK                         _______ _______ _______ _____ _____    ______ ____
ROOT
ATOM      1  C   UNL     1       0.809  10.070  20.306  0.00  0.00    +0.000 C 
ATOM      2  N   UNL     1       1.310  11.270  20.391  0.00  0.00    +0.000 NA
ATOM      3  N   UNL     1       0.441  12.046  21.186  0.00  0.00    +0.000 N 
ATOM      4  C   UNL     1       0.535  13.425  21.357  0.00  0.00    +0.000 C 
ATOM      5  N   UNL     1       0.223  14.083  22.428  0.00  0.00    +0.000 NA
ATOM      6  C   UNL     1       0.266  15.552  22.242  0.00  0.00    +0.000 C 
ATOM      7  C   UNL     1       1.076  15.915  20.993  0.00  0.00    +0.000 C 
ATOM      8  S   UNL     1       1.077  14.409  19.980  0.00  0.00    +0.000 S 
ATOM      9  C   UNL     1      -0.664  11.251  21.694  0.00  0.00    +0.000 C 
ATOM     10  C   UNL     1      -0.461   9.855  21.069  0.00  0.00    +0.000 C 
ENDROOT
BRANCH   9  11
ATOM     11  C   UNL     1      -2.032  11.827  21.319  0.00  0.00    +0.000 A 
ATOM     12  C   UNL     1      -2.266  11.917  19.912  0.00  0.00    +0.000 A 
ATOM     13  C   UNL     1      -3.359  12.612  19.437  0.00  0.00    +0.000 A 
ATOM     14  C   UNL     1      -4.240  13.153  20.352  0.00  0.00    +0.000 A 
ATOM     15  C   UNL     1      -4.021  13.082  21.731  0.00  0.00    +0.000 A 
ATOM     16  C   UNL     1      -4.843  13.818  22.550  0.00  0.00    +0.000 A 
ATOM     17  C   UNL     1      -4.608  13.858  23.940  0.00  0.00    +0.000 A 
ATOM     18  C   UNL     1      -4.128  12.795  24.706  0.00  0.00    +0.000 A 
ATOM     19  C   UNL     1      -3.182  12.253  23.837  0.00  0.00    +0.000 A 
ATOM     20  C   UNL     1      -3.011  12.342  22.314  0.00  0.00    +0.000 A 
ENDBRANCH   9  11
BRANCH   1  24
ATOM     21  C   UNL     1       2.924   6.973  18.295  0.00  0.00    +0.000 A 
ATOM     22  C   UNL     1       2.491   6.831  19.621  0.00  0.00    +0.000 A 
ATOM     23  C   UNL     1       1.706   7.803  20.216  0.00  0.00    +0.000 A 
ATOM     24  C   UNL     1       1.466   8.990  19.543  0.00  0.00    +0.000 A 
ATOM     25  C   UNL     1       1.872   9.135  18.206  0.00  0.00    +0.000 A 
ATOM     26  C   UNL     1       2.610   8.124  17.578  0.00  0.00    +0.000 A 
ENDBRANCH   1  24
BRANCH   6  27
ATOM     27  C   UNL     1      -1.159  16.059  22.134  0.00  0.00    +0.000 A 
ATOM     28  C   UNL     1      -1.872  16.105  20.935  0.00  0.00    +0.000 A 
ATOM     29  C   UNL     1      -3.119  16.736  20.909  0.00  0.00    +0.000 A 
ATOM     30  C   UNL     1      -3.710  17.197  22.089  0.00  0.00    +0.000 A 
ATOM     31  C   UNL     1      -3.021  17.131  23.285  0.00  0.00    +0.000 A 
ATOM     32  C   UNL     1      -1.753  16.584  23.293  0.00  0.00    +0.000 A 
ENDBRANCH   6  27
TORSDOF 3
ENDMDL
MODEL 3
REMARK VINA RESULT:      -7.3      8.323     10.754
REMARK  Name = 
REMARK  3 active torsions:
REMARK  status: ('A' for Active; 'I' for Inactive)
REMARK    1  A    between atoms: C_4  and  C_5
REMARK    2  A    between atoms: C_10  and  C_11
REMARK    3  A    between atoms: C_19  and  C_20
REMARK                            x       y       z     vdW  Elec       q    Type
REMARK                         _______ _______ _______ _____ _____    ______ ____
ROOT
ATOM      1  C   UNL     1       1.215   9.256  20.057  0.00  0.00    +0.000 C 
ATOM      2  N   UNL     1       1.898  10.308  19.703  0.00  0.00    +0.000 NA
ATOM      3  N   UNL     1       1.242  11.444  20.220  0.00  0.00    +0.000 N 
ATOM      4  C   UNL     1       1.561  12.762  19.903  0.00  0.00    +0.000 C 
ATOM      5  N   UNL     1       1.462  13.781  20.695  0.00  0.00    +0.000 NA
ATOM      6  C   UNL     1       1.708  15.074  20.014  0.00  0.00    +0.000 C 
ATOM      7  C   UNL     1       2.432  14.854  18.682  0.00  0.00    +0.000 C 
ATOM      8  S   UNL     1       2.102  13.122  18.249  0.00  0.00    +0.000 S 
ATOM      9  C   UNL     1       0.088  11.071  21.020  0.00  0.00    +0.000 C 
ATOM     10  C   UNL     1       0.012   9.534  20.903  0.00  0.00    +0.000 C 
ENDROOT
BRANCH   9  11
ATOM     11  C   UNL     1      -1.209  11.723  20.531  0.00  0.00    +0.000 A 
ATOM     12  C   UNL     1      -1.820  12.600  21.480  0.00  0.00    +0.000 A 
ATOM     13  C   UNL     1      -3.093  13.081  21.256  0.00  0.00    +0.000 A 
ATOM     14  C   UNL     1      -3.723  12.743  20.075  0.00  0.00    +0.000 A 
ATOM     15  C   UNL     1      -3.144  11.878  19.141  0.00  0.00    +0.000 A 
ATOM     16  C   UNL     1      -3.926  11.447  18.097  0.00  0.00    +0.000 A 
ATOM     17  C   UNL     1      -3.423  10.500  17.179  0.00  0.00    +0.000 A 
ATOM     18  C   UNL     1      -2.099  10.423  16.747  0.00  0.00    +0.000 A 
ATOM     19  C   UNL     1      -1.420  10.698  17.934  0.00  0.00    +0.000 A 
ATOM     20  C   UNL     1      -1.848  11.410  19.223  0.00  0.00    +0.000 A 
ENDBRANCH   9  11
BRANCH   1  24
ATOM     21  C   UNL     1       2.573   5.316  19.198  0.00  0.00    +0.000 A 
ATOM     22  C   UNL     1       1.961   5.636  20.418  0.00  0.00    +0.000 A 
ATOM     23  C   UNL     1       1.424   6.894  20.630  0.00  0.00    +0.000 A 
ATOM     24  C   UNL     1       1.619   7.886  19.683  0.00  0.00    +0.000 A 
ATOM     25  C   UNL     1       2.208   7.573  18.447  0.00  0.00    +0.000 A 
ATOM     26  C   UNL     1       2.693   6.282  18.203  0.00  0.00    +0.000 A 
ENDBRANCH   1  24
BRANCH   6  27
ATOM     27  C   UNL     1       0.373  15.761  19.802  0.00  0.00    +0.000 A 
ATOM     28  C   UNL     1       0.019  16.408  18.617  0.00  0.00    +0.000 A 
ATOM     29  C   UNL     1      -1.167  17.148  18.574  0.00  0.00    +0.000 A 
ATOM     30  C   UNL     1      -2.056  17.133  19.653  0.00  0.00    +0.000 A 
ATOM     31  C   UNL     1      -1.724  16.472  20.820  0.00  0.00    +0.000 A 
ATOM     32  C   UNL     1      -0.512  15.813  20.890  0.00  0.00    +0.000 A 
ENDBRANCH   6  27
TORSDOF 3
ENDMDL
MODEL 4
REMARK VINA RESULT:      -7.3      8.833     11.431
REMARK  Name = 
REMARK  3 active torsions:
REMARK  status: ('A' for Active; 'I' for Inactive)
REMARK    1  A    between atoms: C_4  and  C_5
REMARK    2  A    between atoms: C_10  and  C_11
REMARK    3  A    between atoms: C_19  and  C_20
REMARK                            x       y       z     vdW  Elec       q    Type
REMARK                         _______ _______ _______ _____ _____    ______ ____
ROOT
ATOM      1  C   UNL     1       0.783  10.231  19.982  0.00  0.00    +0.000 C 
ATOM      2  N   UNL     1       1.272  11.426  19.806  0.00  0.00    +0.000 NA
ATOM      3  N   UNL     1       0.412  12.344  20.443  0.00  0.00    +0.000 N 
ATOM      4  C   UNL     1       0.494  13.730  20.322  0.00  0.00    +0.000 C 
ATOM      5  N   UNL     1       0.197  14.592  21.240  0.00  0.00    +0.000 NA
ATOM      6  C   UNL     1       0.219  15.992  20.753  0.00  0.00    +0.000 C 
ATOM      7  C   UNL     1       0.998  16.094  19.438  0.00  0.00    +0.000 C 
ATOM      8  S   UNL     1       0.994  14.410  18.758  0.00  0.00    +0.000 S 
ATOM      9  C   UNL     1      -0.672  11.664  21.131  0.00  0.00    +0.000 C 
ATOM     10  C   UNL     1      -0.466  10.170  20.803  0.00  0.00    +0.000 C 
ENDROOT
BRANCH   9  11
ATOM     11  C   UNL     1      -2.055  12.140  20.677  0.00  0.00    +0.000 A 
ATOM     12  C   UNL     1      -2.841  12.734  21.712  0.00  0.00    +0.000 A 
ATOM     13  C   UNL     1      -4.176  13.007  21.496  0.00  0.00    +0.000 A 
ATOM     14  C   UNL     1      -4.703  12.750  20.246  0.00  0.00    +0.000 A 
ATOM     15  C   UNL     1      -3.951  12.160  19.226  0.00  0.00    +0.000 A 
ATOM     16  C   UNL     1      -4.613  11.763  18.089  0.00  0.00    +0.000 A 
ATOM     17  C   UNL     1      -3.921  11.077  17.069  0.00  0.00    +0.000 A 
ATOM     18  C   UNL     1      -2.596  11.309  16.700  0.00  0.00    +0.000 A 
ATOM     19  C   UNL     1      -2.009  11.512  17.949  0.00  0.00    +0.000 A 
ATOM     20  C   UNL     1      -2.592  11.926  19.306  0.00  0.00    +0.000 A 
ENDBRANCH   9  11
BRANCH   1  24
ATOM     21  C   UNL     1       2.873   6.779  18.632  0.00  0.00    +0.000 A 
ATOM     22  C   UNL     1       2.341   6.860  19.927  0.00  0.00    +0.000 A 
ATOM     23  C   UNL     1       1.568   7.943  20.305  0.00  0.00    +0.000 A 
ATOM     24  C   UNL     1       1.436   9.021  19.444  0.00  0.00    +0.000 A 
ATOM     25  C   UNL     1       1.942   8.942  18.137  0.00  0.00    +0.000 A 
ATOM     26  C   UNL     1       2.670   7.817  17.728  0.00  0.00    +0.000 A 
ENDBRANCH   1  24
BRANCH   6  27
ATOM     27  C   UNL     1      -1.213  16.456  20.577  0.00  0.00    +0.000 A 
ATOM     28  C   UNL     1      -1.654  17.195  19.477  0.00  0.00    +0.000 A 
ATOM     29  C   UNL     1      -2.953  17.712  19.482  0.00  0.00    +0.000 A 
ATOM     30  C   UNL     1      -3.847  17.385  20.505  0.00  0.00    +0.000 A 
ATOM     31  C   UNL     1      -3.426  16.631  21.584  0.00  0.00    +0.000 A 
ATOM     32  C   UNL     1      -2.117  16.193  21.619  0.00  0.00    +0.000 A 
ENDBRANCH   6  27
TORSDOF 3
ENDMDL
MODEL 5
REMARK VINA RESULT:      -7.2      9.546     12.619
REMARK  Name = 
REMARK  3 active torsions:
REMARK  status: ('A' for Active; 'I' for Inactive)
REMARK    1  A    between atoms: C_4  and  C_5
REMARK    2  A    between atoms: C_10  and  C_11
REMARK    3  A    between atoms: C_19  and  C_20
REMARK                            x       y       z     vdW  Elec       q    Type
REMARK                         _______ _______ _______ _____ _____    ______ ____
ROOT
ATOM      1  C   UNL     1      -0.128  11.208  21.781  0.00  0.00    +0.000 C 
ATOM      2  N   UNL     1       0.202  12.464  21.888  0.00  0.00    +0.000 NA
ATOM      3  N   UNL     1      -0.679  13.067  22.809  0.00  0.00    +0.000 N 
ATOM      4  C   UNL     1      -0.766  14.436  23.051  0.00  0.00    +0.000 C 
ATOM      5  N   UNL     1      -1.053  14.991  24.185  0.00  0.00    +0.000 NA
ATOM      6  C   UNL     1      -1.242  16.458  24.082  0.00  0.00    +0.000 C 
ATOM      7  C   UNL     1      -0.631  16.992  22.783  0.00  0.00    +0.000 C 
ATOM      8  S   UNL     1      -0.522  15.548  21.687  0.00  0.00    +0.000 S 
ATOM      9  C   UNL     1      -1.597  12.094  23.377  0.00  0.00    +0.000 C 
ATOM     10  C   UNL     1      -1.264  10.773  22.653  0.00  0.00    +0.000 C 
ENDROOT
BRANCH   9  11
ATOM     11  C   UNL     1      -3.066  12.475  23.175  0.00  0.00    +0.000 A 
ATOM     12  C   UNL     1      -3.795  12.671  24.388  0.00  0.00    +0.000 A 
ATOM     13  C   UNL     1      -5.168  12.803  24.356  0.00  0.00    +0.000 A 
ATOM     14  C   UNL     1      -5.797  12.805  23.127  0.00  0.00    +0.000 A 
ATOM     15  C   UNL     1      -5.101  12.605  21.931  0.00  0.00    +0.000 A 
ATOM     16  C   UNL     1      -5.835  12.425  20.784  0.00  0.00    +0.000 A 
ATOM     17  C   UNL     1      -5.187  12.125  19.568  0.00  0.00    +0.000 A 
ATOM     18  C   UNL     1      -3.944  12.623  19.174  0.00  0.00    +0.000 A 
ATOM     19  C   UNL     1      -3.250  12.579  20.383  0.00  0.00    +0.000 A 
ATOM     20  C   UNL     1      -3.724  12.548  21.842  0.00  0.00    +0.000 A 
ENDBRANCH   9  11
BRANCH   1  24
ATOM     21  C   UNL     1       1.705   8.496  19.063  0.00  0.00    +0.000 A 
ATOM     22  C   UNL     1       1.260   9.761  18.655  0.00  0.00    +0.000 A 
ATOM     23  C   UNL     1       0.772  10.669  19.579  0.00  0.00    +0.000 A 
ATOM     24  C   UNL     1       0.592  10.273  20.894  0.00  0.00    +0.000 A 
ATOM     25  C   UNL     1       1.057   9.018  21.321  0.00  0.00    +0.000 A 
ATOM     26  C   UNL     1       1.613   8.121  20.400  0.00  0.00    +0.000 A 
ENDBRANCH   1  24
BRANCH   6  27
ATOM     27  C   UNL     1      -2.728  16.751  24.147  0.00  0.00    +0.000 A 
ATOM     28  C   UNL     1      -3.331  17.445  25.198  0.00  0.00    +0.000 A 
ATOM     29  C   UNL     1      -4.726  17.526  25.247  0.00  0.00    +0.000 A 
ATOM     30  C   UNL     1      -5.506  17.041  24.194  0.00  0.00    +0.000 A 
ATOM     31  C   UNL     1      -4.914  16.377  23.136  0.00  0.00    +0.000 A 
ATOM     32  C   UNL     1      -3.542  16.222  23.133  0.00  0.00    +0.000 A 
ENDBRANCH   6  27
TORSDOF 3
ENDMDL
MODEL 6
REMARK VINA RESULT:      -7.2      8.381     10.950
REMARK  Name = 
REMARK  3 active torsions:
REMARK  status: ('A' for Active; 'I' for Inactive)
REMARK    1  A    between atoms: C_4  and  C_5
REMARK    2  A    between atoms: C_10  and  C_11
REMARK    3  A    between atoms: C_19  and  C_20
REMARK                            x       y       z     vdW  Elec       q    Type
REMARK                         _______ _______ _______ _____ _____    ______ ____
ROOT
ATOM      1  C   UNL     1       1.020   9.744  20.289  0.00  0.00    +0.000 C 
ATOM      2  N   UNL     1       1.611  10.845  19.920  0.00  0.00    +0.000 NA
ATOM      3  N   UNL     1       0.932  11.924  20.523  0.00  0.00    +0.000 N 
ATOM      4  C   UNL     1       1.148  13.268  20.226  0.00  0.00    +0.000 C 
ATOM      5  N   UNL     1       1.051  14.256  21.057  0.00  0.00    +0.000 NA
ATOM      6  C   UNL     1       1.168  15.580  20.402  0.00  0.00    +0.000 C 
ATOM      7  C   UNL     1       1.799  15.442  19.013  0.00  0.00    +0.000 C 
ATOM      8  S   UNL     1       1.538  13.706  18.548  0.00  0.00    +0.000 S 
ATOM      9  C   UNL     1      -0.134  11.458  21.393  0.00  0.00    +0.000 C 
ATOM     10  C   UNL     1      -0.129   9.924  21.232  0.00  0.00    +0.000 C 
ENDROOT
BRANCH   9  11
ATOM     11  C   UNL     1      -1.501  12.044  21.024  0.00  0.00    +0.000 A 
ATOM     12  C   UNL     1      -2.186  12.666  22.113  0.00  0.00    +0.000 A 
ATOM     13  C   UNL     1      -3.507  13.039  21.975  0.00  0.00    +0.000 A 
ATOM     14  C   UNL     1      -4.116  12.853  20.750  0.00  0.00    +0.000 A 
ATOM     15  C   UNL     1      -3.463  12.237  19.678  0.00  0.00    +0.000 A 
ATOM     16  C   UNL     1      -4.210  11.917  18.570  0.00  0.00    +0.000 A 
ATOM     17  C   UNL     1      -3.624  11.210  17.500  0.00  0.00    +0.000 A 
ATOM     18  C   UNL     1      -2.306  11.355  17.065  0.00  0.00    +0.000 A 
ATOM     19  C   UNL     1      -1.642  11.484  18.285  0.00  0.00    +0.000 A 
ATOM     20  C   UNL     1      -2.122  11.904  19.680  0.00  0.00    +0.000 A 
ENDBRANCH   9  11
BRANCH   1  24
ATOM     21  C   UNL     1       2.521   5.909  19.216  0.00  0.00    +0.000 A 
ATOM     22  C   UNL     1       1.902   6.140  20.453  0.00  0.00    +0.000 A 
ATOM     23  C   UNL     1       1.319   7.363  20.733  0.00  0.00    +0.000 A 
ATOM     24  C   UNL     1       1.474   8.412  19.841  0.00  0.00    +0.000 A 
ATOM     25  C   UNL     1       2.070   8.188  18.589  0.00  0.00    +0.000 A 
ATOM     26  C   UNL     1       2.602   6.932  18.275  0.00  0.00    +0.000 A 
ENDBRANCH   1  24
BRANCH   6  27
ATOM     27  C   UNL     1      -0.217  16.190  20.313  0.00  0.00    +0.000 A 
ATOM     28  C   UNL     1      -1.218  15.969  21.261  0.00  0.00    +0.000 A 
ATOM     29  C   UNL     1      -2.509  16.444  21.010  0.00  0.00    +0.000 A 
ATOM     30  C   UNL     1      -2.770  17.246  19.895  0.00  0.00    +0.000 A 
ATOM     31  C   UNL     1      -1.777  17.491  18.966  0.00  0.00    +0.000 A 
ATOM     32  C   UNL     1      -0.523  16.949  19.173  0.00  0.00    +0.000 A 
ENDBRANCH   6  27
TORSDOF 3
ENDMDL
MODEL 7
REMARK VINA RESULT:      -7.2      7.676     10.346
REMARK  Name = 
REMARK  3 active torsions:
REMARK  status: ('A' for Active; 'I' for Inactive)
REMARK    1  A    between atoms: C_4  and  C_5
REMARK    2  A    between atoms: C_10  and  C_11
REMARK    3  A    between atoms: C_19  and  C_20
REMARK                            x       y       z     vdW  Elec       q    Type
REMARK                         _______ _______ _______ _____ _____    ______ ____
ROOT
ATOM      1  C   UNL     1       1.106   9.926  19.238  0.00  0.00    +0.000 C 
ATOM      2  N   UNL     1       0.155  10.007  20.125  0.00  0.00    +0.000 NA
ATOM      3  N   UNL     1      -0.293  11.344  20.157  0.00  0.00    +0.000 N 
ATOM      4  C   UNL     1      -1.170  11.869  21.104  0.00  0.00    +0.000 C 
ATOM      5  N   UNL     1      -2.043  12.802  20.897  0.00  0.00    +0.000 NA
ATOM      6  C   UNL     1      -2.704  13.265  22.140  0.00  0.00    +0.000 C 
ATOM      7  C   UNL     1      -2.515  12.244  23.266  0.00  0.00    +0.000 C 
ATOM      8  S   UNL     1      -1.070  11.262  22.771  0.00  0.00    +0.000 S 
ATOM      9  C   UNL     1       0.389  12.155  19.163  0.00  0.00    +0.000 C 
ATOM     10  C   UNL     1       1.411  11.199  18.513  0.00  0.00    +0.000 C 
ENDROOT
BRANCH   9  11
ATOM     11  C   UNL     1       1.088  13.375  19.769  0.00  0.00    +0.000 A 
ATOM     12  C   UNL     1       2.127  13.057  20.697  0.00  0.00    +0.000 A 
ATOM     13  C   UNL     1       2.688  14.049  21.473  0.00  0.00    +0.000 A 
ATOM     14  C   UNL     1       2.263  15.349  21.283  0.00  0.00    +0.000 A 
ATOM     15  C   UNL     1       1.240  15.677  20.387  0.00  0.00    +0.000 A 
ATOM     16  C   UNL     1       0.753  16.961  20.413  0.00  0.00    +0.000 A 
ATOM     17  C   UNL     1      -0.341  17.320  19.598  0.00  0.00    +0.000 A 
ATOM     18  C   UNL     1      -0.589  16.822  18.319  0.00  0.00    +0.000 A 
ATOM     19  C   UNL     1      -0.230  15.485  18.484  0.00  0.00    +0.000 A 
ATOM     20  C   UNL     1       0.673  14.780  19.504  0.00  0.00    +0.000 A 
ENDBRANCH   9  11
BRANCH   1  24
ATOM     21  C   UNL     1       3.297   6.331  18.615  0.00  0.00    +0.000 A 
ATOM     22  C   UNL     1       2.562   6.553  19.788  0.00  0.00    +0.000 A 
ATOM     23  C   UNL     1       1.765   7.677  19.919  0.00  0.00    +0.000 A 
ATOM     24  C   UNL     1       1.807   8.660  18.943  0.00  0.00    +0.000 A 
ATOM     25  C   UNL     1       2.519   8.439  17.753  0.00  0.00    +0.000 A 
ATOM     26  C   UNL     1       3.273   7.271  17.588  0.00  0.00    +0.000 A 
ENDBRANCH   1  24
BRANCH   6  27
ATOM     27  C   UNL     1      -2.115  14.610  22.519  0.00  0.00    +0.000 A 
ATOM     28  C   UNL     1      -0.957  14.756  23.284  0.00  0.00    +0.000 A 
ATOM     29  C   UNL     1      -0.583  16.032  23.715  0.00  0.00    +0.000 A 
ATOM     30  C   UNL     1      -1.276  17.164  23.278  0.00  0.00    +0.000 A 
ATOM     31  C   UNL     1      -2.409  17.029  22.497  0.00  0.00    +0.000 A 
ATOM     32  C   UNL     1      -2.826  15.761  22.144  0.00  0.00    +0.000 A 
ENDBRANCH   6  27
TORSDOF 3
ENDMDL
MODEL 8
REMARK VINA RESULT:      -7.1      8.848     11.444
REMARK  Name = 
REMARK  3 active torsions:
REMARK  status: ('A' for Active; 'I' for Inactive)
REMARK    1  A    between atoms: C_4  and  C_5
REMARK    2  A    between atoms: C_10  and  C_11
REMARK    3  A    between atoms: C_19  and  C_20
REMARK                            x       y       z     vdW  Elec       q    Type
REMARK                         _______ _______ _______ _____ _____    ______ ____
ROOT
ATOM      1  C   UNL     1       0.735  10.277  20.259  0.00  0.00    +0.000 C 
ATOM      2  N   UNL     1       1.215  11.471  20.050  0.00  0.00    +0.000 NA
ATOM      3  N   UNL     1       0.334  12.401  20.639  0.00  0.00    +0.000 N 
ATOM      4  C   UNL     1       0.403  13.782  20.472  0.00  0.00    +0.000 C 
ATOM      5  N   UNL     1       0.080  14.673  21.354  0.00  0.00    +0.000 NA
ATOM      6  C   UNL     1       0.097  16.054  20.819  0.00  0.00    +0.000 C 
ATOM      7  C   UNL     1       0.899  16.120  19.516  0.00  0.00    +0.000 C 
ATOM      8  S   UNL     1       0.926  14.413  18.895  0.00  0.00    +0.000 S 
ATOM      9  C   UNL     1      -0.756  11.733  21.330  0.00  0.00    +0.000 C 
ATOM     10  C   UNL     1      -0.529  10.231  21.059  0.00  0.00    +0.000 C 
ENDROOT
BRANCH   9  11
ATOM     11  C   UNL     1      -2.135  12.178  20.835  0.00  0.00    +0.000 A 
ATOM     12  C   UNL     1      -2.975  12.730  21.851  0.00  0.00    +0.000 A 
ATOM     13  C   UNL     1      -4.308  12.968  21.592  0.00  0.00    +0.000 A 
ATOM     14  C   UNL     1      -4.783  12.720  20.319  0.00  0.00    +0.000 A 
ATOM     15  C   UNL     1      -3.978  12.171  19.316  0.00  0.00    +0.000 A 
ATOM     16  C   UNL     1      -4.586  11.777  18.149  0.00  0.00    +0.000 A 
ATOM     17  C   UNL     1      -3.839  11.130  17.143  0.00  0.00    +0.000 A 
ATOM     18  C   UNL     1      -2.508  11.406  16.827  0.00  0.00    +0.000 A 
ATOM     19  C   UNL     1      -1.973  11.603  18.099  0.00  0.00    +0.000 A 
ATOM     20  C   UNL     1      -2.616  11.974  19.442  0.00  0.00    +0.000 A 
ENDBRANCH   9  11
BRANCH   1  24
ATOM     21  C   UNL     1       2.467   6.730  18.670  0.00  0.00    +0.000 A 
ATOM     22  C   UNL     1       2.303   7.884  17.891  0.00  0.00    +0.000 A 
ATOM     23  C   UNL     1       1.845   9.060  18.460  0.00  0.00    +0.000 A 
ATOM     24  C   UNL     1       1.411   9.057  19.776  0.00  0.00    +0.000 A 
ATOM     25  C   UNL     1       1.592   7.916  20.573  0.00  0.00    +0.000 A 
ATOM     26  C   UNL     1       2.119   6.742  20.018  0.00  0.00    +0.000 A 
ENDBRANCH   1  24
BRANCH   6  27
ATOM     27  C   UNL     1      -1.337  16.496  20.600  0.00  0.00    +0.000 A 
ATOM     28  C   UNL     1      -2.413  16.021  21.352  0.00  0.00    +0.000 A 
ATOM     29  C   UNL     1      -3.713  16.365  20.971  0.00  0.00    +0.000 A 
ATOM     30  C   UNL     1      -3.935  17.280  19.938  0.00  0.00    +0.000 A 
ATOM     31  C   UNL     1      -2.873  17.776  19.206  0.00  0.00    +0.000 A 
ATOM     32  C   UNL     1      -1.594  17.367  19.529  0.00  0.00    +0.000 A 
ENDBRANCH   6  27
TORSDOF 3
ENDMDL
MODEL 9
REMARK VINA RESULT:      -7.1      0.448      1.279
REMARK  Name = 
REMARK  3 active torsions:
REMARK  status: ('A' for Active; 'I' for Inactive)
REMARK    1  A    between atoms: C_4  and  C_5
REMARK    2  A    between atoms: C_10  and  C_11
REMARK    3  A    between atoms: C_19  and  C_20
REMARK                            x       y       z     vdW  Elec       q    Type
REMARK                         _______ _______ _______ _____ _____    ______ ____
ROOT
ATOM      1  C   UNL     1       7.048  12.653  23.889  0.00  0.00    +0.000 C 
ATOM      2  N   UNL     1       6.361  13.555  23.246  0.00  0.00    +0.000 NA
ATOM      3  N   UNL     1       6.977  13.757  21.994  0.00  0.00    +0.000 N 
ATOM      4  C   UNL     1       6.648  14.771  21.097  0.00  0.00    +0.000 C 
ATOM      5  N   UNL     1       6.700  14.692  19.806  0.00  0.00    +0.000 NA
ATOM      6  C   UNL     1       6.457  15.990  19.134  0.00  0.00    +0.000 C 
ATOM      7  C   UNL     1       5.787  16.979  20.093  0.00  0.00    +0.000 C 
ATOM      8  S   UNL     1       6.163  16.349  21.754  0.00  0.00    +0.000 S 
ATOM      9  C   UNL     1       8.107  12.862  21.810  0.00  0.00    +0.000 C 
ATOM     10  C   UNL     1       8.213  12.087  23.140  0.00  0.00    +0.000 C 
ENDROOT
BRANCH   9  11
ATOM     11  C   UNL     1       9.410  13.607  21.503  0.00  0.00    +0.000 A 
ATOM     12  C   UNL     1       9.559  14.844  22.202  0.00  0.00    +0.000 A 
ATOM     13  C   UNL     1      10.573  15.714  21.859  0.00  0.00    +0.000 A 
ATOM     14  C   UNL     1      11.465  15.327  20.878  0.00  0.00    +0.000 A 
ATOM     15  C   UNL     1      11.328  14.124  20.178  0.00  0.00    +0.000 A 
ATOM     16  C   UNL     1      12.142  13.920  19.090  0.00  0.00    +0.000 A 
ATOM     17  C   UNL     1      11.982  12.768  18.292  0.00  0.00    +0.000 A 
ATOM     18  C   UNL     1      11.619  11.506  18.763  0.00  0.00    +0.000 A 
ATOM     19  C   UNL     1      10.666  11.849  19.721  0.00  0.00    +0.000 A 
ATOM     20  C   UNL     1      10.405  13.147  20.496  0.00  0.00    +0.000 A 
ENDBRANCH   9  11
BRANCH   1  24
ATOM     21  C   UNL     1       6.258  11.223  27.818  0.00  0.00    +0.000 A 
ATOM     22  C   UNL     1       7.247  12.185  27.568  0.00  0.00    +0.000 A 
ATOM     23  C   UNL     1       7.408  12.719  26.301  0.00  0.00    +0.000 A 
ATOM     24  C   UNL     1       6.681  12.195  25.244  0.00  0.00    +0.000 A 
ATOM     25  C   UNL     1       5.671  11.251  25.485  0.00  0.00    +0.000 A 
ATOM     26  C   UNL     1       5.459  10.756  26.778  0.00  0.00    +0.000 A 
ENDBRANCH   1  24
BRANCH   6  27
ATOM     27  C   UNL     1       7.788  16.525  18.640  0.00  0.00    +0.000 A 
ATOM     28  C   UNL     1       8.178  17.859  18.771  0.00  0.00    +0.000 A 
ATOM     29  C   UNL     1       9.351  18.289  18.144  0.00  0.00    +0.000 A 
ATOM     30  C   UNL     1      10.196  17.375  17.508  0.00  0.00    +0.000 A 
ATOM     31  C   UNL     1       9.829  16.047  17.398  0.00  0.00    +0.000 A 
ATOM     32  C   UNL     1       8.628  15.641  17.945  0.00  0.00    +0.000 A 
ENDBRANCH   6  27
TORSDOF 3
ENDMDL
