MODEL 1
REMARK VINA RESULT:      -7.9      0.000      0.000
REMARK  Name = 
REMARK  12 active torsions:
REMARK  status: ('A' for Active; 'I' for Inactive)
REMARK    1  A    between atoms: C_1  and  O_2
REMARK    2  A    between atoms: O_2  and  C_3
REMARK    3  A    between atoms: N_5  and  C_6
REMARK    4  A    between atoms: N_5  and  C_10
REMARK    5  A    between atoms: C_6  and  C_7
REMARK    6  A    between atoms: C_7  and  O_9
REMARK    7  A    between atoms: C_10  and  C_11
REMARK    8  A    between atoms: C_15  and  O_16
REMARK    9  A    between atoms: O_16  and  C_17
REMARK   10  A    between atoms: C_17  and  C_18
REMARK   11  A    between atoms: C_21  and  C_22
REMARK   12  A    between atoms: C_25  and  C_26
REMARK                            x       y       z     vdW  Elec       q    Type
REMARK                         _______ _______ _______ _____ _____    ______ ____
ROOT
ATOM      1  C   UNL     1       4.644   4.312  18.436  0.00  0.00    +0.000 A 
ATOM      2  C   UNL     1       3.764   3.253  18.182  0.00  0.00    +0.000 A 
ATOM      3  C   UNL     1       2.393   3.415  18.382  0.00  0.00    +0.000 A 
ATOM      4  C   UNL     1       1.892   4.641  18.822  0.00  0.00    +0.000 A 
ATOM      5  C   UNL     1       2.759   5.699  19.096  0.00  0.00    +0.000 A 
ATOM      6  C   UNL     1       4.133   5.520  18.925  0.00  0.00    +0.000 A 
ENDROOT
BRANCH   1   7
ATOM      7  C   UNL     1       6.110   4.199  18.118  0.00  0.00    +0.000 C 
BRANCH   7  10
ATOM      8  C   UNL     1       7.407   6.197  17.866  0.00  0.00    +0.000 C 
ATOM      9  O   UNL     1       7.585   6.226  19.078  0.00  0.00    +0.000 OA
ATOM     10  N   UNL     1       6.689   5.194  17.215  0.00  0.00    +0.000 N 
BRANCH   8  12
ATOM     11  C   UNL     1       7.889   8.464  17.512  0.00  0.00    +0.000 C 
ATOM     12  O   UNL     1       7.903   7.125  17.007  0.00  0.00    +0.000 OA
ENDBRANCH   8  12
BRANCH  10  13
ATOM     13  C   UNL     1       6.063   5.444  15.898  0.00  0.00    +0.000 C 
BRANCH  13  14
ATOM     14  C   UNL     1       6.793   4.850  14.694  0.00  0.00    +0.000 C 
ATOM     15  O   UNL     1       6.411   3.859  14.094  0.00  0.00    +0.000 OA
BRANCH  14  16
ATOM     16  O   UNL     1       7.831   5.602  14.256  0.00  0.00    +0.000 OA
ATOM     17  H   UNL     1       8.673   5.110  14.343  0.00  0.00    +0.000 HD
ENDBRANCH  14  16
ENDBRANCH  13  14
ENDBRANCH  10  13
ENDBRANCH   7  10
ENDBRANCH   1   7
BRANCH   5  18
ATOM     18  O   UNL     1       2.159   6.862  19.497  0.00  0.00    +0.000 OA
BRANCH  18  19
ATOM     19  C   UNL     1       2.406   8.000  18.665  0.00  0.00    +0.000 C 
BRANCH  19  20
ATOM     20  C   UNL     1       1.408   9.078  18.868  0.00  0.00    +0.000 A 
ATOM     21  C   UNL     1       0.870   9.966  17.968  0.00  0.00    +0.000 A 
ATOM     22  O   UNL     1      -0.005  10.765  18.634  0.00  0.00    +0.000 OA
ATOM     23  C   UNL     1       0.043  10.318  19.931  0.00  0.00    +0.000 A 
ATOM     24  N   UNL     1       0.878   9.314  20.120  0.00  0.00    +0.000 NA
BRANCH  23  25
ATOM     25  C   UNL     1      -0.823  10.989  20.889  0.00  0.00    +0.000 A 
ATOM     26  C   UNL     1      -1.778  11.934  20.481  0.00  0.00    +0.000 A 
ATOM     27  C   UNL     1      -2.610  12.558  21.412  0.00  0.00    +0.000 A 
ATOM     28  C   UNL     1      -2.508  12.252  22.775  0.00  0.00    +0.000 A 
ATOM     29  C   UNL     1      -1.549  11.316  23.190  0.00  0.00    +0.000 A 
ATOM     30  C   UNL     1      -0.717  10.692  22.255  0.00  0.00    +0.000 A 
BRANCH  28  31
ATOM     31  C   UNL     1      -3.418  12.905  23.786  0.00  0.00    +0.000 C 
ATOM     32  F   UNL     1      -3.917  12.038  24.710  0.00  0.00    +0.000 F 
ATOM     33  F   UNL     1      -2.789  13.884  24.497  0.00  0.00    +0.000 F 
ATOM     34  F   UNL     1      -4.498  13.499  23.209  0.00  0.00    +0.000 F 
ENDBRANCH  28  31
ENDBRANCH  23  25
ENDBRANCH  19  20
ENDBRANCH  18  19
ENDBRANCH   5  18
TORSDOF 11
ENDMDL
MODEL 2
REMARK VINA RESULT:      -7.9      0.954      2.479
REMARK  Name = 
REMARK  12 active torsions:
REMARK  status: ('A' for Active; 'I' for Inactive)
REMARK    1  A    between atoms: C_1  and  O_2
REMARK    2  A    between atoms: O_2  and  C_3
REMARK    3  A    between atoms: N_5  and  C_6
REMARK    4  A    between atoms: N_5  and  C_10
REMARK    5  A    between atoms: C_6  and  C_7
REMARK    6  A    between atoms: C_7  and  O_9
REMARK    7  A    between atoms: C_10  and  C_11
REMARK    8  A    between atoms: C_15  and  O_16
REMARK    9  A    between atoms: O_16  and  C_17
REMARK   10  A    between atoms: C_17  and  C_18
REMARK   11  A    between atoms: C_21  and  C_22
REMARK   12  A    between atoms: C_25  and  C_26
REMARK                            x       y       z     vdW  Elec       q    Type
REMARK                         _______ _______ _______ _____ _____    ______ ____
ROOT
ATOM      1  C   UNL     1       4.365   4.315  17.681  0.00  0.00    +0.000 A 
ATOM      2  C   UNL     1       4.276   3.579  18.870  0.00  0.00    +0.000 A 
ATOM      3  C   UNL     1       3.427   3.999  19.894  0.00  0.00    +0.000 A 
ATOM      4  C   UNL     1       2.652   5.148  19.732  0.00  0.00    +0.000 A 
ATOM      5  C   UNL     1       2.744   5.901  18.561  0.00  0.00    +0.000 A 
ATOM      6  C   UNL     1       3.620   5.493  17.552  0.00  0.00    +0.000 A 
ENDROOT
BRANCH   1   7
ATOM      7  C   UNL     1       5.183   3.821  16.520  0.00  0.00    +0.000 C 
BRANCH   7  10
ATOM      8  C   UNL     1       6.597   4.624  14.760  0.00  0.00    +0.000 C 
ATOM      9  O   UNL     1       5.869   4.083  13.937  0.00  0.00    +0.000 OA
ATOM     10  N   UNL     1       6.358   4.603  16.135  0.00  0.00    +0.000 N 
BRANCH   8  12
ATOM     11  C   UNL     1       7.993   5.374  13.032  0.00  0.00    +0.000 C 
ATOM     12  O   UNL     1       7.712   5.328  14.435  0.00  0.00    +0.000 OA
ENDBRANCH   8  12
BRANCH  10  13
ATOM     13  C   UNL     1       7.466   4.789  17.098  0.00  0.00    +0.000 C 
BRANCH  13  14
ATOM     14  C   UNL     1       7.547   6.166  17.756  0.00  0.00    +0.000 C 
ATOM     15  O   UNL     1       7.911   6.345  18.906  0.00  0.00    +0.000 OA
BRANCH  14  16
ATOM     16  O   UNL     1       7.315   7.194  16.905  0.00  0.00    +0.000 OA
ATOM     17  H   UNL     1       7.630   6.974  16.005  0.00  0.00    +0.000 HD
ENDBRANCH  14  16
ENDBRANCH  13  14
ENDBRANCH  10  13
ENDBRANCH   7  10
ENDBRANCH   1   7
BRANCH   5  18
ATOM     18  O   UNL     1       1.922   6.992  18.497  0.00  0.00    +0.000 OA
BRANCH  18  19
ATOM     19  C   UNL     1       2.540   8.205  18.056  0.00  0.00    +0.000 C 
BRANCH  19  20
ATOM     20  C   UNL     1       1.835   9.413  18.546  0.00  0.00    +0.000 A 
ATOM     21  C   UNL     1       1.900  10.714  18.109  0.00  0.00    +0.000 A 
ATOM     22  O   UNL     1       1.067  11.461  18.880  0.00  0.00    +0.000 OA
ATOM     23  C   UNL     1       0.525  10.564  19.766  0.00  0.00    +0.000 A 
ATOM     24  N   UNL     1       0.959   9.328  19.609  0.00  0.00    +0.000 NA
BRANCH  23  25
ATOM     25  C   UNL     1      -0.439  11.088  20.724  0.00  0.00    +0.000 A 
ATOM     26  C   UNL     1      -0.420  10.702  22.073  0.00  0.00    +0.000 A 
ATOM     27  C   UNL     1      -1.342  11.226  22.980  0.00  0.00    +0.000 A 
ATOM     28  C   UNL     1      -2.309  12.148  22.560  0.00  0.00    +0.000 A 
ATOM     29  C   UNL     1      -2.339  12.530  21.209  0.00  0.00    +0.000 A 
ATOM     30  C   UNL     1      -1.413  12.005  20.303  0.00  0.00    +0.000 A 
BRANCH  28  31
ATOM     31  C   UNL     1      -3.297  12.735  23.537  0.00  0.00    +0.000 C 
ATOM     32  F   UNL     1      -2.799  13.784  24.251  0.00  0.00    +0.000 F 
ATOM     33  F   UNL     1      -4.421  13.202  22.924  0.00  0.00    +0.000 F 
ATOM     34  F   UNL     1      -3.723  11.827  24.457  0.00  0.00    +0.000 F 
ENDBRANCH  28  31
ENDBRANCH  23  25
ENDBRANCH  19  20
ENDBRANCH  18  19
ENDBRANCH   5  18
TORSDOF 11
ENDMDL
MODEL 3
REMARK VINA RESULT:      -7.9      0.897      2.354
REMARK  Name = 
REMARK  12 active torsions:
REMARK  status: ('A' for Active; 'I' for Inactive)
REMARK    1  A    between atoms: C_1  and  O_2
REMARK    2  A    between atoms: O_2  and  C_3
REMARK    3  A    between atoms: N_5  and  C_6
REMARK    4  A    between atoms: N_5  and  C_10
REMARK    5  A    between atoms: C_6  and  C_7
REMARK    6  A    between atoms: C_7  and  O_9
REMARK    7  A    between atoms: C_10  and  C_11
REMARK    8  A    between atoms: C_15  and  O_16
REMARK    9  A    between atoms: O_16  and  C_17
REMARK   10  A    between atoms: C_17  and  C_18
REMARK   11  A    between atoms: C_21  and  C_22
REMARK   12  A    between atoms: C_25  and  C_26
REMARK                            x       y       z     vdW  Elec       q    Type
REMARK                         _______ _______ _______ _____ _____    ______ ____
ROOT
ATOM      1  C   UNL     1       4.308   4.490  17.641  0.00  0.00    +0.000 A 
ATOM      2  C   UNL     1       4.193   3.470  18.593  0.00  0.00    +0.000 A 
ATOM      3  C   UNL     1       3.557   3.713  19.811  0.00  0.00    +0.000 A 
ATOM      4  C   UNL     1       3.019   4.972  20.078  0.00  0.00    +0.000 A 
ATOM      5  C   UNL     1       3.142   6.003  19.146  0.00  0.00    +0.000 A 
ATOM      6  C   UNL     1       3.808   5.763  17.942  0.00  0.00    +0.000 A 
ENDROOT
BRANCH   1   7
ATOM      7  C   UNL     1       4.885   4.221  16.278  0.00  0.00    +0.000 C 
BRANCH   7  10
ATOM      8  C   UNL     1       6.552   4.701  14.625  0.00  0.00    +0.000 C 
ATOM      9  O   UNL     1       5.819   4.234  13.761  0.00  0.00    +0.000 OA
ATOM     10  N   UNL     1       6.198   4.791  15.972  0.00  0.00    +0.000 N 
BRANCH   8  12
ATOM     11  C   UNL     1       8.074   5.408  12.988  0.00  0.00    +0.000 C 
ATOM     12  O   UNL     1       7.787   5.206  14.375  0.00  0.00    +0.000 OA
ENDBRANCH   8  12
BRANCH  10  13
ATOM     13  C   UNL     1       7.235   4.855  17.024  0.00  0.00    +0.000 C 
BRANCH  13  14
ATOM     14  C   UNL     1       7.441   6.226  17.668  0.00  0.00    +0.000 C 
ATOM     15  O   UNL     1       7.310   7.281  17.070  0.00  0.00    +0.000 OA
BRANCH  14  16
ATOM     16  O   UNL     1       7.643   6.178  19.007  0.00  0.00    +0.000 OA
ATOM     17  H   UNL     1       8.307   5.494  19.230  0.00  0.00    +0.000 HD
ENDBRANCH  14  16
ENDBRANCH  13  14
ENDBRANCH  10  13
ENDBRANCH   7  10
ENDBRANCH   1   7
BRANCH   5  18
ATOM     18  O   UNL     1       2.555   7.188  19.499  0.00  0.00    +0.000 OA
BRANCH  18  19
ATOM     19  C   UNL     1       2.227   8.060  18.413  0.00  0.00    +0.000 C 
BRANCH  19  20
ATOM     20  C   UNL     1       1.562   9.306  18.866  0.00  0.00    +0.000 A 
ATOM     21  C   UNL     1       1.702  10.596  18.417  0.00  0.00    +0.000 A 
ATOM     22  O   UNL     1       0.879  11.391  19.151  0.00  0.00    +0.000 OA
ATOM     23  C   UNL     1       0.266  10.530  20.028  0.00  0.00    +0.000 A 
ATOM     24  N   UNL     1       0.647   9.274  19.898  0.00  0.00    +0.000 NA
BRANCH  23  25
ATOM     25  C   UNL     1      -0.704  11.110  20.946  0.00  0.00    +0.000 A 
ATOM     26  C   UNL     1      -1.665  12.037  20.511  0.00  0.00    +0.000 A 
ATOM     27  C   UNL     1      -2.597  12.572  21.402  0.00  0.00    +0.000 A 
ATOM     28  C   UNL     1      -2.591  12.193  22.751  0.00  0.00    +0.000 A 
ATOM     29  C   UNL     1      -1.626  11.274  23.193  0.00  0.00    +0.000 A 
ATOM     30  C   UNL     1      -0.694  10.740  22.298  0.00  0.00    +0.000 A 
BRANCH  28  31
ATOM     31  C   UNL     1      -3.607  12.749  23.716  0.00  0.00    +0.000 C 
ATOM     32  F   UNL     1      -3.187  13.873  24.363  0.00  0.00    +0.000 F 
ATOM     33  F   UNL     1      -4.777  13.089  23.103  0.00  0.00    +0.000 F 
ATOM     34  F   UNL     1      -3.942  11.861  24.692  0.00  0.00    +0.000 F 
ENDBRANCH  28  31
ENDBRANCH  23  25
ENDBRANCH  19  20
ENDBRANCH  18  19
ENDBRANCH   5  18
TORSDOF 11
ENDMDL
MODEL 4
REMARK VINA RESULT:      -7.5      2.276      3.975
REMARK  Name = 
REMARK  12 active torsions:
REMARK  status: ('A' for Active; 'I' for Inactive)
REMARK    1  A    between atoms: C_1  and  O_2
REMARK    2  A    between atoms: O_2  and  C_3
REMARK    3  A    between atoms: N_5  and  C_6
REMARK    4  A    between atoms: N_5  and  C_10
REMARK    5  A    between atoms: C_6  and  C_7
REMARK    6  A    between atoms: C_7  and  O_9
REMARK    7  A    between atoms: C_10  and  C_11
REMARK    8  A    between atoms: C_15  and  O_16
REMARK    9  A    between atoms: O_16  and  C_17
REMARK   10  A    between atoms: C_17  and  C_18
REMARK   11  A    between atoms: C_21  and  C_22
REMARK   12  A    between atoms: C_25  and  C_26
REMARK                            x       y       z     vdW  Elec       q    Type
REMARK                         _______ _______ _______ _____ _____    ______ ____
ROOT
ATOM      1  C   UNL     1       4.791   4.173  17.190  0.00  0.00    +0.000 A 
ATOM      2  C   UNL     1       6.036   4.450  16.610  0.00  0.00    +0.000 A 
ATOM      3  C   UNL     1       6.423   5.770  16.376  0.00  0.00    +0.000 A 
ATOM      4  C   UNL     1       5.576   6.820  16.733  0.00  0.00    +0.000 A 
ATOM      5  C   UNL     1       4.326   6.558  17.294  0.00  0.00    +0.000 A 
ATOM      6  C   UNL     1       3.930   5.234  17.497  0.00  0.00    +0.000 A 
ENDROOT
BRANCH   1   7
ATOM      7  C   UNL     1       4.400   2.768  17.558  0.00  0.00    +0.000 C 
BRANCH   7  10
ATOM      8  C   UNL     1       3.993   2.520  19.906  0.00  0.00    +0.000 C 
ATOM      9  O   UNL     1       5.194   2.637  20.119  0.00  0.00    +0.000 OA
ATOM     10  N   UNL     1       3.424   2.594  18.634  0.00  0.00    +0.000 N 
BRANCH   8  12
ATOM     11  C   UNL     1       2.592   3.528  21.493  0.00  0.00    +0.000 C 
ATOM     12  O   UNL     1       3.068   2.324  20.881  0.00  0.00    +0.000 OA
ENDBRANCH   8  12
BRANCH  10  13
ATOM     13  C   UNL     1       2.121   1.953  18.350  0.00  0.00    +0.000 C 
BRANCH  13  14
ATOM     14  C   UNL     1       0.903   2.873  18.413  0.00  0.00    +0.000 C 
ATOM     15  O   UNL     1       0.098   2.867  19.329  0.00  0.00    +0.000 OA
BRANCH  14  16
ATOM     16  O   UNL     1       0.866   3.803  17.428  0.00  0.00    +0.000 OA
ATOM     17  H   UNL     1      -0.058   4.051  17.224  0.00  0.00    +0.000 HD
ENDBRANCH  14  16
ENDBRANCH  13  14
ENDBRANCH  10  13
ENDBRANCH   7  10
ENDBRANCH   1   7
BRANCH   5  18
ATOM     18  O   UNL     1       3.589   7.661  17.630  0.00  0.00    +0.000 OA
BRANCH  18  19
ATOM     19  C   UNL     1       2.621   7.463  18.666  0.00  0.00    +0.000 C 
BRANCH  19  20
ATOM     20  C   UNL     1       1.787   8.666  18.900  0.00  0.00    +0.000 A 
ATOM     21  C   UNL     1       1.551   9.750  18.091  0.00  0.00    +0.000 A 
ATOM     22  O   UNL     1       0.716  10.596  18.750  0.00  0.00    +0.000 OA
ATOM     23  C   UNL     1       0.480   9.976  19.951  0.00  0.00    +0.000 A 
ATOM     24  N   UNL     1       1.103   8.821  20.089  0.00  0.00    +0.000 NA
BRANCH  23  25
ATOM     25  C   UNL     1      -0.415  10.657  20.876  0.00  0.00    +0.000 A 
ATOM     26  C   UNL     1      -0.430  10.349  22.246  0.00  0.00    +0.000 A 
ATOM     27  C   UNL     1      -1.284  11.023  23.121  0.00  0.00    +0.000 A 
ATOM     28  C   UNL     1      -2.146  12.020  22.647  0.00  0.00    +0.000 A 
ATOM     29  C   UNL     1      -2.143  12.324  21.277  0.00  0.00    +0.000 A 
ATOM     30  C   UNL     1      -1.286  11.649  20.403  0.00  0.00    +0.000 A 
BRANCH  28  31
ATOM     31  C   UNL     1      -3.057  12.767  23.589  0.00  0.00    +0.000 C 
ATOM     32  F   UNL     1      -3.689  11.962  24.489  0.00  0.00    +0.000 F 
ATOM     33  F   UNL     1      -2.392  13.700  24.327  0.00  0.00    +0.000 F 
ATOM     34  F   UNL     1      -4.043  13.442  22.936  0.00  0.00    +0.000 F 
ENDBRANCH  28  31
ENDBRANCH  23  25
ENDBRANCH  19  20
ENDBRANCH  18  19
ENDBRANCH   5  18
TORSDOF 11
ENDMDL
MODEL 5
REMARK VINA RESULT:      -7.5      3.538      4.610
REMARK  Name = 
REMARK  12 active torsions:
REMARK  status: ('A' for Active; 'I' for Inactive)
REMARK    1  A    between atoms: C_1  and  O_2
REMARK    2  A    between atoms: O_2  and  C_3
REMARK    3  A    between atoms: N_5  and  C_6
REMARK    4  A    between atoms: N_5  and  C_10
REMARK    5  A    between atoms: C_6  and  C_7
REMARK    6  A    between atoms: C_7  and  O_9
REMARK    7  A    between atoms: C_10  and  C_11
REMARK    8  A    between atoms: C_15  and  O_16
REMARK    9  A    between atoms: O_16  and  C_17
REMARK   10  A    between atoms: C_17  and  C_18
REMARK   11  A    between atoms: C_21  and  C_22
REMARK   12  A    between atoms: C_25  and  C_26
REMARK                            x       y       z     vdW  Elec       q    Type
REMARK                         _______ _______ _______ _____ _____    ______ ____
ROOT
ATOM      1  C   UNL     1       4.240   4.445  17.586  0.00  0.00    +0.000 A 
ATOM      2  C   UNL     1       4.137   3.421  18.536  0.00  0.00    +0.000 A 
ATOM      3  C   UNL     1       3.459   3.641  19.735  0.00  0.00    +0.000 A 
ATOM      4  C   UNL     1       2.868   4.880  19.986  0.00  0.00    +0.000 A 
ATOM      5  C   UNL     1       2.978   5.914  19.056  0.00  0.00    +0.000 A 
ATOM      6  C   UNL     1       3.685   5.698  17.872  0.00  0.00    +0.000 A 
ENDROOT
BRANCH   1   7
ATOM      7  C   UNL     1       4.863   4.197  16.240  0.00  0.00    +0.000 C 
BRANCH   7  10
ATOM      8  C   UNL     1       6.570   4.701  14.635  0.00  0.00    +0.000 C 
ATOM      9  O   UNL     1       5.905   4.152  13.766  0.00  0.00    +0.000 OA
ATOM     10  N   UNL     1       6.152   4.831  15.961  0.00  0.00    +0.000 N 
BRANCH   8  12
ATOM     11  C   UNL     1       8.097   5.469  13.031  0.00  0.00    +0.000 C 
ATOM     12  O   UNL     1       7.784   5.268  14.413  0.00  0.00    +0.000 OA
ENDBRANCH   8  12
BRANCH  10  13
ATOM     13  C   UNL     1       7.137   5.006  17.050  0.00  0.00    +0.000 C 
BRANCH  13  14
ATOM     14  C   UNL     1       7.317   6.438  17.555  0.00  0.00    +0.000 C 
ATOM     15  O   UNL     1       7.908   6.723  18.584  0.00  0.00    +0.000 OA
BRANCH  14  16
ATOM     16  O   UNL     1       6.887   7.384  16.686  0.00  0.00    +0.000 OA
ATOM     17  H   UNL     1       6.879   7.033  15.772  0.00  0.00    +0.000 HD
ENDBRANCH  14  16
ENDBRANCH  13  14
ENDBRANCH  10  13
ENDBRANCH   7  10
ENDBRANCH   1   7
BRANCH   5  18
ATOM     18  O   UNL     1       2.339   7.077  19.391  0.00  0.00    +0.000 OA
BRANCH  18  19
ATOM     19  C   UNL     1       2.171   8.017  18.325  0.00  0.00    +0.000 C 
BRANCH  19  20
ATOM     20  C   UNL     1       1.634   9.317  18.794  0.00  0.00    +0.000 A 
ATOM     21  C   UNL     1       0.723   9.592  19.784  0.00  0.00    +0.000 A 
ATOM     22  O   UNL     1       0.551  10.939  19.838  0.00  0.00    +0.000 OA
ATOM     23  C   UNL     1       1.379  11.429  18.860  0.00  0.00    +0.000 A 
ATOM     24  N   UNL     1       2.044  10.496  18.205  0.00  0.00    +0.000 NA
BRANCH  23  25
ATOM     25  C   UNL     1       1.418  12.875  18.696  0.00  0.00    +0.000 A 
ATOM     26  C   UNL     1       0.283  13.671  18.917  0.00  0.00    +0.000 A 
ATOM     27  C   UNL     1       0.342  15.058  18.770  0.00  0.00    +0.000 A 
ATOM     28  C   UNL     1       1.538  15.684  18.396  0.00  0.00    +0.000 A 
ATOM     29  C   UNL     1       2.673  14.892  18.163  0.00  0.00    +0.000 A 
ATOM     30  C   UNL     1       2.612  13.503  18.313  0.00  0.00    +0.000 A 
BRANCH  28  31
ATOM     31  C   UNL     1       1.616  17.183  18.254  0.00  0.00    +0.000 C 
ATOM     32  F   UNL     1       2.258  17.591  17.123  0.00  0.00    +0.000 F 
ATOM     33  F   UNL     1       0.385  17.767  18.214  0.00  0.00    +0.000 F 
ATOM     34  F   UNL     1       2.275  17.772  19.290  0.00  0.00    +0.000 F 
ENDBRANCH  28  31
ENDBRANCH  23  25
ENDBRANCH  19  20
ENDBRANCH  18  19
ENDBRANCH   5  18
TORSDOF 11
ENDMDL
MODEL 6
REMARK VINA RESULT:      -7.5      1.270      2.363
REMARK  Name = 
REMARK  12 active torsions:
REMARK  status: ('A' for Active; 'I' for Inactive)
REMARK    1  A    between atoms: C_1  and  O_2
REMARK    2  A    between atoms: O_2  and  C_3
REMARK    3  A    between atoms: N_5  and  C_6
REMARK    4  A    between atoms: N_5  and  C_10
REMARK    5  A    between atoms: C_6  and  C_7
REMARK    6  A    between atoms: C_7  and  O_9
REMARK    7  A    between atoms: C_10  and  C_11
REMARK    8  A    between atoms: C_15  and  O_16
REMARK    9  A    between atoms: O_16  and  C_17
REMARK   10  A    between atoms: C_17  and  C_18
REMARK   11  A    between atoms: C_21  and  C_22
REMARK   12  A    between atoms: C_25  and  C_26
REMARK                            x       y       z     vdW  Elec       q    Type
REMARK                         _______ _______ _______ _____ _____    ______ ____
ROOT
ATOM      1  C   UNL     1       3.875   4.027  19.518  0.00  0.00    +0.000 A 
ATOM      2  C   UNL     1       2.830   3.149  19.834  0.00  0.00    +0.000 A 
ATOM      3  C   UNL     1       1.618   3.644  20.314  0.00  0.00    +0.000 A 
ATOM      4  C   UNL     1       1.436   5.019  20.469  0.00  0.00    +0.000 A 
ATOM      5  C   UNL     1       2.474   5.904  20.175  0.00  0.00    +0.000 A 
ATOM      6  C   UNL     1       3.696   5.401  19.725  0.00  0.00    +0.000 A 
ENDROOT
BRANCH   1   7
ATOM      7  C   UNL     1       5.147   3.529  18.890  0.00  0.00    +0.000 C 
BRANCH   7  10
ATOM      8  C   UNL     1       5.139   4.449  16.678  0.00  0.00    +0.000 C 
ATOM      9  O   UNL     1       4.081   3.876  16.451  0.00  0.00    +0.000 OA
ATOM     10  N   UNL     1       5.802   4.390  17.904  0.00  0.00    +0.000 N 
BRANCH   8  12
ATOM     11  C   UNL     1       5.234   6.540  15.622  0.00  0.00    +0.000 C 
ATOM     12  O   UNL     1       5.786   5.228  15.772  0.00  0.00    +0.000 OA
ENDBRANCH   8  12
BRANCH  10  13
ATOM     13  C   UNL     1       7.259   4.631  17.989  0.00  0.00    +0.000 C 
BRANCH  13  14
ATOM     14  C   UNL     1       7.687   5.792  18.886  0.00  0.00    +0.000 C 
ATOM     15  O   UNL     1       7.911   6.918  18.473  0.00  0.00    +0.000 OA
BRANCH  14  16
ATOM     16  O   UNL     1       7.659   5.503  20.209  0.00  0.00    +0.000 OA
ATOM     17  H   UNL     1       8.327   4.822  20.426  0.00  0.00    +0.000 HD
ENDBRANCH  14  16
ENDBRANCH  13  14
ENDBRANCH  10  13
ENDBRANCH   7  10
ENDBRANCH   1   7
BRANCH   5  18
ATOM     18  O   UNL     1       2.180   7.230  20.337  0.00  0.00    +0.000 OA
BRANCH  18  19
ATOM     19  C   UNL     1       2.122   8.000  19.132  0.00  0.00    +0.000 C 
BRANCH  19  20
ATOM     20  C   UNL     1       1.172   9.134  19.228  0.00  0.00    +0.000 A 
ATOM     21  C   UNL     1       0.728  10.000  18.259  0.00  0.00    +0.000 A 
ATOM     22  O   UNL     1      -0.138  10.873  18.837  0.00  0.00    +0.000 OA
ATOM     23  C   UNL     1      -0.180  10.491  20.154  0.00  0.00    +0.000 A 
ATOM     24  N   UNL     1       0.591   9.459  20.437  0.00  0.00    +0.000 NA
BRANCH  23  25
ATOM     25  C   UNL     1      -1.060  11.253  21.030  0.00  0.00    +0.000 A 
ATOM     26  C   UNL     1      -1.931  12.232  20.527  0.00  0.00    +0.000 A 
ATOM     27  C   UNL     1      -2.777  12.942  21.380  0.00  0.00    +0.000 A 
ATOM     28  C   UNL     1      -2.773  12.691  22.759  0.00  0.00    +0.000 A 
ATOM     29  C   UNL     1      -1.897  11.721  23.268  0.00  0.00    +0.000 A 
ATOM     30  C   UNL     1      -1.050  11.010  22.412  0.00  0.00    +0.000 A 
BRANCH  28  31
ATOM     31  C   UNL     1      -3.699  13.439  23.685  0.00  0.00    +0.000 C 
ATOM     32  F   UNL     1      -4.962  13.581  23.194  0.00  0.00    +0.000 F 
ATOM     33  F   UNL     1      -3.837  12.822  24.893  0.00  0.00    +0.000 F 
ATOM     34  F   UNL     1      -3.260  14.699  23.956  0.00  0.00    +0.000 F 
ENDBRANCH  28  31
ENDBRANCH  23  25
ENDBRANCH  19  20
ENDBRANCH  18  19
ENDBRANCH   5  18
TORSDOF 11
ENDMDL
MODEL 7
REMARK VINA RESULT:      -7.4      1.165      2.551
REMARK  Name = 
REMARK  12 active torsions:
REMARK  status: ('A' for Active; 'I' for Inactive)
REMARK    1  A    between atoms: C_1  and  O_2
REMARK    2  A    between atoms: O_2  and  C_3
REMARK    3  A    between atoms: N_5  and  C_6
REMARK    4  A    between atoms: N_5  and  C_10
REMARK    5  A    between atoms: C_6  and  C_7
REMARK    6  A    between atoms: C_7  and  O_9
REMARK    7  A    between atoms: C_10  and  C_11
REMARK    8  A    between atoms: C_15  and  O_16
REMARK    9  A    between atoms: O_16  and  C_17
REMARK   10  A    between atoms: C_17  and  C_18
REMARK   11  A    between atoms: C_21  and  C_22
REMARK   12  A    between atoms: C_25  and  C_26
REMARK                            x       y       z     vdW  Elec       q    Type
REMARK                         _______ _______ _______ _____ _____    ______ ____
ROOT
ATOM      1  C   UNL     1       4.188   4.415  17.861  0.00  0.00    +0.000 A 
ATOM      2  C   UNL     1       3.848   3.615  18.959  0.00  0.00    +0.000 A 
ATOM      3  C   UNL     1       3.024   4.117  19.967  0.00  0.00    +0.000 A 
ATOM      4  C   UNL     1       2.524   5.417  19.877  0.00  0.00    +0.000 A 
ATOM      5  C   UNL     1       2.869   6.231  18.798  0.00  0.00    +0.000 A 
ATOM      6  C   UNL     1       3.720   5.734  17.808  0.00  0.00    +0.000 A 
ENDROOT
BRANCH   1   7
ATOM      7  C   UNL     1       4.977   3.859  16.708  0.00  0.00    +0.000 C 
BRANCH   7  10
ATOM      8  C   UNL     1       6.400   4.677  14.962  0.00  0.00    +0.000 C 
ATOM      9  O   UNL     1       5.584   4.301  14.130  0.00  0.00    +0.000 OA
ATOM     10  N   UNL     1       6.216   4.545  16.340  0.00  0.00    +0.000 N 
BRANCH   8  12
ATOM     11  C   UNL     1       7.882   5.289  13.251  0.00  0.00    +0.000 C 
ATOM     12  O   UNL     1       7.573   5.286  14.649  0.00  0.00    +0.000 OA
ENDBRANCH   8  12
BRANCH  10  13
ATOM     13  C   UNL     1       7.376   4.514  17.258  0.00  0.00    +0.000 C 
BRANCH  13  14
ATOM     14  C   UNL     1       7.507   5.712  18.198  0.00  0.00    +0.000 C 
ATOM     15  O   UNL     1       7.480   6.872  17.823  0.00  0.00    +0.000 OA
BRANCH  14  16
ATOM     16  O   UNL     1       7.514   5.379  19.511  0.00  0.00    +0.000 OA
ATOM     17  H   UNL     1       6.706   4.878  19.744  0.00  0.00    +0.000 HD
ENDBRANCH  14  16
ENDBRANCH  13  14
ENDBRANCH  10  13
ENDBRANCH   7  10
ENDBRANCH   1   7
BRANCH   5  18
ATOM     18  O   UNL     1       2.302   7.476  18.796  0.00  0.00    +0.000 OA
BRANCH  18  19
ATOM     19  C   UNL     1       1.904   7.974  20.078  0.00  0.00    +0.000 C 
BRANCH  19  20
ATOM     20  C   UNL     1       1.051   9.183  19.977  0.00  0.00    +0.000 A 
ATOM     21  C   UNL     1       0.847  10.036  18.921  0.00  0.00    +0.000 A 
ATOM     22  O   UNL     1      -0.024  11.000  19.318  0.00  0.00    +0.000 OA
ATOM     23  C   UNL     1      -0.313  10.683  20.621  0.00  0.00    +0.000 A 
ATOM     24  N   UNL     1       0.310   9.607  21.062  0.00  0.00    +0.000 NA
BRANCH  23  25
ATOM     25  C   UNL     1      -1.256  11.551  21.314  0.00  0.00    +0.000 A 
ATOM     26  C   UNL     1      -1.482  11.437  22.695  0.00  0.00    +0.000 A 
ATOM     27  C   UNL     1      -2.378  12.287  23.345  0.00  0.00    +0.000 A 
ATOM     28  C   UNL     1      -3.073  13.271  22.630  0.00  0.00    +0.000 A 
ATOM     29  C   UNL     1      -2.859  13.382  21.247  0.00  0.00    +0.000 A 
ATOM     30  C   UNL     1      -1.960  12.530  20.598  0.00  0.00    +0.000 A 
BRANCH  28  31
ATOM     31  C   UNL     1      -4.028  14.207  23.327  0.00  0.00    +0.000 C 
ATOM     32  F   UNL     1      -3.950  14.151  24.687  0.00  0.00    +0.000 F 
ATOM     33  F   UNL     1      -3.813  15.512  22.996  0.00  0.00    +0.000 F 
ATOM     34  F   UNL     1      -5.328  13.952  23.017  0.00  0.00    +0.000 F 
ENDBRANCH  28  31
ENDBRANCH  23  25
ENDBRANCH  19  20
ENDBRANCH  18  19
ENDBRANCH   5  18
TORSDOF 11
ENDMDL
MODEL 8
REMARK VINA RESULT:      -7.3      0.776      2.064
REMARK  Name = 
REMARK  12 active torsions:
REMARK  status: ('A' for Active; 'I' for Inactive)
REMARK    1  A    between atoms: C_1  and  O_2
REMARK    2  A    between atoms: O_2  and  C_3
REMARK    3  A    between atoms: N_5  and  C_6
REMARK    4  A    between atoms: N_5  and  C_10
REMARK    5  A    between atoms: C_6  and  C_7
REMARK    6  A    between atoms: C_7  and  O_9
REMARK    7  A    between atoms: C_10  and  C_11
REMARK    8  A    between atoms: C_15  and  O_16
REMARK    9  A    between atoms: O_16  and  C_17
REMARK   10  A    between atoms: C_17  and  C_18
REMARK   11  A    between atoms: C_21  and  C_22
REMARK   12  A    between atoms: C_25  and  C_26
REMARK                            x       y       z     vdW  Elec       q    Type
REMARK                         _______ _______ _______ _____ _____    ______ ____
ROOT
ATOM      1  C   UNL     1       4.403   3.932  18.019  0.00  0.00    +0.000 A 
ATOM      2  C   UNL     1       3.508   2.874  17.816  0.00  0.00    +0.000 A 
ATOM      3  C   UNL     1       2.147   3.046  18.068  0.00  0.00    +0.000 A 
ATOM      4  C   UNL     1       1.670   4.280  18.511  0.00  0.00    +0.000 A 
ATOM      5  C   UNL     1       2.552   5.338  18.734  0.00  0.00    +0.000 A 
ATOM      6  C   UNL     1       3.918   5.150  18.511  0.00  0.00    +0.000 A 
ENDROOT
BRANCH   1   7
ATOM      7  C   UNL     1       5.854   3.806  17.645  0.00  0.00    +0.000 C 
BRANCH   7  10
ATOM      8  C   UNL     1       6.469   4.508  15.438  0.00  0.00    +0.000 C 
ATOM      9  O   UNL     1       6.023   3.459  14.988  0.00  0.00    +0.000 OA
ATOM     10  N   UNL     1       6.428   4.847  16.791  0.00  0.00    +0.000 N 
BRANCH   8  12
ATOM     11  C   UNL     1       7.633   5.000  13.463  0.00  0.00    +0.000 C 
ATOM     12  O   UNL     1       7.036   5.476  14.674  0.00  0.00    +0.000 OA
ENDBRANCH   8  12
BRANCH  10  13
ATOM     13  C   UNL     1       7.393   5.814  17.357  0.00  0.00    +0.000 C 
BRANCH  13  14
ATOM     14  C   UNL     1       7.025   7.288  17.195  0.00  0.00    +0.000 C 
ATOM     15  O   UNL     1       7.804   8.206  17.394  0.00  0.00    +0.000 OA
BRANCH  14  16
ATOM     16  O   UNL     1       5.793   7.491  16.670  0.00  0.00    +0.000 OA
ATOM     17  H   UNL     1       5.353   6.637  16.485  0.00  0.00    +0.000 HD
ENDBRANCH  14  16
ENDBRANCH  13  14
ENDBRANCH  10  13
ENDBRANCH   7  10
ENDBRANCH   1   7
BRANCH   5  18
ATOM     18  O   UNL     1       1.975   6.509  19.142  0.00  0.00    +0.000 OA
BRANCH  18  19
ATOM     19  C   UNL     1       2.531   7.700  18.576  0.00  0.00    +0.000 C 
BRANCH  19  20
ATOM     20  C   UNL     1       1.678   8.891  18.807  0.00  0.00    +0.000 A 
ATOM     21  C   UNL     1       1.412   9.961  17.988  0.00  0.00    +0.000 A 
ATOM     22  O   UNL     1       0.571  10.800  18.648  0.00  0.00    +0.000 OA
ATOM     23  C   UNL     1       0.362  10.190  19.859  0.00  0.00    +0.000 A 
ATOM     24  N   UNL     1       1.008   9.049  20.003  0.00  0.00    +0.000 NA
BRANCH  23  25
ATOM     25  C   UNL     1      -0.532  10.867  20.788  0.00  0.00    +0.000 A 
ATOM     26  C   UNL     1      -1.423  11.863  20.358  0.00  0.00    +0.000 A 
ATOM     27  C   UNL     1      -2.284  12.490  21.261  0.00  0.00    +0.000 A 
ATOM     28  C   UNL     1      -2.273  12.139  22.617  0.00  0.00    +0.000 A 
ATOM     29  C   UNL     1      -1.377  11.152  23.054  0.00  0.00    +0.000 A 
ATOM     30  C   UNL     1      -0.516  10.524  22.148  0.00  0.00    +0.000 A 
BRANCH  28  31
ATOM     31  C   UNL     1      -3.214  12.797  23.595  0.00  0.00    +0.000 C 
ATOM     32  F   UNL     1      -3.769  11.928  24.485  0.00  0.00    +0.000 F 
ATOM     33  F   UNL     1      -2.598  13.755  24.344  0.00  0.00    +0.000 F 
ATOM     34  F   UNL     1      -4.257  13.418  22.979  0.00  0.00    +0.000 F 
ENDBRANCH  28  31
ENDBRANCH  23  25
ENDBRANCH  19  20
ENDBRANCH  18  19
ENDBRANCH   5  18
TORSDOF 11
ENDMDL
MODEL 9
REMARK VINA RESULT:      -7.3      2.725      3.777
REMARK  Name = 
REMARK  12 active torsions:
REMARK  status: ('A' for Active; 'I' for Inactive)
REMARK    1  A    between atoms: C_1  and  O_2
REMARK    2  A    between atoms: O_2  and  C_3
REMARK    3  A    between atoms: N_5  and  C_6
REMARK    4  A    between atoms: N_5  and  C_10
REMARK    5  A    between atoms: C_6  and  C_7
REMARK    6  A    between atoms: C_7  and  O_9
REMARK    7  A    between atoms: C_10  and  C_11
REMARK    8  A    between atoms: C_15  and  O_16
REMARK    9  A    between atoms: O_16  and  C_17
REMARK   10  A    between atoms: C_17  and  C_18
REMARK   11  A    between atoms: C_21  and  C_22
REMARK   12  A    between atoms: C_25  and  C_26
REMARK                            x       y       z     vdW  Elec       q    Type
REMARK                         _______ _______ _______ _____ _____    ______ ____
ROOT
ATOM      1  C   UNL     1       4.207   4.322  17.881  0.00  0.00    +0.000 A 
ATOM      2  C   UNL     1       3.960   3.352  18.861  0.00  0.00    +0.000 A 
ATOM      3  C   UNL     1       3.218   3.674  19.997  0.00  0.00    +0.000 A 
ATOM      4  C   UNL     1       2.706   4.962  20.154  0.00  0.00    +0.000 A 
ATOM      5  C   UNL     1       2.958   5.943  19.195  0.00  0.00    +0.000 A 
ATOM      6  C   UNL     1       3.729   5.624  18.075  0.00  0.00    +0.000 A 
ENDROOT
BRANCH   1   7
ATOM      7  C   UNL     1       4.903   3.970  16.595  0.00  0.00    +0.000 C 
BRANCH   7  10
ATOM      8  C   UNL     1       6.369   4.746  14.866  0.00  0.00    +0.000 C 
ATOM      9  O   UNL     1       5.659   4.201  14.029  0.00  0.00    +0.000 OA
ATOM     10  N   UNL     1       6.094   4.740  16.234  0.00  0.00    +0.000 N 
BRANCH   8  12
ATOM     11  C   UNL     1       7.925   5.307  13.204  0.00  0.00    +0.000 C 
ATOM     12  O   UNL     1       7.497   5.440  14.564  0.00  0.00    +0.000 OA
ENDBRANCH   8  12
BRANCH  10  13
ATOM     13  C   UNL     1       7.176   4.928  17.224  0.00  0.00    +0.000 C 
BRANCH  13  14
ATOM     14  C   UNL     1       7.371   6.358  17.729  0.00  0.00    +0.000 C 
ATOM     15  O   UNL     1       8.059   6.647  18.693  0.00  0.00    +0.000 OA
BRANCH  14  16
ATOM     16  O   UNL     1       6.825   7.302  16.925  0.00  0.00    +0.000 OA
ATOM     17  H   UNL     1       6.817   6.999  15.994  0.00  0.00    +0.000 HD
ENDBRANCH  14  16
ENDBRANCH  13  14
ENDBRANCH  10  13
ENDBRANCH   7  10
ENDBRANCH   1   7
BRANCH   5  18
ATOM     18  O   UNL     1       2.386   7.162  19.436  0.00  0.00    +0.000 OA
BRANCH  18  19
ATOM     19  C   UNL     1       1.526   7.225  20.579  0.00  0.00    +0.000 C 
BRANCH  19  20
ATOM     20  C   UNL     1       1.260   8.617  21.013  0.00  0.00    +0.000 A 
ATOM     21  C   UNL     1       1.220   9.157  22.275  0.00  0.00    +0.000 A 
ATOM     22  O   UNL     1       0.935  10.481  22.160  0.00  0.00    +0.000 OA
ATOM     23  C   UNL     1       0.811  10.687  20.809  0.00  0.00    +0.000 A 
ATOM     24  N   UNL     1       0.992   9.600  20.083  0.00  0.00    +0.000 NA
BRANCH  23  25
ATOM     25  C   UNL     1       0.518  12.046  20.377  0.00  0.00    +0.000 A 
ATOM     26  C   UNL     1       0.833  12.491  19.083  0.00  0.00    +0.000 A 
ATOM     27  C   UNL     1       0.532  13.793  18.681  0.00  0.00    +0.000 A 
ATOM     28  C   UNL     1      -0.092  14.684  19.564  0.00  0.00    +0.000 A 
ATOM     29  C   UNL     1      -0.399  14.249  20.862  0.00  0.00    +0.000 A 
ATOM     30  C   UNL     1      -0.097  12.944  21.262  0.00  0.00    +0.000 A 
BRANCH  28  31
ATOM     31  C   UNL     1      -0.440  16.087  19.131  0.00  0.00    +0.000 C 
ATOM     32  F   UNL     1       0.493  17.014  19.488  0.00  0.00    +0.000 F 
ATOM     33  F   UNL     1      -0.574  16.196  17.779  0.00  0.00    +0.000 F 
ATOM     34  F   UNL     1      -1.617  16.519  19.660  0.00  0.00    +0.000 F 
ENDBRANCH  28  31
ENDBRANCH  23  25
ENDBRANCH  19  20
ENDBRANCH  18  19
ENDBRANCH   5  18
TORSDOF 11
ENDMDL
