MODEL 1
REMARK VINA RESULT:      -7.2      0.000      0.000
REMARK  Name = 
REMARK  7 active torsions:
REMARK  status: ('A' for Active; 'I' for Inactive)
REMARK    1  A    between atoms: C_1  and  O_2
REMARK    2  A    between atoms: O_2  and  C_3
REMARK    3  A    between atoms: C_6  and  C_7
REMARK    4  A    between atoms: C_8  and  S_9
REMARK    5  A    between atoms: S_9  and  N_12
REMARK    6  A    between atoms: C_15  and  O_16
REMARK    7  A    between atoms: O_16  and  C_17
REMARK                            x       y       z     vdW  Elec       q    Type
REMARK                         _______ _______ _______ _____ _____    ______ ____
ROOT
ATOM      1  N   UNL     1       4.879   4.849  18.143  0.00  0.00    +0.000 NA
ATOM      2  C   UNL     1       6.317   4.892  18.525  0.00  0.00    +0.000 C 
ATOM      3  C   UNL     1       7.025   6.082  17.898  0.00  0.00    +0.000 C 
ATOM      4  C   UNL     1       6.908   6.054  16.376  0.00  0.00    +0.000 C 
ATOM      5  C   UNL     1       5.425   6.065  16.007  0.00  0.00    +0.000 C 
ATOM      6  C   UNL     1       4.644   4.935  16.669  0.00  0.00    +0.000 C 
ENDROOT
BRANCH   1   7
ATOM      7  S   UNL     1       4.061   3.476  18.809  0.00  0.00    +0.000 S 
ATOM      8  O   UNL     1       4.886   2.969  19.890  0.00  0.00    +0.000 OA
ATOM      9  O   UNL     1       3.663   2.603  17.725  0.00  0.00    +0.000 OA
BRANCH   7  15
ATOM     10  C   UNL     1       2.290   5.247  19.962  0.00  0.00    +0.000 A 
ATOM     11  N   UNL     1       1.069   5.345  20.493  0.00  0.00    +0.000 NA
ATOM     12  N   UNL     1       0.601   4.089  20.431  0.00  0.00    +0.000 N 
ATOM     13  C   UNL     1       1.502   3.186  19.932  0.00  0.00    +0.000 A 
ATOM     14  C   UNL     1       1.205   1.736  19.884  0.00  0.00    +0.000 C 
ATOM     15  C   UNL     1       2.600   3.947  19.554  0.00  0.00    +0.000 A 
ATOM     16  H   UNL     1      -0.338   3.911  20.774  0.00  0.00    +0.000 HD
BRANCH  10  18
ATOM     17  C   UNL     1       2.530   7.381  19.092  0.00  0.00    +0.000 C 
ATOM     18  O   UNL     1       3.085   6.336  19.883  0.00  0.00    +0.000 OA
ENDBRANCH  10  18
ENDBRANCH   7  15
ENDBRANCH   1   7
BRANCH   4  19
ATOM     19  O   UNL     1       7.495   4.866  15.820  0.00  0.00    +0.000 OA
BRANCH  19  20
ATOM     20  C   UNL     1       7.371   4.765  14.450  0.00  0.00    +0.000 A 
ATOM     21  C   UNL     1       6.537   3.779  13.941  0.00  0.00    +0.000 A 
ATOM     22  N   UNL     1       6.334   3.606  12.611  0.00  0.00    +0.000 NA
ATOM     23  C   UNL     1       7.019   4.457  11.813  0.00  0.00    +0.000 A 
ATOM     24  C   UNL     1       7.874   5.421  12.321  0.00  0.00    +0.000 A 
ATOM     25  N   UNL     1       8.072   5.597  13.649  0.00  0.00    +0.000 NA
ENDBRANCH  19  20
ENDBRANCH   4  19
TORSDOF 5
ENDMDL
MODEL 2
REMARK VINA RESULT:      -7.0      1.835      2.583
REMARK  Name = 
REMARK  7 active torsions:
REMARK  status: ('A' for Active; 'I' for Inactive)
REMARK    1  A    between atoms: C_1  and  O_2
REMARK    2  A    between atoms: O_2  and  C_3
REMARK    3  A    between atoms: C_6  and  C_7
REMARK    4  A    between atoms: C_8  and  S_9
REMARK    5  A    between atoms: S_9  and  N_12
REMARK    6  A    between atoms: C_15  and  O_16
REMARK    7  A    between atoms: O_16  and  C_17
REMARK                            x       y       z     vdW  Elec       q    Type
REMARK                         _______ _______ _______ _____ _____    ______ ____
ROOT
ATOM      1  N   UNL     1       4.515   6.064  18.524  0.00  0.00    +0.000 NA
ATOM      2  C   UNL     1       5.523   5.035  18.902  0.00  0.00    +0.000 C 
ATOM      3  C   UNL     1       6.921   5.435  18.457  0.00  0.00    +0.000 C 
ATOM      4  C   UNL     1       6.976   5.664  16.949  0.00  0.00    +0.000 C 
ATOM      5  C   UNL     1       5.972   6.760  16.591  0.00  0.00    +0.000 C 
ATOM      6  C   UNL     1       4.561   6.450  17.080  0.00  0.00    +0.000 C 
ENDROOT
BRANCH   1   7
ATOM      7  S   UNL     1       2.908   5.609  18.980  0.00  0.00    +0.000 S 
ATOM      8  O   UNL     1       2.008   6.166  17.987  0.00  0.00    +0.000 OA
ATOM      9  O   UNL     1       2.722   5.910  20.384  0.00  0.00    +0.000 OA
BRANCH   7  15
ATOM     10  C   UNL     1       2.398   3.071  19.930  0.00  0.00    +0.000 A 
ATOM     11  N   UNL     1       2.268   1.796  19.556  0.00  0.00    +0.000 NA
ATOM     12  N   UNL     1       2.504   1.832  18.236  0.00  0.00    +0.000 N 
ATOM     13  C   UNL     1       2.835   3.076  17.766  0.00  0.00    +0.000 A 
ATOM     14  C   UNL     1       3.230   3.296  16.356  0.00  0.00    +0.000 C 
ATOM     15  C   UNL     1       2.703   3.919  18.862  0.00  0.00    +0.000 A 
ATOM     16  H   UNL     1       2.448   0.962  17.716  0.00  0.00    +0.000 HD
BRANCH  10  18
ATOM     17  C   UNL     1       1.329   2.592  21.928  0.00  0.00    +0.000 C 
ATOM     18  O   UNL     1       2.254   3.416  21.227  0.00  0.00    +0.000 OA
ENDBRANCH  10  18
ENDBRANCH   7  15
ENDBRANCH   1   7
BRANCH   4  19
ATOM     19  O   UNL     1       6.618   4.479  16.219  0.00  0.00    +0.000 OA
BRANCH  19  20
ATOM     20  C   UNL     1       6.885   4.549  14.868  0.00  0.00    +0.000 A 
ATOM     21  C   UNL     1       6.147   3.741  14.014  0.00  0.00    +0.000 A 
ATOM     22  N   UNL     1       6.321   3.746  12.668  0.00  0.00    +0.000 NA
ATOM     23  C   UNL     1       7.282   4.584  12.219  0.00  0.00    +0.000 A 
ATOM     24  C   UNL     1       8.039   5.368  13.075  0.00  0.00    +0.000 A 
ATOM     25  N   UNL     1       7.862   5.367  14.417  0.00  0.00    +0.000 NA
ENDBRANCH  19  20
ENDBRANCH   4  19
TORSDOF 5
ENDMDL
MODEL 3
REMARK VINA RESULT:      -6.9      1.792      2.714
REMARK  Name = 
REMARK  7 active torsions:
REMARK  status: ('A' for Active; 'I' for Inactive)
REMARK    1  A    between atoms: C_1  and  O_2
REMARK    2  A    between atoms: O_2  and  C_3
REMARK    3  A    between atoms: C_6  and  C_7
REMARK    4  A    between atoms: C_8  and  S_9
REMARK    5  A    between atoms: S_9  and  N_12
REMARK    6  A    between atoms: C_15  and  O_16
REMARK    7  A    between atoms: O_16  and  C_17
REMARK                            x       y       z     vdW  Elec       q    Type
REMARK                         _______ _______ _______ _____ _____    ______ ____
ROOT
ATOM      1  N   UNL     1       4.716   5.964  18.809  0.00  0.00    +0.000 NA
ATOM      2  C   UNL     1       6.039   5.357  19.124  0.00  0.00    +0.000 C 
ATOM      3  C   UNL     1       7.168   6.079  18.405  0.00  0.00    +0.000 C 
ATOM      4  C   UNL     1       6.955   6.069  16.894  0.00  0.00    +0.000 C 
ATOM      5  C   UNL     1       5.618   6.744  16.591  0.00  0.00    +0.000 C 
ATOM      6  C   UNL     1       4.453   6.110  17.344  0.00  0.00    +0.000 C 
ENDROOT
BRANCH   1   7
ATOM      7  S   UNL     1       3.408   5.130  19.580  0.00  0.00    +0.000 S 
ATOM      8  O   UNL     1       2.205   5.904  19.338  0.00  0.00    +0.000 OA
ATOM      9  O   UNL     1       3.804   4.799  20.933  0.00  0.00    +0.000 OA
BRANCH   7  15
ATOM     10  C   UNL     1       3.898   2.477  19.009  0.00  0.00    +0.000 A 
ATOM     11  N   UNL     1       3.439   1.430  18.318  0.00  0.00    +0.000 NA
ATOM     12  N   UNL     1       2.368   1.923  17.678  0.00  0.00    +0.000 N 
ATOM     13  C   UNL     1       2.161   3.260  17.894  0.00  0.00    +0.000 A 
ATOM     14  C   UNL     1       1.091   4.005  17.192  0.00  0.00    +0.000 C 
ATOM     15  C   UNL     1       3.124   3.626  18.825  0.00  0.00    +0.000 A 
ATOM     16  H   UNL     1       1.834   1.295  17.085  0.00  0.00    +0.000 HD
BRANCH  10  18
ATOM     17  C   UNL     1       4.851   1.455  20.856  0.00  0.00    +0.000 C 
ATOM     18  O   UNL     1       5.009   2.356  19.766  0.00  0.00    +0.000 OA
ENDBRANCH  10  18
ENDBRANCH   7  15
ENDBRANCH   1   7
BRANCH   4  19
ATOM     19  O   UNL     1       6.905   4.730  16.373  0.00  0.00    +0.000 OA
BRANCH  19  20
ATOM     20  C   UNL     1       7.004   4.657  15.000  0.00  0.00    +0.000 A 
ATOM     21  C   UNL     1       6.167   3.773  14.332  0.00  0.00    +0.000 A 
ATOM     22  N   UNL     1       6.174   3.637  12.982  0.00  0.00    +0.000 NA
ATOM     23  C   UNL     1       7.071   4.413  12.333  0.00  0.00    +0.000 A 
ATOM     24  C   UNL     1       7.927   5.273  13.004  0.00  0.00    +0.000 A 
ATOM     25  N   UNL     1       7.916   5.414  14.350  0.00  0.00    +0.000 NA
ENDBRANCH  19  20
ENDBRANCH   4  19
TORSDOF 5
ENDMDL
MODEL 4
REMARK VINA RESULT:      -6.9      2.688      7.613
REMARK  Name = 
REMARK  7 active torsions:
REMARK  status: ('A' for Active; 'I' for Inactive)
REMARK    1  A    between atoms: C_1  and  O_2
REMARK    2  A    between atoms: O_2  and  C_3
REMARK    3  A    between atoms: C_6  and  C_7
REMARK    4  A    between atoms: C_8  and  S_9
REMARK    5  A    between atoms: S_9  and  N_12
REMARK    6  A    between atoms: C_15  and  O_16
REMARK    7  A    between atoms: O_16  and  C_17
REMARK                            x       y       z     vdW  Elec       q    Type
REMARK                         _______ _______ _______ _____ _____    ______ ____
ROOT
ATOM      1  N   UNL     1       3.866   5.222  18.823  0.00  0.00    +0.000 NA
ATOM      2  C   UNL     1       3.190   5.048  20.139  0.00  0.00    +0.000 C 
ATOM      3  C   UNL     1       1.720   5.426  20.064  0.00  0.00    +0.000 C 
ATOM      4  C   UNL     1       1.544   6.868  19.594  0.00  0.00    +0.000 C 
ATOM      5  C   UNL     1       2.198   7.009  18.219  0.00  0.00    +0.000 C 
ATOM      6  C   UNL     1       3.658   6.571  18.213  0.00  0.00    +0.000 C 
ENDROOT
BRANCH   1   7
ATOM      7  S   UNL     1       5.554   4.840  18.894  0.00  0.00    +0.000 S 
ATOM      8  O   UNL     1       5.662   3.396  18.989  0.00  0.00    +0.000 OA
ATOM      9  O   UNL     1       6.178   5.686  19.890  0.00  0.00    +0.000 OA
BRANCH   7  15
ATOM     10  C   UNL     1       7.295   6.240  17.278  0.00  0.00    +0.000 A 
ATOM     11  N   UNL     1       7.753   6.331  16.027  0.00  0.00    +0.000 NA
ATOM     12  N   UNL     1       7.057   5.390  15.370  0.00  0.00    +0.000 N 
ATOM     13  C   UNL     1       6.134   4.742  16.147  0.00  0.00    +0.000 A 
ATOM     14  C   UNL     1       5.201   3.744  15.576  0.00  0.00    +0.000 C 
ATOM     15  C   UNL     1       6.325   5.245  17.427  0.00  0.00    +0.000 A 
ATOM     16  H   UNL     1       7.245   5.260  14.381  0.00  0.00    +0.000 HD
BRANCH  10  18
ATOM     17  C   UNL     1       7.890   8.419  17.790  0.00  0.00    +0.000 C 
ATOM     18  O   UNL     1       7.759   7.073  18.233  0.00  0.00    +0.000 OA
ENDBRANCH  10  18
ENDBRANCH   7  15
ENDBRANCH   1   7
BRANCH   4  19
ATOM     19  O   UNL     1       2.180   7.799  20.485  0.00  0.00    +0.000 OA
BRANCH  19  20
ATOM     20  C   UNL     1       1.329   8.753  21.002  0.00  0.00    +0.000 A 
ATOM     21  C   UNL     1       1.362   8.983  22.371  0.00  0.00    +0.000 A 
ATOM     22  N   UNL     1       0.577   9.910  22.976  0.00  0.00    +0.000 NA
ATOM     23  C   UNL     1      -0.254  10.584  22.150  0.00  0.00    +0.000 A 
ATOM     24  C   UNL     1      -0.306  10.332  20.788  0.00  0.00    +0.000 A 
ATOM     25  N   UNL     1       0.480   9.411  20.183  0.00  0.00    +0.000 NA
ENDBRANCH  19  20
ENDBRANCH   4  19
TORSDOF 5
ENDMDL
MODEL 5
REMARK VINA RESULT:      -6.8      1.483      1.690
REMARK  Name = 
REMARK  7 active torsions:
REMARK  status: ('A' for Active; 'I' for Inactive)
REMARK    1  A    between atoms: C_1  and  O_2
REMARK    2  A    between atoms: O_2  and  C_3
REMARK    3  A    between atoms: C_6  and  C_7
REMARK    4  A    between atoms: C_8  and  S_9
REMARK    5  A    between atoms: S_9  and  N_12
REMARK    6  A    between atoms: C_15  and  O_16
REMARK    7  A    between atoms: O_16  and  C_17
REMARK                            x       y       z     vdW  Elec       q    Type
REMARK                         _______ _______ _______ _____ _____    ______ ____
ROOT
ATOM      1  N   UNL     1       4.093   4.734  17.845  0.00  0.00    +0.000 NA
ATOM      2  C   UNL     1       5.419   4.472  18.470  0.00  0.00    +0.000 C 
ATOM      3  C   UNL     1       6.408   5.585  18.163  0.00  0.00    +0.000 C 
ATOM      4  C   UNL     1       6.586   5.766  16.658  0.00  0.00    +0.000 C 
ATOM      5  C   UNL     1       5.223   6.086  16.046  0.00  0.00    +0.000 C 
ATOM      6  C   UNL     1       4.165   5.041  16.383  0.00  0.00    +0.000 C 
ENDROOT
BRANCH   1   7
ATOM      7  S   UNL     1       2.962   3.456  18.142  0.00  0.00    +0.000 S 
ATOM      8  O   UNL     1       3.540   2.239  17.603  0.00  0.00    +0.000 OA
ATOM      9  O   UNL     1       1.649   3.892  17.714  0.00  0.00    +0.000 OA
BRANCH   7  15
ATOM     10  C   UNL     1       1.909   3.824  20.664  0.00  0.00    +0.000 A 
ATOM     11  N   UNL     1       1.976   3.387  21.924  0.00  0.00    +0.000 NA
ATOM     12  N   UNL     1       2.934   2.449  21.878  0.00  0.00    +0.000 N 
ATOM     13  C   UNL     1       3.518   2.313  20.646  0.00  0.00    +0.000 A 
ATOM     14  C   UNL     1       4.665   1.402  20.425  0.00  0.00    +0.000 C 
ATOM     15  C   UNL     1       2.806   3.167  19.816  0.00  0.00    +0.000 A 
ATOM     16  H   UNL     1       3.161   1.954  22.736  0.00  0.00    +0.000 HD
BRANCH  10  18
ATOM     17  C   UNL     1       1.569   6.114  20.588  0.00  0.00    +0.000 C 
ATOM     18  O   UNL     1       1.052   4.812  20.333  0.00  0.00    +0.000 OA
ENDBRANCH  10  18
ENDBRANCH   7  15
ENDBRANCH   1   7
BRANCH   4  19
ATOM     19  O   UNL     1       7.083   4.571  16.034  0.00  0.00    +0.000 OA
BRANCH  19  20
ATOM     20  C   UNL     1       7.190   4.655  14.662  0.00  0.00    +0.000 A 
ATOM     21  C   UNL     1       6.423   3.790  13.893  0.00  0.00    +0.000 A 
ATOM     22  N   UNL     1       6.444   3.803  12.536  0.00  0.00    +0.000 NA
ATOM     23  C   UNL     1       7.283   4.709  11.986  0.00  0.00    +0.000 A 
ATOM     24  C   UNL     1       8.071   5.551  12.755  0.00  0.00    +0.000 A 
ATOM     25  N   UNL     1       8.046   5.542  14.108  0.00  0.00    +0.000 NA
ENDBRANCH  19  20
ENDBRANCH   4  19
TORSDOF 5
ENDMDL
MODEL 6
REMARK VINA RESULT:      -6.7      2.509      7.700
REMARK  Name = 
REMARK  7 active torsions:
REMARK  status: ('A' for Active; 'I' for Inactive)
REMARK    1  A    between atoms: C_1  and  O_2
REMARK    2  A    between atoms: O_2  and  C_3
REMARK    3  A    between atoms: C_6  and  C_7
REMARK    4  A    between atoms: C_8  and  S_9
REMARK    5  A    between atoms: S_9  and  N_12
REMARK    6  A    between atoms: C_15  and  O_16
REMARK    7  A    between atoms: O_16  and  C_17
REMARK                            x       y       z     vdW  Elec       q    Type
REMARK                         _______ _______ _______ _____ _____    ______ ____
ROOT
ATOM      1  N   UNL     1       3.938   5.116  18.685  0.00  0.00    +0.000 NA
ATOM      2  C   UNL     1       3.218   4.962  19.979  0.00  0.00    +0.000 C 
ATOM      3  C   UNL     1       1.760   5.377  19.858  0.00  0.00    +0.000 C 
ATOM      4  C   UNL     1       1.635   6.821  19.381  0.00  0.00    +0.000 C 
ATOM      5  C   UNL     1       2.335   6.943  18.027  0.00  0.00    +0.000 C 
ATOM      6  C   UNL     1       3.784   6.469  18.067  0.00  0.00    +0.000 C 
ENDROOT
BRANCH   1   7
ATOM      7  S   UNL     1       5.613   4.693  18.809  0.00  0.00    +0.000 S 
ATOM      8  O   UNL     1       5.705   3.256  18.636  0.00  0.00    +0.000 OA
ATOM      9  O   UNL     1       6.163   5.322  19.992  0.00  0.00    +0.000 OA
BRANCH   7  15
ATOM     10  C   UNL     1       6.436   4.904  16.186  0.00  0.00    +0.000 A 
ATOM     11  N   UNL     1       7.213   5.614  15.363  0.00  0.00    +0.000 NA
ATOM     12  N   UNL     1       7.785   6.516  16.175  0.00  0.00    +0.000 N 
ATOM     13  C   UNL     1       7.443   6.370  17.493  0.00  0.00    +0.000 A 
ATOM     14  C   UNL     1       8.054   7.206  18.552  0.00  0.00    +0.000 C 
ATOM     15  C   UNL     1       6.499   5.352  17.508  0.00  0.00    +0.000 A 
ATOM     16  H   UNL     1       8.424   7.190  15.765  0.00  0.00    +0.000 HD
BRANCH  10  18
ATOM     17  C   UNL     1       5.782   3.735  14.297  0.00  0.00    +0.000 C 
ATOM     18  O   UNL     1       5.713   3.868  15.712  0.00  0.00    +0.000 OA
ENDBRANCH  10  18
ENDBRANCH   7  15
ENDBRANCH   1   7
BRANCH   4  19
ATOM     19  O   UNL     1       2.266   7.737  20.290  0.00  0.00    +0.000 OA
BRANCH  19  20
ATOM     20  C   UNL     1       1.424   8.714  20.780  0.00  0.00    +0.000 A 
ATOM     21  C   UNL     1       1.364   8.895  22.155  0.00  0.00    +0.000 A 
ATOM     22  N   UNL     1       0.580   9.838  22.736  0.00  0.00    +0.000 NA
ATOM     23  C   UNL     1      -0.155  10.579  21.876  0.00  0.00    +0.000 A 
ATOM     24  C   UNL     1      -0.117  10.377  20.506  0.00  0.00    +0.000 A 
ATOM     25  N   UNL     1       0.669   9.440  19.926  0.00  0.00    +0.000 NA
ENDBRANCH  19  20
ENDBRANCH   4  19
TORSDOF 5
ENDMDL
MODEL 7
REMARK VINA RESULT:      -6.7      0.605      1.018
REMARK  Name = 
REMARK  7 active torsions:
REMARK  status: ('A' for Active; 'I' for Inactive)
REMARK    1  A    between atoms: C_1  and  O_2
REMARK    2  A    between atoms: O_2  and  C_3
REMARK    3  A    between atoms: C_6  and  C_7
REMARK    4  A    between atoms: C_8  and  S_9
REMARK    5  A    between atoms: S_9  and  N_12
REMARK    6  A    between atoms: C_15  and  O_16
REMARK    7  A    between atoms: O_16  and  C_17
REMARK                            x       y       z     vdW  Elec       q    Type
REMARK                         _______ _______ _______ _____ _____    ______ ____
ROOT
ATOM      1  N   UNL     1       4.816   4.669  18.161  0.00  0.00    +0.000 NA
ATOM      2  C   UNL     1       6.256   4.760  18.531  0.00  0.00    +0.000 C 
ATOM      3  C   UNL     1       6.918   5.972  17.894  0.00  0.00    +0.000 C 
ATOM      4  C   UNL     1       6.788   5.937  16.373  0.00  0.00    +0.000 C 
ATOM      5  C   UNL     1       5.303   5.897  16.017  0.00  0.00    +0.000 C 
ATOM      6  C   UNL     1       4.566   4.743  16.689  0.00  0.00    +0.000 C 
ENDROOT
BRANCH   1   7
ATOM      7  S   UNL     1       4.051   3.270  18.837  0.00  0.00    +0.000 S 
ATOM      8  O   UNL     1       4.856   2.847  19.968  0.00  0.00    +0.000 OA
ATOM      9  O   UNL     1       3.752   2.342  17.766  0.00  0.00    +0.000 OA
BRANCH   7  15
ATOM     10  C   UNL     1       2.204   4.920  20.049  0.00  0.00    +0.000 A 
ATOM     11  N   UNL     1       0.940   4.977  20.477  0.00  0.00    +0.000 NA
ATOM     12  N   UNL     1       0.465   3.752  20.210  0.00  0.00    +0.000 N 
ATOM     13  C   UNL     1       1.397   2.899  19.680  0.00  0.00    +0.000 A 
ATOM     14  C   UNL     1       1.088   1.475  19.416  0.00  0.00    +0.000 C 
ATOM     15  C   UNL     1       2.534   3.676  19.504  0.00  0.00    +0.000 A 
ATOM     16  H   UNL     1      -0.504   3.554  20.442  0.00  0.00    +0.000 HD
BRANCH  10  18
ATOM     17  C   UNL     1       2.538   7.147  19.507  0.00  0.00    +0.000 C 
ATOM     18  O   UNL     1       3.016   5.990  20.185  0.00  0.00    +0.000 OA
ENDBRANCH  10  18
ENDBRANCH   7  15
ENDBRANCH   1   7
BRANCH   4  19
ATOM     19  O   UNL     1       7.410   4.768  15.815  0.00  0.00    +0.000 OA
BRANCH  19  20
ATOM     20  C   UNL     1       7.261   4.650  14.448  0.00  0.00    +0.000 A 
ATOM     21  C   UNL     1       7.946   5.546  13.638  0.00  0.00    +0.000 A 
ATOM     22  N   UNL     1       7.880   5.505  12.283  0.00  0.00    +0.000 NA
ATOM     23  C   UNL     1       7.082   4.537  11.779  0.00  0.00    +0.000 A 
ATOM     24  C   UNL     1       6.376   3.663  12.589  0.00  0.00    +0.000 A 
ATOM     25  N   UNL     1       6.446   3.700  13.941  0.00  0.00    +0.000 NA
ENDBRANCH  19  20
ENDBRANCH   4  19
TORSDOF 5
ENDMDL
MODEL 8
REMARK VINA RESULT:      -6.7      1.921      6.690
REMARK  Name = 
REMARK  7 active torsions:
REMARK  status: ('A' for Active; 'I' for Inactive)
REMARK    1  A    between atoms: C_1  and  O_2
REMARK    2  A    between atoms: O_2  and  C_3
REMARK    3  A    between atoms: C_6  and  C_7
REMARK    4  A    between atoms: C_8  and  S_9
REMARK    5  A    between atoms: S_9  and  N_12
REMARK    6  A    between atoms: C_15  and  O_16
REMARK    7  A    between atoms: O_16  and  C_17
REMARK                            x       y       z     vdW  Elec       q    Type
REMARK                         _______ _______ _______ _____ _____    ______ ____
ROOT
ATOM      1  N   UNL     1       5.746   6.346  17.901  0.00  0.00    +0.000 NA
ATOM      2  C   UNL     1       4.757   6.879  16.923  0.00  0.00    +0.000 C 
ATOM      3  C   UNL     1       3.540   7.461  17.624  0.00  0.00    +0.000 C 
ATOM      4  C   UNL     1       2.862   6.419  18.510  0.00  0.00    +0.000 C 
ATOM      5  C   UNL     1       3.879   5.926  19.538  0.00  0.00    +0.000 C 
ATOM      6  C   UNL     1       5.158   5.398  18.897  0.00  0.00    +0.000 C 
ENDROOT
BRANCH   1   7
ATOM      7  S   UNL     1       7.121   5.635  17.125  0.00  0.00    +0.000 S 
ATOM      8  O   UNL     1       7.697   4.687  18.060  0.00  0.00    +0.000 OA
ATOM      9  O   UNL     1       7.935   6.693  16.564  0.00  0.00    +0.000 OA
BRANCH   7  15
ATOM     10  C   UNL     1       7.151   4.819  14.491  0.00  0.00    +0.000 A 
ATOM     11  N   UNL     1       6.617   3.941  13.638  0.00  0.00    +0.000 NA
ATOM     12  N   UNL     1       5.745   3.260  14.396  0.00  0.00    +0.000 N 
ATOM     13  C   UNL     1       5.666   3.709  15.688  0.00  0.00    +0.000 A 
ATOM     14  C   UNL     1       4.686   3.150  16.647  0.00  0.00    +0.000 C 
ATOM     15  C   UNL     1       6.638   4.695  15.785  0.00  0.00    +0.000 A 
ATOM     16  H   UNL     1       5.214   2.512  13.960  0.00  0.00    +0.000 HD
BRANCH  10  18
ATOM     17  C   UNL     1       8.259   5.688  12.652  0.00  0.00    +0.000 C 
ATOM     18  O   UNL     1       8.070   5.709  14.062  0.00  0.00    +0.000 OA
ENDBRANCH  10  18
ENDBRANCH   7  15
ENDBRANCH   1   7
BRANCH   4  19
ATOM     19  O   UNL     1       2.414   5.285  17.750  0.00  0.00    +0.000 OA
BRANCH  19  20
ATOM     20  C   UNL     1       1.793   4.312  18.504  0.00  0.00    +0.000 A 
ATOM     21  C   UNL     1       1.573   4.570  19.850  0.00  0.00    +0.000 A 
ATOM     22  N   UNL     1       0.956   3.686  20.674  0.00  0.00    +0.000 NA
ATOM     23  C   UNL     1       0.586   2.523  20.091  0.00  0.00    +0.000 A 
ATOM     24  C   UNL     1       0.834   2.254  18.754  0.00  0.00    +0.000 A 
ATOM     25  N   UNL     1       1.444   3.139  17.930  0.00  0.00    +0.000 NA
ENDBRANCH  19  20
ENDBRANCH   4  19
TORSDOF 5
ENDMDL
MODEL 9
REMARK VINA RESULT:      -6.7      0.911      2.051
REMARK  Name = 
REMARK  7 active torsions:
REMARK  status: ('A' for Active; 'I' for Inactive)
REMARK    1  A    between atoms: C_1  and  O_2
REMARK    2  A    between atoms: O_2  and  C_3
REMARK    3  A    between atoms: C_6  and  C_7
REMARK    4  A    between atoms: C_8  and  S_9
REMARK    5  A    between atoms: S_9  and  N_12
REMARK    6  A    between atoms: C_15  and  O_16
REMARK    7  A    between atoms: O_16  and  C_17
REMARK                            x       y       z     vdW  Elec       q    Type
REMARK                         _______ _______ _______ _____ _____    ______ ____
ROOT
ATOM      1  N   UNL     1       5.050   5.113  18.149  0.00  0.00    +0.000 NA
ATOM      2  C   UNL     1       6.496   4.978  18.478  0.00  0.00    +0.000 C 
ATOM      3  C   UNL     1       7.320   6.074  17.822  0.00  0.00    +0.000 C 
ATOM      4  C   UNL     1       7.144   6.065  16.306  0.00  0.00    +0.000 C 
ATOM      5  C   UNL     1       5.661   6.259  15.992  0.00  0.00    +0.000 C 
ATOM      6  C   UNL     1       4.773   5.231  16.685  0.00  0.00    +0.000 C 
ENDROOT
BRANCH   1   7
ATOM      7  S   UNL     1       4.095   3.848  18.848  0.00  0.00    +0.000 S 
ATOM      8  O   UNL     1       4.877   3.265  19.922  0.00  0.00    +0.000 OA
ATOM      9  O   UNL     1       3.583   3.012  17.782  0.00  0.00    +0.000 OA
BRANCH   7  15
ATOM     10  C   UNL     1       1.761   3.740  20.311  0.00  0.00    +0.000 A 
ATOM     11  N   UNL     1       0.789   4.495  20.830  0.00  0.00    +0.000 NA
ATOM     12  N   UNL     1       1.117   5.737  20.443  0.00  0.00    +0.000 N 
ATOM     13  C   UNL     1       2.233   5.792  19.650  0.00  0.00    +0.000 A 
ATOM     14  C   UNL     1       2.692   7.062  19.040  0.00  0.00    +0.000 C 
ATOM     15  C   UNL     1       2.709   4.489  19.609  0.00  0.00    +0.000 A 
ATOM     16  H   UNL     1       0.518   6.503  20.735  0.00  0.00    +0.000 HD
BRANCH  10  18
ATOM     17  C   UNL     1       1.966   2.000  21.826  0.00  0.00    +0.000 C 
ATOM     18  O   UNL     1       1.743   2.401  20.479  0.00  0.00    +0.000 OA
ENDBRANCH  10  18
ENDBRANCH   7  15
ENDBRANCH   1   7
BRANCH   4  19
ATOM     19  O   UNL     1       7.560   4.816  15.730  0.00  0.00    +0.000 OA
BRANCH  19  20
ATOM     20  C   UNL     1       7.424   4.755  14.359  0.00  0.00    +0.000 A 
ATOM     21  C   UNL     1       6.575   3.792  13.830  0.00  0.00    +0.000 A 
ATOM     22  N   UNL     1       6.359   3.659  12.497  0.00  0.00    +0.000 NA
ATOM     23  C   UNL     1       7.046   4.524  11.718  0.00  0.00    +0.000 A 
ATOM     24  C   UNL     1       7.916   5.465  12.245  0.00  0.00    +0.000 A 
ATOM     25  N   UNL     1       8.127   5.602  13.576  0.00  0.00    +0.000 NA
ENDBRANCH  19  20
ENDBRANCH   4  19
TORSDOF 5
ENDMDL
