MODEL 1
REMARK VINA RESULT:      -7.8      0.000      0.000
REMARK  Name = 
REMARK  7 active torsions:
REMARK  status: ('A' for Active; 'I' for Inactive)
REMARK    1  A    between atoms: C_1  and  N_2
REMARK    2  A    between atoms: N_2  and  C_3
REMARK    3  A    between atoms: C_3  and  C_4
REMARK    4  A    between atoms: C_10  and  C_12
REMARK    5  A    between atoms: C_12  and  O_13
REMARK    6  A    between atoms: O_13  and  C_14
REMARK    7  A    between atoms: C_14  and  C_16
REMARK                            x       y       z     vdW  Elec       q    Type
REMARK                         _______ _______ _______ _____ _____    ______ ____
ROOT
ATOM      1  O   UNL     1       3.997   3.715  16.857  0.00  0.00    +0.000 OA
ENDROOT
BRANCH   1   2
ATOM      2  C   UNL     1       5.263   4.115  17.162  0.00  0.00    +0.000 C 
ATOM      3  O   UNL     1       5.658   4.206  18.327  0.00  0.00    +0.000 OA
BRANCH   2   4
ATOM      4  C   UNL     1       6.141   4.461  16.040  0.00  0.00    +0.000 A 
ATOM      5  C   UNL     1       7.284   5.210  16.284  0.00  0.00    +0.000 A 
ATOM      6  N   UNL     1       7.734   5.686  15.102  0.00  0.00    +0.000 N 
ATOM      7  C   UNL     1       7.206   4.944  14.077  0.00  0.00    +0.000 A 
ATOM      8  C   UNL     1       7.588   4.932  12.731  0.00  0.00    +0.000 A 
ATOM      9  C   UNL     1       6.897   4.082  11.876  0.00  0.00    +0.000 A 
ATOM     10  C   UNL     1       5.815   3.343  12.351  0.00  0.00    +0.000 A 
ATOM     11  C   UNL     1       5.416   3.393  13.702  0.00  0.00    +0.000 A 
ATOM     12  C   UNL     1       6.159   4.185  14.617  0.00  0.00    +0.000 A 
ATOM     13  H   UNL     1       8.404   6.437  14.987  0.00  0.00    +0.000 HD
ENDBRANCH   2   4
ENDBRANCH   1   2
BRANCH   1  14
ATOM     14  C   UNL     1       3.452   2.788  17.800  0.00  0.00    +0.000 C 
BRANCH  14  17
ATOM     15  C   UNL     1       0.683   3.820  20.333  0.00  0.00    +0.000 C 
ATOM     16  N   UNL     1       1.949   3.790  19.611  0.00  0.00    +0.000 N 
ATOM     17  C   UNL     1       2.082   2.936  18.529  0.00  0.00    +0.000 C 
ATOM     18  O   UNL     1       1.147   2.192  18.205  0.00  0.00    +0.000 OA
BRANCH  16  19
ATOM     19  C   UNL     1       2.889   4.871  19.931  0.00  0.00    +0.000 C 
BRANCH  19  20
ATOM     20  C   UNL     1       2.495   6.254  19.454  0.00  0.00    +0.000 A 
ATOM     21  C   UNL     1       2.736   6.729  18.155  0.00  0.00    +0.000 A 
ATOM     22  C   UNL     1       2.412   8.042  17.802  0.00  0.00    +0.000 A 
ATOM     23  C   UNL     1       1.831   8.893  18.735  0.00  0.00    +0.000 A 
ATOM     24  C   UNL     1       1.571   8.435  20.021  0.00  0.00    +0.000 A 
ATOM     25  C   UNL     1       1.900   7.125  20.378  0.00  0.00    +0.000 A 
ENDBRANCH  19  20
ENDBRANCH  16  19
ENDBRANCH  14  17
ENDBRANCH   1  14
TORSDOF 6
ENDMDL
MODEL 2
REMARK VINA RESULT:      -7.8      2.459      6.656
REMARK  Name = 
REMARK  7 active torsions:
REMARK  status: ('A' for Active; 'I' for Inactive)
REMARK    1  A    between atoms: C_1  and  N_2
REMARK    2  A    between atoms: N_2  and  C_3
REMARK    3  A    between atoms: C_3  and  C_4
REMARK    4  A    between atoms: C_10  and  C_12
REMARK    5  A    between atoms: C_12  and  O_13
REMARK    6  A    between atoms: O_13  and  C_14
REMARK    7  A    between atoms: C_14  and  C_16
REMARK                            x       y       z     vdW  Elec       q    Type
REMARK                         _______ _______ _______ _____ _____    ______ ____
ROOT
ATOM      1  O   UNL     1       3.654   7.310  16.936  0.00  0.00    +0.000 OA
ENDROOT
BRANCH   1   2
ATOM      2  C   UNL     1       2.748   7.781  17.839  0.00  0.00    +0.000 C 
ATOM      3  O   UNL     1       2.342   8.946  17.812  0.00  0.00    +0.000 OA
BRANCH   2   4
ATOM      4  C   UNL     1       2.289   6.847  18.871  0.00  0.00    +0.000 A 
ATOM      5  C   UNL     1       2.258   7.265  20.194  0.00  0.00    +0.000 A 
ATOM      6  N   UNL     1       2.139   6.171  20.978  0.00  0.00    +0.000 N 
ATOM      7  C   UNL     1       1.663   5.123  20.234  0.00  0.00    +0.000 A 
ATOM      8  C   UNL     1       1.167   3.894  20.685  0.00  0.00    +0.000 A 
ATOM      9  C   UNL     1       0.735   2.985  19.727  0.00  0.00    +0.000 A 
ATOM     10  C   UNL     1       0.878   3.279  18.372  0.00  0.00    +0.000 A 
ATOM     11  C   UNL     1       1.414   4.505  17.930  0.00  0.00    +0.000 A 
ATOM     12  C   UNL     1       1.783   5.489  18.886  0.00  0.00    +0.000 A 
ATOM     13  H   UNL     1       2.317   6.139  21.974  0.00  0.00    +0.000 HD
ENDBRANCH   2   4
ENDBRANCH   1   2
BRANCH   1  14
ATOM     14  C   UNL     1       4.969   7.163  17.477  0.00  0.00    +0.000 C 
BRANCH  14  17
ATOM     15  C   UNL     1       7.289   4.465  15.900  0.00  0.00    +0.000 C 
ATOM     16  N   UNL     1       6.109   5.110  16.462  0.00  0.00    +0.000 N 
ATOM     17  C   UNL     1       6.167   6.459  16.769  0.00  0.00    +0.000 C 
ATOM     18  O   UNL     1       7.216   7.093  16.594  0.00  0.00    +0.000 OA
BRANCH  16  19
ATOM     19  C   UNL     1       4.868   4.329  16.403  0.00  0.00    +0.000 C 
BRANCH  19  20
ATOM     20  C   UNL     1       4.583   3.448  17.603  0.00  0.00    +0.000 A 
ATOM     21  C   UNL     1       4.898   3.802  18.924  0.00  0.00    +0.000 A 
ATOM     22  C   UNL     1       4.673   2.910  19.977  0.00  0.00    +0.000 A 
ATOM     23  C   UNL     1       4.119   1.660  19.727  0.00  0.00    +0.000 A 
ATOM     24  C   UNL     1       3.788   1.298  18.427  0.00  0.00    +0.000 A 
ATOM     25  C   UNL     1       4.017   2.185  17.372  0.00  0.00    +0.000 A 
ENDBRANCH  19  20
ENDBRANCH  16  19
ENDBRANCH  14  17
ENDBRANCH   1  14
TORSDOF 6
ENDMDL
MODEL 3
REMARK VINA RESULT:      -7.8      1.362      3.280
REMARK  Name = 
REMARK  7 active torsions:
REMARK  status: ('A' for Active; 'I' for Inactive)
REMARK    1  A    between atoms: C_1  and  N_2
REMARK    2  A    between atoms: N_2  and  C_3
REMARK    3  A    between atoms: C_3  and  C_4
REMARK    4  A    between atoms: C_10  and  C_12
REMARK    5  A    between atoms: C_12  and  O_13
REMARK    6  A    between atoms: O_13  and  C_14
REMARK    7  A    between atoms: C_14  and  C_16
REMARK                            x       y       z     vdW  Elec       q    Type
REMARK                         _______ _______ _______ _____ _____    ______ ____
ROOT
ATOM      1  O   UNL     1       5.130   4.172  18.229  0.00  0.00    +0.000 OA
ENDROOT
BRANCH   1   2
ATOM      2  C   UNL     1       4.792   3.994  16.921  0.00  0.00    +0.000 C 
ATOM      3  O   UNL     1       3.686   3.566  16.582  0.00  0.00    +0.000 OA
BRANCH   2   4
ATOM      4  C   UNL     1       5.816   4.312  15.920  0.00  0.00    +0.000 A 
ATOM      5  C   UNL     1       6.995   4.918  16.330  0.00  0.00    +0.000 A 
ATOM      6  N   UNL     1       7.615   5.414  15.237  0.00  0.00    +0.000 N 
ATOM      7  C   UNL     1       7.128   4.797  14.114  0.00  0.00    +0.000 A 
ATOM      8  C   UNL     1       7.649   4.826  12.815  0.00  0.00    +0.000 A 
ATOM      9  C   UNL     1       6.972   4.109  11.836  0.00  0.00    +0.000 A 
ATOM     10  C   UNL     1       5.776   3.462  12.146  0.00  0.00    +0.000 A 
ATOM     11  C   UNL     1       5.243   3.472  13.450  0.00  0.00    +0.000 A 
ATOM     12  C   UNL     1       5.958   4.122  14.490  0.00  0.00    +0.000 A 
ATOM     13  H   UNL     1       8.365   6.094  15.244  0.00  0.00    +0.000 HD
ENDBRANCH   2   4
ENDBRANCH   1   2
BRANCH   1  14
ATOM     14  C   UNL     1       5.036   5.532  18.659  0.00  0.00    +0.000 C 
BRANCH  14  17
ATOM     15  C   UNL     1       1.971   7.812  17.912  0.00  0.00    +0.000 C 
ATOM     16  N   UNL     1       2.856   6.868  18.584  0.00  0.00    +0.000 N 
ATOM     17  C   UNL     1       4.104   6.617  18.038  0.00  0.00    +0.000 C 
ATOM     18  O   UNL     1       4.443   7.166  16.981  0.00  0.00    +0.000 OA
BRANCH  16  19
ATOM     19  C   UNL     1       2.450   6.466  19.935  0.00  0.00    +0.000 C 
BRANCH  19  20
ATOM     20  C   UNL     1       2.005   5.027  20.092  0.00  0.00    +0.000 A 
ATOM     21  C   UNL     1       2.123   4.298  21.287  0.00  0.00    +0.000 A 
ATOM     22  C   UNL     1       1.759   2.950  21.341  0.00  0.00    +0.000 A 
ATOM     23  C   UNL     1       1.259   2.315  20.211  0.00  0.00    +0.000 A 
ATOM     24  C   UNL     1       1.120   3.024  19.024  0.00  0.00    +0.000 A 
ATOM     25  C   UNL     1       1.489   4.370  18.965  0.00  0.00    +0.000 A 
ENDBRANCH  19  20
ENDBRANCH  16  19
ENDBRANCH  14  17
ENDBRANCH   1  14
TORSDOF 6
ENDMDL
MODEL 4
REMARK VINA RESULT:      -7.7      0.428      1.070
REMARK  Name = 
REMARK  7 active torsions:
REMARK  status: ('A' for Active; 'I' for Inactive)
REMARK    1  A    between atoms: C_1  and  N_2
REMARK    2  A    between atoms: N_2  and  C_3
REMARK    3  A    between atoms: C_3  and  C_4
REMARK    4  A    between atoms: C_10  and  C_12
REMARK    5  A    between atoms: C_12  and  O_13
REMARK    6  A    between atoms: O_13  and  C_14
REMARK    7  A    between atoms: C_14  and  C_16
REMARK                            x       y       z     vdW  Elec       q    Type
REMARK                         _______ _______ _______ _____ _____    ______ ____
ROOT
ATOM      1  O   UNL     1       4.092   3.925  16.696  0.00  0.00    +0.000 OA
ENDROOT
BRANCH   1   2
ATOM      2  C   UNL     1       5.295   4.544  16.857  0.00  0.00    +0.000 C 
ATOM      3  O   UNL     1       5.648   5.019  17.939  0.00  0.00    +0.000 OA
BRANCH   2   4
ATOM      4  C   UNL     1       6.154   4.648  15.673  0.00  0.00    +0.000 A 
ATOM      5  C   UNL     1       7.395   5.260  15.792  0.00  0.00    +0.000 A 
ATOM      6  N   UNL     1       7.844   5.543  14.550  0.00  0.00    +0.000 N 
ATOM      7  C   UNL     1       7.176   4.773  13.633  0.00  0.00    +0.000 A 
ATOM      8  C   UNL     1       7.487   4.566  12.284  0.00  0.00    +0.000 A 
ATOM      9  C   UNL     1       6.650   3.730  11.554  0.00  0.00    +0.000 A 
ATOM     10  C   UNL     1       5.507   3.197  12.146  0.00  0.00    +0.000 A 
ATOM     11  C   UNL     1       5.185   3.443  13.496  0.00  0.00    +0.000 A 
ATOM     12  C   UNL     1       6.067   4.222  14.291  0.00  0.00    +0.000 A 
ATOM     13  H   UNL     1       8.599   6.181  14.328  0.00  0.00    +0.000 HD
ENDBRANCH   2   4
ENDBRANCH   1   2
BRANCH   1  14
ATOM     14  C   UNL     1       3.677   3.184  17.847  0.00  0.00    +0.000 C 
BRANCH  14  17
ATOM     15  C   UNL     1       0.738   4.007  20.262  0.00  0.00    +0.000 C 
ATOM     16  N   UNL     1       2.041   4.057  19.608  0.00  0.00    +0.000 N 
ATOM     17  C   UNL     1       2.266   3.249  18.506  0.00  0.00    +0.000 C 
ATOM     18  O   UNL     1       1.382   2.479  18.107  0.00  0.00    +0.000 OA
BRANCH  16  19
ATOM     19  C   UNL     1       2.915   5.162  20.015  0.00  0.00    +0.000 C 
BRANCH  19  20
ATOM     20  C   UNL     1       2.479   6.546  19.578  0.00  0.00    +0.000 A 
ATOM     21  C   UNL     1       1.875   7.481  20.434  0.00  0.00    +0.000 A 
ATOM     22  C   UNL     1       1.431   8.714  19.948  0.00  0.00    +0.000 A 
ATOM     23  C   UNL     1       1.597   9.036  18.606  0.00  0.00    +0.000 A 
ATOM     24  C   UNL     1       2.207   8.130  17.748  0.00  0.00    +0.000 A 
ATOM     25  C   UNL     1       2.646   6.895  18.229  0.00  0.00    +0.000 A 
ENDBRANCH  19  20
ENDBRANCH  16  19
ENDBRANCH  14  17
ENDBRANCH   1  14
TORSDOF 6
ENDMDL
MODEL 5
REMARK VINA RESULT:      -7.7      3.178      8.234
REMARK  Name = 
REMARK  7 active torsions:
REMARK  status: ('A' for Active; 'I' for Inactive)
REMARK    1  A    between atoms: C_1  and  N_2
REMARK    2  A    between atoms: N_2  and  C_3
REMARK    3  A    between atoms: C_3  and  C_4
REMARK    4  A    between atoms: C_10  and  C_12
REMARK    5  A    between atoms: C_12  and  O_13
REMARK    6  A    between atoms: O_13  and  C_14
REMARK    7  A    between atoms: C_14  and  C_16
REMARK                            x       y       z     vdW  Elec       q    Type
REMARK                         _______ _______ _______ _____ _____    ______ ____
ROOT
ATOM      1  O   UNL     1       2.284   7.822  19.054  0.00  0.00    +0.000 OA
ENDROOT
BRANCH   1   2
ATOM      2  C   UNL     1       1.786   8.959  18.494  0.00  0.00    +0.000 C 
ATOM      3  O   UNL     1       2.136   9.346  17.376  0.00  0.00    +0.000 OA
BRANCH   2   4
ATOM      4  C   UNL     1       0.826   9.729  19.291  0.00  0.00    +0.000 A 
ATOM      5  C   UNL     1      -0.005  10.640  18.652  0.00  0.00    +0.000 A 
ATOM      6  N   UNL     1      -0.539  11.452  19.590  0.00  0.00    +0.000 N 
ATOM      7  C   UNL     1      -0.443  10.857  20.821  0.00  0.00    +0.000 A 
ATOM      8  C   UNL     1      -1.075  11.226  22.014  0.00  0.00    +0.000 A 
ATOM      9  C   UNL     1      -0.819  10.455  23.141  0.00  0.00    +0.000 A 
ATOM     10  C   UNL     1       0.100   9.409  23.077  0.00  0.00    +0.000 A 
ATOM     11  C   UNL     1       0.759   9.070  21.878  0.00  0.00    +0.000 A 
ATOM     12  C   UNL     1       0.451   9.785  20.690  0.00  0.00    +0.000 A 
ATOM     13  H   UNL     1      -0.994  12.339  19.410  0.00  0.00    +0.000 HD
ENDBRANCH   2   4
ENDBRANCH   1   2
BRANCH   1  14
ATOM     14  C   UNL     1       2.511   6.775  18.107  0.00  0.00    +0.000 C 
BRANCH  14  17
ATOM     15  C   UNL     1       5.546   4.503  17.228  0.00  0.00    +0.000 C 
ATOM     16  N   UNL     1       4.196   4.924  17.583  0.00  0.00    +0.000 N 
ATOM     17  C   UNL     1       3.907   6.277  17.622  0.00  0.00    +0.000 C 
ATOM     18  O   UNL     1       4.792   7.111  17.388  0.00  0.00    +0.000 OA
BRANCH  16  19
ATOM     19  C   UNL     1       3.184   3.862  17.606  0.00  0.00    +0.000 C 
BRANCH  19  20
ATOM     20  C   UNL     1       2.634   3.501  18.971  0.00  0.00    +0.000 A 
ATOM     21  C   UNL     1       3.431   3.081  20.048  0.00  0.00    +0.000 A 
ATOM     22  C   UNL     1       2.851   2.694  21.259  0.00  0.00    +0.000 A 
ATOM     23  C   UNL     1       1.470   2.733  21.417  0.00  0.00    +0.000 A 
ATOM     24  C   UNL     1       0.667   3.160  20.367  0.00  0.00    +0.000 A 
ATOM     25  C   UNL     1       1.243   3.542  19.153  0.00  0.00    +0.000 A 
ENDBRANCH  19  20
ENDBRANCH  16  19
ENDBRANCH  14  17
ENDBRANCH   1  14
TORSDOF 6
ENDMDL
MODEL 6
REMARK VINA RESULT:      -7.7      3.193      4.750
REMARK  Name = 
REMARK  7 active torsions:
REMARK  status: ('A' for Active; 'I' for Inactive)
REMARK    1  A    between atoms: C_1  and  N_2
REMARK    2  A    between atoms: N_2  and  C_3
REMARK    3  A    between atoms: C_3  and  C_4
REMARK    4  A    between atoms: C_10  and  C_12
REMARK    5  A    between atoms: C_12  and  O_13
REMARK    6  A    between atoms: O_13  and  C_14
REMARK    7  A    between atoms: C_14  and  C_16
REMARK                            x       y       z     vdW  Elec       q    Type
REMARK                         _______ _______ _______ _____ _____    ______ ____
ROOT
ATOM      1  O   UNL     1       4.234   7.429  16.795  0.00  0.00    +0.000 OA
ENDROOT
BRANCH   1   2
ATOM      2  C   UNL     1       5.189   6.462  16.701  0.00  0.00    +0.000 C 
ATOM      3  O   UNL     1       6.064   6.488  15.831  0.00  0.00    +0.000 OA
BRANCH   2   4
ATOM      4  C   UNL     1       5.122   5.363  17.668  0.00  0.00    +0.000 A 
ATOM      5  C   UNL     1       5.830   5.467  18.858  0.00  0.00    +0.000 A 
ATOM      6  N   UNL     1       5.898   4.239  19.416  0.00  0.00    +0.000 N 
ATOM      7  C   UNL     1       4.921   3.438  18.883  0.00  0.00    +0.000 A 
ATOM      8  C   UNL     1       4.479   2.190  19.339  0.00  0.00    +0.000 A 
ATOM      9  C   UNL     1       3.462   1.570  18.624  0.00  0.00    +0.000 A 
ATOM     10  C   UNL     1       2.975   2.152  17.455  0.00  0.00    +0.000 A 
ATOM     11  C   UNL     1       3.454   3.392  16.986  0.00  0.00    +0.000 A 
ATOM     12  C   UNL     1       4.432   4.091  17.743  0.00  0.00    +0.000 A 
ATOM     13  H   UNL     1       6.532   3.963  20.156  0.00  0.00    +0.000 HD
ENDBRANCH   2   4
ENDBRANCH   1   2
BRANCH   1  14
ATOM     14  C   UNL     1       3.091   7.024  17.553  0.00  0.00    +0.000 C 
BRANCH  14  17
ATOM     15  C   UNL     1       1.229   8.324  20.714  0.00  0.00    +0.000 C 
ATOM     16  N   UNL     1       2.067   7.504  19.847  0.00  0.00    +0.000 N 
ATOM     17  C   UNL     1       2.297   7.925  18.548  0.00  0.00    +0.000 C 
ATOM     18  O   UNL     1       1.773   8.965  18.127  0.00  0.00    +0.000 OA
BRANCH  16  19
ATOM     19  C   UNL     1       2.817   6.434  20.514  0.00  0.00    +0.000 C 
BRANCH  19  20
ATOM     20  C   UNL     1       2.148   5.075  20.544  0.00  0.00    +0.000 A 
ATOM     21  C   UNL     1       1.199   4.652  19.600  0.00  0.00    +0.000 A 
ATOM     22  C   UNL     1       0.566   3.412  19.728  0.00  0.00    +0.000 A 
ATOM     23  C   UNL     1       0.883   2.573  20.790  0.00  0.00    +0.000 A 
ATOM     24  C   UNL     1       1.831   2.969  21.725  0.00  0.00    +0.000 A 
ATOM     25  C   UNL     1       2.460   4.210  21.603  0.00  0.00    +0.000 A 
ENDBRANCH  19  20
ENDBRANCH  16  19
ENDBRANCH  14  17
ENDBRANCH   1  14
TORSDOF 6
ENDMDL
MODEL 7
REMARK VINA RESULT:      -7.6      1.985      7.130
REMARK  Name = 
REMARK  7 active torsions:
REMARK  status: ('A' for Active; 'I' for Inactive)
REMARK    1  A    between atoms: C_1  and  N_2
REMARK    2  A    between atoms: N_2  and  C_3
REMARK    3  A    between atoms: C_3  and  C_4
REMARK    4  A    between atoms: C_10  and  C_12
REMARK    5  A    between atoms: C_12  and  O_13
REMARK    6  A    between atoms: O_13  and  C_14
REMARK    7  A    between atoms: C_14  and  C_16
REMARK                            x       y       z     vdW  Elec       q    Type
REMARK                         _______ _______ _______ _____ _____    ______ ____
ROOT
ATOM      1  O   UNL     1       3.905   7.828  17.656  0.00  0.00    +0.000 OA
ENDROOT
BRANCH   1   2
ATOM      2  C   UNL     1       2.591   7.642  17.963  0.00  0.00    +0.000 C 
ATOM      3  O   UNL     1       1.697   8.327  17.460  0.00  0.00    +0.000 OA
BRANCH   2   4
ATOM      4  C   UNL     1       2.278   6.600  18.946  0.00  0.00    +0.000 A 
ATOM      5  C   UNL     1       2.165   6.949  20.286  0.00  0.00    +0.000 A 
ATOM      6  N   UNL     1       2.217   5.816  21.020  0.00  0.00    +0.000 N 
ATOM      7  C   UNL     1       1.926   4.739  20.224  0.00  0.00    +0.000 A 
ATOM      8  C   UNL     1       1.632   3.427  20.614  0.00  0.00    +0.000 A 
ATOM      9  C   UNL     1       1.364   2.504  19.610  0.00  0.00    +0.000 A 
ATOM     10  C   UNL     1       1.473   2.877  18.272  0.00  0.00    +0.000 A 
ATOM     11  C   UNL     1       1.807   4.193  17.891  0.00  0.00    +0.000 A 
ATOM     12  C   UNL     1       2.000   5.179  18.895  0.00  0.00    +0.000 A 
ATOM     13  H   UNL     1       2.386   5.769  22.017  0.00  0.00    +0.000 HD
ENDBRANCH   2   4
ENDBRANCH   1   2
BRANCH   1  14
ATOM     14  C   UNL     1       4.514   6.683  17.053  0.00  0.00    +0.000 C 
BRANCH  14  17
ATOM     15  C   UNL     1       7.644   4.387  17.334  0.00  0.00    +0.000 C 
ATOM     16  N   UNL     1       6.336   4.892  16.935  0.00  0.00    +0.000 N 
ATOM     17  C   UNL     1       5.947   6.151  17.360  0.00  0.00    +0.000 C 
ATOM     18  O   UNL     1       6.691   6.819  18.091  0.00  0.00    +0.000 OA
BRANCH  16  19
ATOM     19  C   UNL     1       5.651   4.125  15.888  0.00  0.00    +0.000 C 
BRANCH  19  20
ATOM     20  C   UNL     1       6.259   4.208  14.502  0.00  0.00    +0.000 A 
ATOM     21  C   UNL     1       7.288   5.096  14.153  0.00  0.00    +0.000 A 
ATOM     22  C   UNL     1       7.753   5.170  12.837  0.00  0.00    +0.000 A 
ATOM     23  C   UNL     1       7.207   4.350  11.856  0.00  0.00    +0.000 A 
ATOM     24  C   UNL     1       6.199   3.454  12.187  0.00  0.00    +0.000 A 
ATOM     25  C   UNL     1       5.728   3.382  13.500  0.00  0.00    +0.000 A 
ENDBRANCH  19  20
ENDBRANCH  16  19
ENDBRANCH  14  17
ENDBRANCH   1  14
TORSDOF 6
ENDMDL
MODEL 8
REMARK VINA RESULT:      -7.5      3.379      5.407
REMARK  Name = 
REMARK  7 active torsions:
REMARK  status: ('A' for Active; 'I' for Inactive)
REMARK    1  A    between atoms: C_1  and  N_2
REMARK    2  A    between atoms: N_2  and  C_3
REMARK    3  A    between atoms: C_3  and  C_4
REMARK    4  A    between atoms: C_10  and  C_12
REMARK    5  A    between atoms: C_12  and  O_13
REMARK    6  A    between atoms: O_13  and  C_14
REMARK    7  A    between atoms: C_14  and  C_16
REMARK                            x       y       z     vdW  Elec       q    Type
REMARK                         _______ _______ _______ _____ _____    ______ ____
ROOT
ATOM      1  O   UNL     1       4.289   7.602  17.652  0.00  0.00    +0.000 OA
ENDROOT
BRANCH   1   2
ATOM      2  C   UNL     1       4.596   6.432  17.026  0.00  0.00    +0.000 C 
ATOM      3  O   UNL     1       4.962   6.395  15.849  0.00  0.00    +0.000 OA
BRANCH   2   4
ATOM      4  C   UNL     1       4.449   5.200  17.807  0.00  0.00    +0.000 A 
ATOM      5  C   UNL     1       5.531   4.734  18.542  0.00  0.00    +0.000 A 
ATOM      6  N   UNL     1       5.283   3.451  18.887  0.00  0.00    +0.000 N 
ATOM      7  C   UNL     1       3.939   3.201  18.791  0.00  0.00    +0.000 A 
ATOM      8  C   UNL     1       3.225   2.100  19.278  0.00  0.00    +0.000 A 
ATOM      9  C   UNL     1       1.853   2.076  19.056  0.00  0.00    +0.000 A 
ATOM     10  C   UNL     1       1.250   3.082  18.304  0.00  0.00    +0.000 A 
ATOM     11  C   UNL     1       1.986   4.167  17.786  0.00  0.00    +0.000 A 
ATOM     12  C   UNL     1       3.374   4.264  18.071  0.00  0.00    +0.000 A 
ATOM     13  H   UNL     1       5.972   2.789  19.222  0.00  0.00    +0.000 HD
ENDBRANCH   2   4
ENDBRANCH   1   2
BRANCH   1  14
ATOM     14  C   UNL     1       2.882   7.830  17.769  0.00  0.00    +0.000 C 
BRANCH  14  17
ATOM     15  C   UNL     1       0.770   9.144  20.763  0.00  0.00    +0.000 C 
ATOM     16  N   UNL     1       1.414   9.071  19.457  0.00  0.00    +0.000 N 
ATOM     17  C   UNL     1       2.084   7.911  19.106  0.00  0.00    +0.000 C 
ATOM     18  O   UNL     1       2.157   6.968  19.905  0.00  0.00    +0.000 OA
BRANCH  16  19
ATOM     19  C   UNL     1       1.064  10.140  18.514  0.00  0.00    +0.000 C 
BRANCH  19  20
ATOM     20  C   UNL     1      -0.416  10.420  18.350  0.00  0.00    +0.000 A 
ATOM     21  C   UNL     1      -1.267   9.664  17.528  0.00  0.00    +0.000 A 
ATOM     22  C   UNL     1      -2.609  10.022  17.366  0.00  0.00    +0.000 A 
ATOM     23  C   UNL     1      -3.122  11.129  18.033  0.00  0.00    +0.000 A 
ATOM     24  C   UNL     1      -2.298  11.878  18.863  0.00  0.00    +0.000 A 
ATOM     25  C   UNL     1      -0.955  11.527  19.022  0.00  0.00    +0.000 A 
ENDBRANCH  19  20
ENDBRANCH  16  19
ENDBRANCH  14  17
ENDBRANCH   1  14
TORSDOF 6
ENDMDL
MODEL 9
REMARK VINA RESULT:      -7.5      3.247      8.111
REMARK  Name = 
REMARK  7 active torsions:
REMARK  status: ('A' for Active; 'I' for Inactive)
REMARK    1  A    between atoms: C_1  and  N_2
REMARK    2  A    between atoms: N_2  and  C_3
REMARK    3  A    between atoms: C_3  and  C_4
REMARK    4  A    between atoms: C_10  and  C_12
REMARK    5  A    between atoms: C_12  and  O_13
REMARK    6  A    between atoms: O_13  and  C_14
REMARK    7  A    between atoms: C_14  and  C_16
REMARK                            x       y       z     vdW  Elec       q    Type
REMARK                         _______ _______ _______ _____ _____    ______ ____
ROOT
ATOM      1  O   UNL     1       2.234   7.672  19.155  0.00  0.00    +0.000 OA
ENDROOT
BRANCH   1   2
ATOM      2  C   UNL     1       1.771   8.803  18.553  0.00  0.00    +0.000 C 
ATOM      3  O   UNL     1       2.123   9.130  17.417  0.00  0.00    +0.000 OA
BRANCH   2   4
ATOM      4  C   UNL     1       0.848   9.639  19.326  0.00  0.00    +0.000 A 
ATOM      5  C   UNL     1       0.092  10.598  18.665  0.00  0.00    +0.000 A 
ATOM      6  N   UNL     1      -0.407  11.449  19.587  0.00  0.00    +0.000 N 
ATOM      7  C   UNL     1      -0.375  10.857  20.823  0.00  0.00    +0.000 A 
ATOM      8  C   UNL     1      -1.005  11.275  22.001  0.00  0.00    +0.000 A 
ATOM      9  C   UNL     1      -0.823  10.496  23.138  0.00  0.00    +0.000 A 
ATOM     10  C   UNL     1       0.027   9.392  23.098  0.00  0.00    +0.000 A 
ATOM     11  C   UNL     1       0.686   9.003  21.914  0.00  0.00    +0.000 A 
ATOM     12  C   UNL     1       0.450   9.728  20.716  0.00  0.00    +0.000 A 
ATOM     13  H   UNL     1      -0.800  12.362  19.394  0.00  0.00    +0.000 HD
ENDBRANCH   2   4
ENDBRANCH   1   2
BRANCH   1  14
ATOM     14  C   UNL     1       2.525   6.617  18.234  0.00  0.00    +0.000 C 
BRANCH  14  17
ATOM     15  C   UNL     1       3.863   2.963  18.172  0.00  0.00    +0.000 C 
ATOM     16  N   UNL     1       3.687   4.372  17.844  0.00  0.00    +0.000 N 
ATOM     17  C   UNL     1       2.830   5.137  18.618  0.00  0.00    +0.000 C 
ATOM     18  O   UNL     1       2.205   4.618  19.552  0.00  0.00    +0.000 OA
BRANCH  16  19
ATOM     19  C   UNL     1       4.646   4.926  16.880  0.00  0.00    +0.000 C 
BRANCH  19  20
ATOM     20  C   UNL     1       5.820   5.678  17.472  0.00  0.00    +0.000 A 
ATOM     21  C   UNL     1       6.276   6.916  16.992  0.00  0.00    +0.000 A 
ATOM     22  C   UNL     1       7.412   7.521  17.540  0.00  0.00    +0.000 A 
ATOM     23  C   UNL     1       8.098   6.907  18.581  0.00  0.00    +0.000 A 
ATOM     24  C   UNL     1       7.651   5.689  19.079  0.00  0.00    +0.000 A 
ATOM     25  C   UNL     1       6.521   5.079  18.530  0.00  0.00    +0.000 A 
ENDBRANCH  19  20
ENDBRANCH  16  19
ENDBRANCH  14  17
ENDBRANCH   1  14
TORSDOF 6
ENDMDL
