MODEL 1
REMARK VINA RESULT:      -7.9      0.000      0.000
REMARK  Name = 
REMARK  14 active torsions:
REMARK  status: ('A' for Active; 'I' for Inactive)
REMARK    1  A    between atoms: C_1  and  O_2
REMARK    2  A    between atoms: O_2  and  C_3
REMARK    3  A    between atoms: C_3  and  C_4
REMARK    4  A    between atoms: C_4  and  O_5
REMARK    5  A    between atoms: C_4  and  C_6
REMARK    6  A    between atoms: C_6  and  N_7
REMARK    7  A    between atoms: N_7  and  C_8
REMARK    8  A    between atoms: N_7  and  C_14
REMARK    9  A    between atoms: C_8  and  C_9
REMARK   10  A    between atoms: C_14  and  C_15
REMARK   11  A    between atoms: C_16  and  C_17
REMARK   12  A    between atoms: N_19  and  C_20
REMARK   13  A    between atoms: C_26  and  O_27
REMARK   14  A    between atoms: O_27  and  C_28
REMARK                            x       y       z     vdW  Elec       q    Type
REMARK                         _______ _______ _______ _____ _____    ______ ____
ROOT
ATOM      1  C   UNL     1       3.507   6.267  18.350  0.00  0.00    +0.000 A 
ATOM      2  C   UNL     1       3.616   7.288  17.360  0.00  0.00    +0.000 A 
ATOM      3  C   UNL     1       4.485   7.330  16.156  0.00  0.00    +0.000 C 
ATOM      4  N   UNL     1       2.789   8.305  17.591  0.00  0.00    +0.000 NA
ATOM      5  N   UNL     1       2.201   8.025  18.782  0.00  0.00    +0.000 N 
ATOM      6  C   UNL     1       2.606   6.789  19.278  0.00  0.00    +0.000 A 
ENDROOT
BRANCH   5   7
ATOM      7  C   UNL     1       1.290   8.960  19.359  0.00  0.00    +0.000 A 
ATOM      8  C   UNL     1       1.036   8.919  20.739  0.00  0.00    +0.000 A 
ATOM      9  C   UNL     1       0.189   9.865  21.324  0.00  0.00    +0.000 A 
ATOM     10  C   UNL     1      -0.444  10.824  20.534  0.00  0.00    +0.000 A 
ATOM     11  C   UNL     1      -0.232  10.840  19.157  0.00  0.00    +0.000 A 
ATOM     12  C   UNL     1       0.639   9.918  18.569  0.00  0.00    +0.000 A 
ENDBRANCH   5   7
BRANCH   1  13
ATOM     13  C   UNL     1       4.150   4.896  18.310  0.00  0.00    +0.000 C 
BRANCH  13  14
ATOM     14  N   UNL     1       5.444   4.877  17.568  0.00  0.00    +0.000 NA
BRANCH  14  15
ATOM     15  C   UNL     1       6.534   4.605  18.530  0.00  0.00    +0.000 C 
BRANCH  15  16
ATOM     16  C   UNL     1       7.724   5.561  18.723  0.00  0.00    +0.000 C 
BRANCH  16  17
ATOM     17  O   UNL     1       7.908   5.696  20.150  0.00  0.00    +0.000 OA
ATOM     18  H   UNL     1       7.099   6.093  20.516  0.00  0.00    +0.000 HD
ENDBRANCH  16  17
BRANCH  16  19
ATOM     19  C   UNL     1       7.528   6.938  18.083  0.00  0.00    +0.000 C 
BRANCH  19  21
ATOM     20  C   UNL     1       8.384   9.153  18.189  0.00  0.00    +0.000 C 
ATOM     21  O   UNL     1       8.539   7.807  18.609  0.00  0.00    +0.000 OA
ENDBRANCH  19  21
ENDBRANCH  16  19
ENDBRANCH  15  16
ENDBRANCH  14  15
BRANCH  14  22
ATOM     22  C   UNL     1       5.429   3.763  16.584  0.00  0.00    +0.000 C 
BRANCH  22  23
ATOM     23  C   UNL     1       6.112   4.009  15.281  0.00  0.00    +0.000 A 
ATOM     24  C   UNL     1       5.847   3.625  13.982  0.00  0.00    +0.000 A 
ATOM     25  C   UNL     1       6.715   4.378  13.154  0.00  0.00    +0.000 A 
ATOM     26  C   UNL     1       7.482   5.143  14.001  0.00  0.00    +0.000 A 
ATOM     27  O   UNL     1       7.129   4.922  15.294  0.00  0.00    +0.000 OA
ENDBRANCH  22  23
ENDBRANCH  14  22
ENDBRANCH  13  14
ENDBRANCH   1  13
BRANCH   6  28
ATOM     28  O   UNL     1       1.994   6.263  20.347  0.00  0.00    +0.000 OA
BRANCH  28  29
ATOM     29  C   UNL     1       1.858   4.913  20.556  0.00  0.00    +0.000 A 
ATOM     30  C   UNL     1       2.467   4.216  21.593  0.00  0.00    +0.000 A 
ATOM     31  C   UNL     1       2.357   2.825  21.671  0.00  0.00    +0.000 A 
ATOM     32  C   UNL     1       1.541   2.142  20.775  0.00  0.00    +0.000 A 
ATOM     33  C   UNL     1       0.826   2.854  19.812  0.00  0.00    +0.000 A 
ATOM     34  C   UNL     1       0.994   4.236  19.697  0.00  0.00    +0.000 A 
ENDBRANCH  28  29
ENDBRANCH   6  28
TORSDOF 12
ENDMDL
MODEL 2
REMARK VINA RESULT:      -7.5      2.903      8.012
REMARK  Name = 
REMARK  14 active torsions:
REMARK  status: ('A' for Active; 'I' for Inactive)
REMARK    1  A    between atoms: C_1  and  O_2
REMARK    2  A    between atoms: O_2  and  C_3
REMARK    3  A    between atoms: C_3  and  C_4
REMARK    4  A    between atoms: C_4  and  O_5
REMARK    5  A    between atoms: C_4  and  C_6
REMARK    6  A    between atoms: C_6  and  N_7
REMARK    7  A    between atoms: N_7  and  C_8
REMARK    8  A    between atoms: N_7  and  C_14
REMARK    9  A    between atoms: C_8  and  C_9
REMARK   10  A    between atoms: C_14  and  C_15
REMARK   11  A    between atoms: C_16  and  C_17
REMARK   12  A    between atoms: N_19  and  C_20
REMARK   13  A    between atoms: C_26  and  O_27
REMARK   14  A    between atoms: O_27  and  C_28
REMARK                            x       y       z     vdW  Elec       q    Type
REMARK                         _______ _______ _______ _____ _____    ______ ____
ROOT
ATOM      1  C   UNL     1       2.415   7.910  18.868  0.00  0.00    +0.000 A 
ATOM      2  C   UNL     1       1.825   7.415  20.069  0.00  0.00    +0.000 A 
ATOM      3  C   UNL     1       1.170   8.171  21.167  0.00  0.00    +0.000 C 
ATOM      4  N   UNL     1       1.886   6.087  20.150  0.00  0.00    +0.000 NA
ATOM      5  N   UNL     1       2.602   5.695  19.066  0.00  0.00    +0.000 N 
ATOM      6  C   UNL     1       2.940   6.774  18.254  0.00  0.00    +0.000 A 
ENDROOT
BRANCH   5   7
ATOM      7  C   UNL     1       2.908   4.313  18.881  0.00  0.00    +0.000 A 
ATOM      8  C   UNL     1       3.982   3.742  19.580  0.00  0.00    +0.000 A 
ATOM      9  C   UNL     1       4.257   2.377  19.451  0.00  0.00    +0.000 A 
ATOM     10  C   UNL     1       3.493   1.586  18.592  0.00  0.00    +0.000 A 
ATOM     11  C   UNL     1       2.454   2.158  17.861  0.00  0.00    +0.000 A 
ATOM     12  C   UNL     1       2.154   3.515  18.009  0.00  0.00    +0.000 A 
ENDBRANCH   5   7
BRANCH   1  13
ATOM     13  C   UNL     1       2.362   9.336  18.356  0.00  0.00    +0.000 C 
BRANCH  13  14
ATOM     14  N   UNL     1       1.207  10.110  18.896  0.00  0.00    +0.000 NA
BRANCH  14  15
ATOM     15  C   UNL     1       1.547  11.549  18.857  0.00  0.00    +0.000 C 
BRANCH  15  16
ATOM     16  C   UNL     1       1.727  12.391  20.133  0.00  0.00    +0.000 C 
BRANCH  16  17
ATOM     17  O   UNL     1       1.234  11.581  21.224  0.00  0.00    +0.000 OA
ATOM     18  H   UNL     1       1.531  10.668  21.072  0.00  0.00    +0.000 HD
ENDBRANCH  16  17
BRANCH  16  19
ATOM     19  C   UNL     1       0.997  13.736  20.100  0.00  0.00    +0.000 C 
BRANCH  19  21
ATOM     20  C   UNL     1      -0.198  15.140  18.600  0.00  0.00    +0.000 C 
ATOM     21  O   UNL     1       0.390  13.866  18.808  0.00  0.00    +0.000 OA
ENDBRANCH  19  21
ENDBRANCH  16  19
ENDBRANCH  15  16
ENDBRANCH  14  15
BRANCH  14  22
ATOM     22  C   UNL     1       0.026   9.907  18.017  0.00  0.00    +0.000 C 
BRANCH  22  23
ATOM     23  C   UNL     1      -1.148  10.796  18.254  0.00  0.00    +0.000 A 
ATOM     24  C   UNL     1      -2.169  11.257  17.447  0.00  0.00    +0.000 A 
ATOM     25  C   UNL     1      -3.119  11.863  18.306  0.00  0.00    +0.000 A 
ATOM     26  C   UNL     1      -2.600  11.769  19.576  0.00  0.00    +0.000 A 
ATOM     27  O   UNL     1      -1.402  11.130  19.555  0.00  0.00    +0.000 OA
ENDBRANCH  22  23
ENDBRANCH  14  22
ENDBRANCH  13  14
ENDBRANCH   1  13
BRANCH   6  28
ATOM     28  O   UNL     1       3.485   6.561  17.048  0.00  0.00    +0.000 OA
BRANCH  28  29
ATOM     29  C   UNL     1       4.710   5.972  16.862  0.00  0.00    +0.000 A 
ATOM     30  C   UNL     1       4.927   4.847  16.075  0.00  0.00    +0.000 A 
ATOM     31  C   UNL     1       6.191   4.252  16.023  0.00  0.00    +0.000 A 
ATOM     32  C   UNL     1       7.266   4.851  16.671  0.00  0.00    +0.000 A 
ATOM     33  C   UNL     1       7.079   6.050  17.357  0.00  0.00    +0.000 A 
ATOM     34  C   UNL     1       5.800   6.603  17.461  0.00  0.00    +0.000 A 
ENDBRANCH  28  29
ENDBRANCH   6  28
TORSDOF 12
ENDMDL
MODEL 3
REMARK VINA RESULT:      -7.4      2.727      8.176
REMARK  Name = 
REMARK  14 active torsions:
REMARK  status: ('A' for Active; 'I' for Inactive)
REMARK    1  A    between atoms: C_1  and  O_2
REMARK    2  A    between atoms: O_2  and  C_3
REMARK    3  A    between atoms: C_3  and  C_4
REMARK    4  A    between atoms: C_4  and  O_5
REMARK    5  A    between atoms: C_4  and  C_6
REMARK    6  A    between atoms: C_6  and  N_7
REMARK    7  A    between atoms: N_7  and  C_8
REMARK    8  A    between atoms: N_7  and  C_14
REMARK    9  A    between atoms: C_8  and  C_9
REMARK   10  A    between atoms: C_14  and  C_15
REMARK   11  A    between atoms: C_16  and  C_17
REMARK   12  A    between atoms: N_19  and  C_20
REMARK   13  A    between atoms: C_26  and  O_27
REMARK   14  A    between atoms: O_27  and  C_28
REMARK                            x       y       z     vdW  Elec       q    Type
REMARK                         _______ _______ _______ _____ _____    ______ ____
ROOT
ATOM      1  C   UNL     1       2.127   7.757  19.192  0.00  0.00    +0.000 A 
ATOM      2  C   UNL     1       2.569   8.605  18.132  0.00  0.00    +0.000 A 
ATOM      3  C   UNL     1       2.032   9.924  17.710  0.00  0.00    +0.000 C 
ATOM      4  N   UNL     1       3.616   8.099  17.484  0.00  0.00    +0.000 NA
ATOM      5  N   UNL     1       3.817   6.873  18.031  0.00  0.00    +0.000 N 
ATOM      6  C   UNL     1       2.935   6.625  19.079  0.00  0.00    +0.000 A 
ENDROOT
BRANCH   5   7
ATOM      7  C   UNL     1       4.843   6.026  17.513  0.00  0.00    +0.000 A 
ATOM      8  C   UNL     1       4.561   5.176  16.433  0.00  0.00    +0.000 A 
ATOM      9  C   UNL     1       5.572   4.384  15.881  0.00  0.00    +0.000 A 
ATOM     10  C   UNL     1       6.854   4.401  16.430  0.00  0.00    +0.000 A 
ATOM     11  C   UNL     1       7.128   5.209  17.532  0.00  0.00    +0.000 A 
ATOM     12  C   UNL     1       6.130   6.027  18.068  0.00  0.00    +0.000 A 
ENDBRANCH   5   7
BRANCH   1  13
ATOM     13  C   UNL     1       1.093   8.092  20.247  0.00  0.00    +0.000 C 
BRANCH  13  14
ATOM     14  N   UNL     1       0.759   9.544  20.300  0.00  0.00    +0.000 NA
BRANCH  14  15
ATOM     15  C   UNL     1      -0.652   9.717  19.889  0.00  0.00    +0.000 C 
BRANCH  15  16
ATOM     16  C   UNL     1      -1.064  10.600  18.698  0.00  0.00    +0.000 C 
BRANCH  16  17
ATOM     17  O   UNL     1      -1.522  11.851  19.261  0.00  0.00    +0.000 OA
ATOM     18  H   UNL     1      -1.431  11.790  20.227  0.00  0.00    +0.000 HD
ENDBRANCH  16  17
BRANCH  16  19
ATOM     19  C   UNL     1      -2.154   9.987  17.815  0.00  0.00    +0.000 C 
BRANCH  19  21
ATOM     20  C   UNL     1      -2.870  10.027  15.549  0.00  0.00    +0.000 C 
ATOM     21  O   UNL     1      -2.153  10.700  16.571  0.00  0.00    +0.000 OA
ENDBRANCH  19  21
ENDBRANCH  16  19
ENDBRANCH  15  16
ENDBRANCH  14  15
BRANCH  14  22
ATOM     22  C   UNL     1       0.877  10.024  21.702  0.00  0.00    +0.000 C 
BRANCH  22  23
ATOM     23  C   UNL     1      -0.078  11.086  22.130  0.00  0.00    +0.000 A 
ATOM     24  C   UNL     1      -1.169  11.097  22.976  0.00  0.00    +0.000 A 
ATOM     25  C   UNL     1      -1.515  12.457  23.171  0.00  0.00    +0.000 A 
ATOM     26  C   UNL     1      -0.638  13.187  22.403  0.00  0.00    +0.000 A 
ATOM     27  O   UNL     1       0.232  12.365  21.762  0.00  0.00    +0.000 OA
ENDBRANCH  22  23
ENDBRANCH  14  22
ENDBRANCH  13  14
ENDBRANCH   1  13
BRANCH   6  28
ATOM     28  O   UNL     1       3.103   5.547  19.856  0.00  0.00    +0.000 OA
BRANCH  28  29
ATOM     29  C   UNL     1       2.637   4.297  19.532  0.00  0.00    +0.000 A 
ATOM     30  C   UNL     1       1.311   4.008  19.235  0.00  0.00    +0.000 A 
ATOM     31  C   UNL     1       0.906   2.689  19.016  0.00  0.00    +0.000 A 
ATOM     32  C   UNL     1       1.851   1.670  18.981  0.00  0.00    +0.000 A 
ATOM     33  C   UNL     1       3.201   1.974  19.152  0.00  0.00    +0.000 A 
ATOM     34  C   UNL     1       3.591   3.285  19.438  0.00  0.00    +0.000 A 
ENDBRANCH  28  29
ENDBRANCH   6  28
TORSDOF 12
ENDMDL
MODEL 4
REMARK VINA RESULT:      -7.4      2.968      7.933
REMARK  Name = 
REMARK  14 active torsions:
REMARK  status: ('A' for Active; 'I' for Inactive)
REMARK    1  A    between atoms: C_1  and  O_2
REMARK    2  A    between atoms: O_2  and  C_3
REMARK    3  A    between atoms: C_3  and  C_4
REMARK    4  A    between atoms: C_4  and  O_5
REMARK    5  A    between atoms: C_4  and  C_6
REMARK    6  A    between atoms: C_6  and  N_7
REMARK    7  A    between atoms: N_7  and  C_8
REMARK    8  A    between atoms: N_7  and  C_14
REMARK    9  A    between atoms: C_8  and  C_9
REMARK   10  A    between atoms: C_14  and  C_15
REMARK   11  A    between atoms: C_16  and  C_17
REMARK   12  A    between atoms: N_19  and  C_20
REMARK   13  A    between atoms: C_26  and  O_27
REMARK   14  A    between atoms: O_27  and  C_28
REMARK                            x       y       z     vdW  Elec       q    Type
REMARK                         _______ _______ _______ _____ _____    ______ ____
ROOT
ATOM      1  C   UNL     1       2.164   7.854  19.171  0.00  0.00    +0.000 A 
ATOM      2  C   UNL     1       1.641   7.338  20.394  0.00  0.00    +0.000 A 
ATOM      3  C   UNL     1       1.011   8.073  21.522  0.00  0.00    +0.000 C 
ATOM      4  N   UNL     1       1.744   6.013  20.467  0.00  0.00    +0.000 NA
ATOM      5  N   UNL     1       2.424   5.645  19.352  0.00  0.00    +0.000 N 
ATOM      6  C   UNL     1       2.696   6.736  18.531  0.00  0.00    +0.000 A 
ENDROOT
BRANCH   5   7
ATOM      7  C   UNL     1       2.763   4.273  19.150  0.00  0.00    +0.000 A 
ATOM      8  C   UNL     1       1.965   3.479  18.312  0.00  0.00    +0.000 A 
ATOM      9  C   UNL     1       2.318   2.149  18.061  0.00  0.00    +0.000 A 
ATOM     10  C   UNL     1       3.438   1.593  18.678  0.00  0.00    +0.000 A 
ATOM     11  C   UNL     1       4.209   2.364  19.546  0.00  0.00    +0.000 A 
ATOM     12  C   UNL     1       3.880   3.703  19.777  0.00  0.00    +0.000 A 
ENDBRANCH   5   7
BRANCH   1  13
ATOM     13  C   UNL     1       2.048   9.279  18.667  0.00  0.00    +0.000 C 
BRANCH  13  14
ATOM     14  N   UNL     1       0.698   9.872  18.893  0.00  0.00    +0.000 NA
BRANCH  14  15
ATOM     15  C   UNL     1       0.870  11.262  19.368  0.00  0.00    +0.000 C 
BRANCH  15  16
ATOM     16  C   UNL     1       0.464  11.708  20.784  0.00  0.00    +0.000 C 
BRANCH  16  17
ATOM     17  O   UNL     1      -0.961  11.488  20.885  0.00  0.00    +0.000 OA
ATOM     18  H   UNL     1      -1.373  12.334  21.129  0.00  0.00    +0.000 HD
ENDBRANCH  16  17
BRANCH  16  19
ATOM     19  C   UNL     1       0.797  13.169  21.097  0.00  0.00    +0.000 C 
BRANCH  19  21
ATOM     20  C   UNL     1       2.685  14.580  21.406  0.00  0.00    +0.000 C 
ATOM     21  O   UNL     1       2.204  13.246  21.356  0.00  0.00    +0.000 OA
ENDBRANCH  19  21
ENDBRANCH  16  19
ENDBRANCH  15  16
ENDBRANCH  14  15
BRANCH  14  22
ATOM     22  C   UNL     1      -0.035   9.929  17.601  0.00  0.00    +0.000 C 
BRANCH  22  23
ATOM     23  C   UNL     1      -1.473  10.321  17.663  0.00  0.00    +0.000 A 
ATOM     24  C   UNL     1      -2.653   9.605  17.671  0.00  0.00    +0.000 A 
ATOM     25  C   UNL     1      -3.681  10.524  17.996  0.00  0.00    +0.000 A 
ATOM     26  C   UNL     1      -3.069  11.749  18.127  0.00  0.00    +0.000 A 
ATOM     27  O   UNL     1      -1.731  11.638  17.920  0.00  0.00    +0.000 OA
ENDBRANCH  22  23
ENDBRANCH  14  22
ENDBRANCH  13  14
ENDBRANCH   1  13
BRANCH   6  28
ATOM     28  O   UNL     1       3.195   6.542  17.303  0.00  0.00    +0.000 OA
BRANCH  28  29
ATOM     29  C   UNL     1       4.497   6.183  17.060  0.00  0.00    +0.000 A 
ATOM     30  C   UNL     1       5.603   6.884  17.525  0.00  0.00    +0.000 A 
ATOM     31  C   UNL     1       6.893   6.505  17.145  0.00  0.00    +0.000 A 
ATOM     32  C   UNL     1       7.083   5.353  16.390  0.00  0.00    +0.000 A 
ATOM     33  C   UNL     1       5.984   4.575  16.029  0.00  0.00    +0.000 A 
ATOM     34  C   UNL     1       4.693   4.996  16.354  0.00  0.00    +0.000 A 
ENDBRANCH  28  29
ENDBRANCH   6  28
TORSDOF 12
ENDMDL
MODEL 5
REMARK VINA RESULT:      -7.4      2.880      7.870
REMARK  Name = 
REMARK  14 active torsions:
REMARK  status: ('A' for Active; 'I' for Inactive)
REMARK    1  A    between atoms: C_1  and  O_2
REMARK    2  A    between atoms: O_2  and  C_3
REMARK    3  A    between atoms: C_3  and  C_4
REMARK    4  A    between atoms: C_4  and  O_5
REMARK    5  A    between atoms: C_4  and  C_6
REMARK    6  A    between atoms: C_6  and  N_7
REMARK    7  A    between atoms: N_7  and  C_8
REMARK    8  A    between atoms: N_7  and  C_14
REMARK    9  A    between atoms: C_8  and  C_9
REMARK   10  A    between atoms: C_14  and  C_15
REMARK   11  A    between atoms: C_16  and  C_17
REMARK   12  A    between atoms: N_19  and  C_20
REMARK   13  A    between atoms: C_26  and  O_27
REMARK   14  A    between atoms: O_27  and  C_28
REMARK                            x       y       z     vdW  Elec       q    Type
REMARK                         _______ _______ _______ _____ _____    ______ ____
ROOT
ATOM      1  C   UNL     1       2.470   7.915  18.881  0.00  0.00    +0.000 A 
ATOM      2  C   UNL     1       1.847   7.442  20.074  0.00  0.00    +0.000 A 
ATOM      3  C   UNL     1       1.185   8.220  21.152  0.00  0.00    +0.000 C 
ATOM      4  N   UNL     1       1.879   6.114  20.167  0.00  0.00    +0.000 NA
ATOM      5  N   UNL     1       2.608   5.698  19.100  0.00  0.00    +0.000 N 
ATOM      6  C   UNL     1       2.984   6.763  18.287  0.00  0.00    +0.000 A 
ENDROOT
BRANCH   5   7
ATOM      7  C   UNL     1       2.890   4.309  18.933  0.00  0.00    +0.000 A 
ATOM      8  C   UNL     1       2.097   3.540  18.067  0.00  0.00    +0.000 A 
ATOM      9  C   UNL     1       2.398   2.192  17.852  0.00  0.00    +0.000 A 
ATOM     10  C   UNL     1       3.459   1.593  18.532  0.00  0.00    +0.000 A 
ATOM     11  C   UNL     1       4.221   2.340  19.427  0.00  0.00    +0.000 A 
ATOM     12  C   UNL     1       3.945   3.696  19.623  0.00  0.00    +0.000 A 
ENDBRANCH   5   7
BRANCH   1  13
ATOM     13  C   UNL     1       2.456   9.337  18.357  0.00  0.00    +0.000 C 
BRANCH  13  14
ATOM     14  N   UNL     1       1.184  10.057  18.650  0.00  0.00    +0.000 NA
BRANCH  14  15
ATOM     15  C   UNL     1       1.398  11.502  18.415  0.00  0.00    +0.000 C 
BRANCH  15  16
ATOM     16  C   UNL     1       1.438  12.528  19.562  0.00  0.00    +0.000 C 
BRANCH  16  17
ATOM     17  O   UNL     1       2.652  13.291  19.380  0.00  0.00    +0.000 OA
ATOM     18  H   UNL     1       2.533  13.852  18.594  0.00  0.00    +0.000 HD
ENDBRANCH  16  17
BRANCH  16  19
ATOM     19  C   UNL     1       1.411  11.903  20.959  0.00  0.00    +0.000 C 
BRANCH  19  21
ATOM     20  C   UNL     1       0.196  13.776  21.775  0.00  0.00    +0.000 C 
ATOM     21  O   UNL     1       0.224  12.367  21.616  0.00  0.00    +0.000 OA
ENDBRANCH  19  21
ENDBRANCH  16  19
ENDBRANCH  15  16
ENDBRANCH  14  15
BRANCH  14  22
ATOM     22  C   UNL     1       0.133   9.603  17.702  0.00  0.00    +0.000 C 
BRANCH  22  23
ATOM     23  C   UNL     1      -1.222  10.204  17.864  0.00  0.00    +0.000 A 
ATOM     24  C   UNL     1      -1.848  10.868  18.900  0.00  0.00    +0.000 A 
ATOM     25  C   UNL     1      -3.040  11.417  18.365  0.00  0.00    +0.000 A 
ATOM     26  C   UNL     1      -3.085  11.020  17.049  0.00  0.00    +0.000 A 
ATOM     27  O   UNL     1      -1.991  10.278  16.737  0.00  0.00    +0.000 OA
ENDBRANCH  22  23
ENDBRANCH  14  22
ENDBRANCH  13  14
ENDBRANCH   1  13
BRANCH   6  28
ATOM     28  O   UNL     1       3.549   6.529  17.094  0.00  0.00    +0.000 OA
BRANCH  28  29
ATOM     29  C   UNL     1       4.758   5.900  16.937  0.00  0.00    +0.000 A 
ATOM     30  C   UNL     1       4.969   4.804  16.109  0.00  0.00    +0.000 A 
ATOM     31  C   UNL     1       6.210   4.161  16.088  0.00  0.00    +0.000 A 
ATOM     32  C   UNL     1       7.276   4.686  16.811  0.00  0.00    +0.000 A 
ATOM     33  C   UNL     1       7.102   5.860  17.543  0.00  0.00    +0.000 A 
ATOM     34  C   UNL     1       5.842   6.459  17.614  0.00  0.00    +0.000 A 
ENDBRANCH  28  29
ENDBRANCH   6  28
TORSDOF 12
ENDMDL
MODEL 6
REMARK VINA RESULT:      -7.3      2.896      7.928
REMARK  Name = 
REMARK  14 active torsions:
REMARK  status: ('A' for Active; 'I' for Inactive)
REMARK    1  A    between atoms: C_1  and  O_2
REMARK    2  A    between atoms: O_2  and  C_3
REMARK    3  A    between atoms: C_3  and  C_4
REMARK    4  A    between atoms: C_4  and  O_5
REMARK    5  A    between atoms: C_4  and  C_6
REMARK    6  A    between atoms: C_6  and  N_7
REMARK    7  A    between atoms: N_7  and  C_8
REMARK    8  A    between atoms: N_7  and  C_14
REMARK    9  A    between atoms: C_8  and  C_9
REMARK   10  A    between atoms: C_14  and  C_15
REMARK   11  A    between atoms: C_16  and  C_17
REMARK   12  A    between atoms: N_19  and  C_20
REMARK   13  A    between atoms: C_26  and  O_27
REMARK   14  A    between atoms: O_27  and  C_28
REMARK                            x       y       z     vdW  Elec       q    Type
REMARK                         _______ _______ _______ _____ _____    ______ ____
ROOT
ATOM      1  C   UNL     1       2.231   7.989  19.079  0.00  0.00    +0.000 A 
ATOM      2  C   UNL     1       1.694   7.506  20.309  0.00  0.00    +0.000 A 
ATOM      3  C   UNL     1       1.082   8.275  21.424  0.00  0.00    +0.000 C 
ATOM      4  N   UNL     1       1.761   6.180  20.404  0.00  0.00    +0.000 NA
ATOM      5  N   UNL     1       2.433   5.776  19.296  0.00  0.00    +0.000 N 
ATOM      6  C   UNL     1       2.734   6.846  18.458  0.00  0.00    +0.000 A 
ENDROOT
BRANCH   5   7
ATOM      7  C   UNL     1       2.735   4.393  19.115  0.00  0.00    +0.000 A 
ATOM      8  C   UNL     1       1.892   3.597  18.325  0.00  0.00    +0.000 A 
ATOM      9  C   UNL     1       2.208   2.254  18.095  0.00  0.00    +0.000 A 
ATOM     10  C   UNL     1       3.337   1.688  18.687  0.00  0.00    +0.000 A 
ATOM     11  C   UNL     1       4.153   2.463  19.509  0.00  0.00    +0.000 A 
ATOM     12  C   UNL     1       3.861   3.814  19.717  0.00  0.00    +0.000 A 
ENDBRANCH   5   7
BRANCH   1  13
ATOM     13  C   UNL     1       2.154   9.407  18.553  0.00  0.00    +0.000 C 
BRANCH  13  14
ATOM     14  N   UNL     1       0.780   9.985  18.625  0.00  0.00    +0.000 NA
BRANCH  14  15
ATOM     15  C   UNL     1       0.886  11.458  18.551  0.00  0.00    +0.000 C 
BRANCH  15  16
ATOM     16  C   UNL     1       0.292  12.385  19.626  0.00  0.00    +0.000 C 
BRANCH  16  17
ATOM     17  O   UNL     1       0.184  13.693  19.019  0.00  0.00    +0.000 OA
ATOM     18  H   UNL     1       0.451  14.349  19.685  0.00  0.00    +0.000 HD
ENDBRANCH  16  17
BRANCH  16  19
ATOM     19  C   UNL     1       1.123  12.464  20.909  0.00  0.00    +0.000 C 
BRANCH  19  21
ATOM     20  C   UNL     1      -0.976  11.627  21.646  0.00  0.00    +0.000 C 
ATOM     21  O   UNL     1       0.407  11.761  21.932  0.00  0.00    +0.000 OA
ENDBRANCH  19  21
ENDBRANCH  16  19
ENDBRANCH  15  16
ENDBRANCH  14  15
BRANCH  14  22
ATOM     22  C   UNL     1      -0.004   9.534  17.445  0.00  0.00    +0.000 C 
BRANCH  22  23
ATOM     23  C   UNL     1      -1.461   9.855  17.447  0.00  0.00    +0.000 A 
ATOM     24  C   UNL     1      -2.355  10.205  18.438  0.00  0.00    +0.000 A 
ATOM     25  C   UNL     1      -3.538  10.627  17.783  0.00  0.00    +0.000 A 
ATOM     26  C   UNL     1      -3.305  10.469  16.437  0.00  0.00    +0.000 A 
ATOM     27  O   UNL     1      -2.051   9.995  16.222  0.00  0.00    +0.000 OA
ENDBRANCH  22  23
ENDBRANCH  14  22
ENDBRANCH  13  14
ENDBRANCH   1  13
BRANCH   6  28
ATOM     28  O   UNL     1       3.229   6.620  17.233  0.00  0.00    +0.000 OA
BRANCH  28  29
ATOM     29  C   UNL     1       4.519   6.213  16.999  0.00  0.00    +0.000 A 
ATOM     30  C   UNL     1       5.647   6.876  17.469  0.00  0.00    +0.000 A 
ATOM     31  C   UNL     1       6.925   6.449  17.097  0.00  0.00    +0.000 A 
ATOM     32  C   UNL     1       7.077   5.289  16.346  0.00  0.00    +0.000 A 
ATOM     33  C   UNL     1       5.953   4.550  15.980  0.00  0.00    +0.000 A 
ATOM     34  C   UNL     1       4.676   5.018  16.298  0.00  0.00    +0.000 A 
ENDBRANCH  28  29
ENDBRANCH   6  28
TORSDOF 12
ENDMDL
MODEL 7
REMARK VINA RESULT:      -7.3      2.939      8.038
REMARK  Name = 
REMARK  14 active torsions:
REMARK  status: ('A' for Active; 'I' for Inactive)
REMARK    1  A    between atoms: C_1  and  O_2
REMARK    2  A    between atoms: O_2  and  C_3
REMARK    3  A    between atoms: C_3  and  C_4
REMARK    4  A    between atoms: C_4  and  O_5
REMARK    5  A    between atoms: C_4  and  C_6
REMARK    6  A    between atoms: C_6  and  N_7
REMARK    7  A    between atoms: N_7  and  C_8
REMARK    8  A    between atoms: N_7  and  C_14
REMARK    9  A    between atoms: C_8  and  C_9
REMARK   10  A    between atoms: C_14  and  C_15
REMARK   11  A    between atoms: C_16  and  C_17
REMARK   12  A    between atoms: N_19  and  C_20
REMARK   13  A    between atoms: C_26  and  O_27
REMARK   14  A    between atoms: O_27  and  C_28
REMARK                            x       y       z     vdW  Elec       q    Type
REMARK                         _______ _______ _______ _____ _____    ______ ____
ROOT
ATOM      1  C   UNL     1       2.213   7.827  19.119  0.00  0.00    +0.000 A 
ATOM      2  C   UNL     1       1.670   7.274  20.317  0.00  0.00    +0.000 A 
ATOM      3  C   UNL     1       1.018   7.973  21.455  0.00  0.00    +0.000 C 
ATOM      4  N   UNL     1       1.775   5.947  20.353  0.00  0.00    +0.000 NA
ATOM      5  N   UNL     1       2.476   5.614  19.240  0.00  0.00    +0.000 N 
ATOM      6  C   UNL     1       2.759   6.729  18.456  0.00  0.00    +0.000 A 
ENDROOT
BRANCH   5   7
ATOM      7  C   UNL     1       2.821   4.249  19.003  0.00  0.00    +0.000 A 
ATOM      8  C   UNL     1       3.937   3.694  19.648  0.00  0.00    +0.000 A 
ATOM      9  C   UNL     1       4.251   2.343  19.468  0.00  0.00    +0.000 A 
ATOM     10  C   UNL     1       3.486   1.554  18.610  0.00  0.00    +0.000 A 
ATOM     11  C   UNL     1       2.404   2.111  17.932  0.00  0.00    +0.000 A 
ATOM     12  C   UNL     1       2.065   3.452  18.132  0.00  0.00    +0.000 A 
ENDBRANCH   5   7
BRANCH   1  13
ATOM     13  C   UNL     1       2.103   9.265  18.656  0.00  0.00    +0.000 C 
BRANCH  13  14
ATOM     14  N   UNL     1       0.759   9.861  18.911  0.00  0.00    +0.000 NA
BRANCH  14  15
ATOM     15  C   UNL     1       0.946  11.234  19.431  0.00  0.00    +0.000 C 
BRANCH  15  16
ATOM     16  C   UNL     1       0.526  11.642  20.855  0.00  0.00    +0.000 C 
BRANCH  16  17
ATOM     17  O   UNL     1      -0.806  11.117  21.050  0.00  0.00    +0.000 OA
ATOM     18  H   UNL     1      -1.172  10.907  20.174  0.00  0.00    +0.000 HD
ENDBRANCH  16  17
BRANCH  16  19
ATOM     19  C   UNL     1       0.541  13.153  21.099  0.00  0.00    +0.000 C 
BRANCH  19  21
ATOM     20  C   UNL     1      -0.635  14.713  19.744  0.00  0.00    +0.000 C 
ATOM     21  O   UNL     1       0.447  13.798  19.823  0.00  0.00    +0.000 OA
ENDBRANCH  19  21
ENDBRANCH  16  19
ENDBRANCH  15  16
ENDBRANCH  14  15
BRANCH  14  22
ATOM     22  C   UNL     1       0.019   9.968  17.627  0.00  0.00    +0.000 C 
BRANCH  22  23
ATOM     23  C   UNL     1      -1.418  10.359  17.712  0.00  0.00    +0.000 A 
ATOM     24  C   UNL     1      -2.601   9.653  17.619  0.00  0.00    +0.000 A 
ATOM     25  C   UNL     1      -3.630  10.535  18.033  0.00  0.00    +0.000 A 
ATOM     26  C   UNL     1      -3.016  11.732  18.314  0.00  0.00    +0.000 A 
ATOM     27  O   UNL     1      -1.675  11.638  18.116  0.00  0.00    +0.000 OA
ENDBRANCH  22  23
ENDBRANCH  14  22
ENDBRANCH  13  14
ENDBRANCH   1  13
BRANCH   6  28
ATOM     28  O   UNL     1       3.281   6.573  17.232  0.00  0.00    +0.000 OA
BRANCH  28  29
ATOM     29  C   UNL     1       4.581   6.198  17.002  0.00  0.00    +0.000 A 
ATOM     30  C   UNL     1       5.689   6.844  17.539  0.00  0.00    +0.000 A 
ATOM     31  C   UNL     1       6.980   6.458  17.170  0.00  0.00    +0.000 A 
ATOM     32  C   UNL     1       7.166   5.349  16.352  0.00  0.00    +0.000 A 
ATOM     33  C   UNL     1       6.061   4.621  15.914  0.00  0.00    +0.000 A 
ATOM     34  C   UNL     1       4.770   5.052  16.231  0.00  0.00    +0.000 A 
ENDBRANCH  28  29
ENDBRANCH   6  28
TORSDOF 12
ENDMDL
MODEL 8
REMARK VINA RESULT:      -7.3      3.074      7.895
REMARK  Name = 
REMARK  14 active torsions:
REMARK  status: ('A' for Active; 'I' for Inactive)
REMARK    1  A    between atoms: C_1  and  O_2
REMARK    2  A    between atoms: O_2  and  C_3
REMARK    3  A    between atoms: C_3  and  C_4
REMARK    4  A    between atoms: C_4  and  O_5
REMARK    5  A    between atoms: C_4  and  C_6
REMARK    6  A    between atoms: C_6  and  N_7
REMARK    7  A    between atoms: N_7  and  C_8
REMARK    8  A    between atoms: N_7  and  C_14
REMARK    9  A    between atoms: C_8  and  C_9
REMARK   10  A    between atoms: C_14  and  C_15
REMARK   11  A    between atoms: C_16  and  C_17
REMARK   12  A    between atoms: N_19  and  C_20
REMARK   13  A    between atoms: C_26  and  O_27
REMARK   14  A    between atoms: O_27  and  C_28
REMARK                            x       y       z     vdW  Elec       q    Type
REMARK                         _______ _______ _______ _____ _____    ______ ____
ROOT
ATOM      1  C   UNL     1       2.347   7.847  18.945  0.00  0.00    +0.000 A 
ATOM      2  C   UNL     1       1.766   7.351  20.151  0.00  0.00    +0.000 A 
ATOM      3  C   UNL     1       1.115   8.108  21.251  0.00  0.00    +0.000 C 
ATOM      4  N   UNL     1       1.832   6.024  20.234  0.00  0.00    +0.000 NA
ATOM      5  N   UNL     1       2.543   5.633  19.146  0.00  0.00    +0.000 N 
ATOM      6  C   UNL     1       2.873   6.712  18.330  0.00  0.00    +0.000 A 
ENDROOT
BRANCH   5   7
ATOM      7  C   UNL     1       2.853   4.251  18.962  0.00  0.00    +0.000 A 
ATOM      8  C   UNL     1       3.928   3.683  19.662  0.00  0.00    +0.000 A 
ATOM      9  C   UNL     1       4.206   2.318  19.534  0.00  0.00    +0.000 A 
ATOM     10  C   UNL     1       3.445   1.526  18.674  0.00  0.00    +0.000 A 
ATOM     11  C   UNL     1       2.405   2.095  17.942  0.00  0.00    +0.000 A 
ATOM     12  C   UNL     1       2.102   3.451  18.090  0.00  0.00    +0.000 A 
ENDBRANCH   5   7
BRANCH   1  13
ATOM     13  C   UNL     1       2.287   9.271  18.432  0.00  0.00    +0.000 C 
BRANCH  13  14
ATOM     14  N   UNL     1       1.073  10.007  18.887  0.00  0.00    +0.000 NA
BRANCH  14  15
ATOM     15  C   UNL     1       1.493  11.324  19.416  0.00  0.00    +0.000 C 
BRANCH  15  16
ATOM     16  C   UNL     1       1.655  12.562  18.517  0.00  0.00    +0.000 C 
BRANCH  16  17
ATOM     17  O   UNL     1       2.717  12.250  17.587  0.00  0.00    +0.000 OA
ATOM     18  H   UNL     1       2.522  12.710  16.752  0.00  0.00    +0.000 HD
ENDBRANCH  16  17
BRANCH  16  19
ATOM     19  C   UNL     1       1.982  13.848  19.281  0.00  0.00    +0.000 C 
BRANCH  19  21
ATOM     20  C   UNL     1      -0.196  14.687  18.833  0.00  0.00    +0.000 C 
ATOM     21  O   UNL     1       1.200  14.903  18.706  0.00  0.00    +0.000 OA
ENDBRANCH  19  21
ENDBRANCH  16  19
ENDBRANCH  15  16
ENDBRANCH  14  15
BRANCH  14  22
ATOM     22  C   UNL     1       0.185  10.258  17.722  0.00  0.00    +0.000 C 
BRANCH  22  23
ATOM     23  C   UNL     1      -1.268  10.433  18.011  0.00  0.00    +0.000 A 
ATOM     24  C   UNL     1      -1.990  11.380  18.708  0.00  0.00    +0.000 A 
ATOM     25  C   UNL     1      -3.356  11.141  18.416  0.00  0.00    +0.000 A 
ATOM     26  C   UNL     1      -3.383  10.040  17.593  0.00  0.00    +0.000 A 
ATOM     27  O   UNL     1      -2.122   9.599  17.346  0.00  0.00    +0.000 OA
ENDBRANCH  22  23
ENDBRANCH  14  22
ENDBRANCH  13  14
ENDBRANCH   1  13
BRANCH   6  28
ATOM     28  O   UNL     1       3.412   6.498  17.122  0.00  0.00    +0.000 OA
BRANCH  28  29
ATOM     29  C   UNL     1       4.704   6.076  16.931  0.00  0.00    +0.000 A 
ATOM     30  C   UNL     1       5.822   6.718  17.449  0.00  0.00    +0.000 A 
ATOM     31  C   UNL     1       7.107   6.278  17.119  0.00  0.00    +0.000 A 
ATOM     32  C   UNL     1       7.272   5.124  16.360  0.00  0.00    +0.000 A 
ATOM     33  C   UNL     1       6.151   4.405  15.945  0.00  0.00    +0.000 A 
ATOM     34  C   UNL     1       4.870   4.888  16.221  0.00  0.00    +0.000 A 
ENDBRANCH  28  29
ENDBRANCH   6  28
TORSDOF 12
ENDMDL
MODEL 9
REMARK VINA RESULT:      -7.3      3.071      7.829
REMARK  Name = 
REMARK  14 active torsions:
REMARK  status: ('A' for Active; 'I' for Inactive)
REMARK    1  A    between atoms: C_1  and  O_2
REMARK    2  A    between atoms: O_2  and  C_3
REMARK    3  A    between atoms: C_3  and  C_4
REMARK    4  A    between atoms: C_4  and  O_5
REMARK    5  A    between atoms: C_4  and  C_6
REMARK    6  A    between atoms: C_6  and  N_7
REMARK    7  A    between atoms: N_7  and  C_8
REMARK    8  A    between atoms: N_7  and  C_14
REMARK    9  A    between atoms: C_8  and  C_9
REMARK   10  A    between atoms: C_14  and  C_15
REMARK   11  A    between atoms: C_16  and  C_17
REMARK   12  A    between atoms: N_19  and  C_20
REMARK   13  A    between atoms: C_26  and  O_27
REMARK   14  A    between atoms: O_27  and  C_28
REMARK                            x       y       z     vdW  Elec       q    Type
REMARK                         _______ _______ _______ _____ _____    ______ ____
ROOT
ATOM      1  C   UNL     1       2.379   7.946  18.934  0.00  0.00    +0.000 A 
ATOM      2  C   UNL     1       1.794   7.474  20.147  0.00  0.00    +0.000 A 
ATOM      3  C   UNL     1       1.161   8.255  21.241  0.00  0.00    +0.000 C 
ATOM      4  N   UNL     1       1.837   6.147  20.245  0.00  0.00    +0.000 NA
ATOM      5  N   UNL     1       2.537   5.731  19.159  0.00  0.00    +0.000 N 
ATOM      6  C   UNL     1       2.882   6.794  18.330  0.00  0.00    +0.000 A 
ENDROOT
BRANCH   5   7
ATOM      7  C   UNL     1       2.821   4.342  18.991  0.00  0.00    +0.000 A 
ATOM      8  C   UNL     1       2.003   3.563  18.158  0.00  0.00    +0.000 A 
ATOM      9  C   UNL     1       2.305   2.215  17.940  0.00  0.00    +0.000 A 
ATOM     10  C   UNL     1       3.393   1.628  18.585  0.00  0.00    +0.000 A 
ATOM     11  C   UNL     1       4.183   2.385  19.448  0.00  0.00    +0.000 A 
ATOM     12  C   UNL     1       3.905   3.741  19.645  0.00  0.00    +0.000 A 
ENDBRANCH   5   7
BRANCH   1  13
ATOM     13  C   UNL     1       2.341   9.364  18.403  0.00  0.00    +0.000 C 
BRANCH  13  14
ATOM     14  N   UNL     1       1.112  10.108  18.805  0.00  0.00    +0.000 NA
BRANCH  14  15
ATOM     15  C   UNL     1       1.405  11.557  18.765  0.00  0.00    +0.000 C 
BRANCH  15  16
ATOM     16  C   UNL     1       1.866  12.342  20.006  0.00  0.00    +0.000 C 
BRANCH  16  17
ATOM     17  O   UNL     1       1.107  11.819  21.120  0.00  0.00    +0.000 OA
ATOM     18  H   UNL     1       0.381  12.442  21.300  0.00  0.00    +0.000 HD
ENDBRANCH  16  17
BRANCH  16  19
ATOM     19  C   UNL     1       1.669  13.856  19.896  0.00  0.00    +0.000 C 
BRANCH  19  21
ATOM     20  C   UNL     1       3.644  15.109  19.473  0.00  0.00    +0.000 C 
ATOM     21  O   UNL     1       2.592  14.340  18.912  0.00  0.00    +0.000 OA
ENDBRANCH  19  21
ENDBRANCH  16  19
ENDBRANCH  15  16
ENDBRANCH  14  15
BRANCH  14  22
ATOM     22  C   UNL     1       0.034   9.844  17.816  0.00  0.00    +0.000 C 
BRANCH  22  23
ATOM     23  C   UNL     1      -1.296  10.462  18.092  0.00  0.00    +0.000 A 
ATOM     24  C   UNL     1      -1.800  11.199  19.145  0.00  0.00    +0.000 A 
ATOM     25  C   UNL     1      -3.047  11.715  18.715  0.00  0.00    +0.000 A 
ATOM     26  C   UNL     1      -3.243  11.228  17.444  0.00  0.00    +0.000 A 
ATOM     27  O   UNL     1      -2.190  10.461  17.060  0.00  0.00    +0.000 OA
ENDBRANCH  22  23
ENDBRANCH  14  22
ENDBRANCH  13  14
ENDBRANCH   1  13
BRANCH   6  28
ATOM     28  O   UNL     1       3.412   6.557  17.122  0.00  0.00    +0.000 OA
BRANCH  28  29
ATOM     29  C   UNL     1       4.691   6.098  16.931  0.00  0.00    +0.000 A 
ATOM     30  C   UNL     1       5.827   6.706  17.451  0.00  0.00    +0.000 A 
ATOM     31  C   UNL     1       7.099   6.230  17.121  0.00  0.00    +0.000 A 
ATOM     32  C   UNL     1       7.230   5.073  16.361  0.00  0.00    +0.000 A 
ATOM     33  C   UNL     1       6.090   4.387  15.944  0.00  0.00    +0.000 A 
ATOM     34  C   UNL     1       4.823   4.906  16.220  0.00  0.00    +0.000 A 
ENDBRANCH  28  29
ENDBRANCH   6  28
TORSDOF 12
ENDMDL
