MODEL 1
REMARK VINA RESULT:      -7.5      0.000      0.000
REMARK  Name = 
REMARK  7 active torsions:
REMARK  status: ('A' for Active; 'I' for Inactive)
REMARK    1  A    between atoms: C_1  and  O_2
REMARK    2  A    between atoms: O_2  and  C_3
REMARK    3  A    between atoms: C_6  and  C_7
REMARK    4  A    between atoms: C_7  and  C_9
REMARK    5  A    between atoms: C_9  and  C_10
REMARK    6  A    between atoms: C_10  and  C_12
REMARK    7  A    between atoms: C_16  and  N_17
REMARK                            x       y       z     vdW  Elec       q    Type
REMARK                         _______ _______ _______ _____ _____    ______ ____
ROOT
ATOM      1  C   UNL     1       3.490   2.726  18.276  0.00  0.00    +0.000 C 
ENDROOT
BRANCH   1   2
ATOM      2  C   UNL     1       2.474   3.751  17.832  0.00  0.00    +0.000 C 
ATOM      3  O   UNL     1       1.814   3.586  16.805  0.00  0.00    +0.000 OA
BRANCH   2   7
ATOM      4  C   UNL     1       1.928   7.288  20.208  0.00  0.00    +0.000 A 
ATOM      5  C   UNL     1       1.623   6.025  20.718  0.00  0.00    +0.000 A 
ATOM      6  C   UNL     1       1.800   4.883  19.934  0.00  0.00    +0.000 A 
ATOM      7  C   UNL     1       2.283   4.997  18.626  0.00  0.00    +0.000 A 
ATOM      8  C   UNL     1       2.560   6.265  18.101  0.00  0.00    +0.000 A 
ATOM      9  C   UNL     1       2.380   7.407  18.892  0.00  0.00    +0.000 A 
BRANCH   4  11
ATOM     10  C   UNL     1       0.344   8.586  21.384  0.00  0.00    +0.000 C 
ATOM     11  O   UNL     1       1.707   8.335  21.060  0.00  0.00    +0.000 OA
ENDBRANCH   4  11
ENDBRANCH   2   7
ENDBRANCH   1   2
BRANCH   1  12
ATOM     12  C   UNL     1       4.717   3.313  18.934  0.00  0.00    +0.000 C 
ATOM     13  O   UNL     1       5.027   3.058  20.095  0.00  0.00    +0.000 OA
BRANCH  12  14
ATOM     14  C   UNL     1       5.582   4.253  18.156  0.00  0.00    +0.000 A 
ATOM     15  C   UNL     1       6.099   5.375  18.824  0.00  0.00    +0.000 A 
ATOM     16  C   UNL     1       6.895   6.307  18.154  0.00  0.00    +0.000 A 
ATOM     17  C   UNL     1       7.183   6.131  16.804  0.00  0.00    +0.000 A 
ATOM     18  C   UNL     1       6.672   5.011  16.131  0.00  0.00    +0.000 A 
ATOM     19  C   UNL     1       5.876   4.066  16.801  0.00  0.00    +0.000 A 
BRANCH  18  20
ATOM     20  N   UNL     1       6.964   4.834  14.702  0.00  0.00    +0.000 N 
ATOM     21  O   UNL     1       6.297   4.002  14.073  0.00  0.00    +0.000 OA
ATOM     22  O   UNL     1       7.871   5.525  14.216  0.00  0.00    +0.000 OA
ENDBRANCH  18  20
ENDBRANCH  12  14
ENDBRANCH   1  12
TORSDOF 6
ENDMDL
MODEL 2
REMARK VINA RESULT:      -7.3      2.076      5.244
REMARK  Name = 
REMARK  7 active torsions:
REMARK  status: ('A' for Active; 'I' for Inactive)
REMARK    1  A    between atoms: C_1  and  O_2
REMARK    2  A    between atoms: O_2  and  C_3
REMARK    3  A    between atoms: C_6  and  C_7
REMARK    4  A    between atoms: C_7  and  C_9
REMARK    5  A    between atoms: C_9  and  C_10
REMARK    6  A    between atoms: C_10  and  C_12
REMARK    7  A    between atoms: C_16  and  N_17
REMARK                            x       y       z     vdW  Elec       q    Type
REMARK                         _______ _______ _______ _____ _____    ______ ____
ROOT
ATOM      1  C   UNL     1       2.720   2.382  17.727  0.00  0.00    +0.000 C 
ENDROOT
BRANCH   1   2
ATOM      2  C   UNL     1       4.037   2.551  18.445  0.00  0.00    +0.000 C 
ATOM      3  O   UNL     1       4.348   1.813  19.381  0.00  0.00    +0.000 OA
BRANCH   2   7
ATOM      4  C   UNL     1       6.672   5.703  17.188  0.00  0.00    +0.000 A 
ATOM      5  C   UNL     1       6.054   4.867  16.256  0.00  0.00    +0.000 A 
ATOM      6  C   UNL     1       5.204   3.842  16.677  0.00  0.00    +0.000 A 
ATOM      7  C   UNL     1       4.966   3.643  18.041  0.00  0.00    +0.000 A 
ATOM      8  C   UNL     1       5.608   4.460  18.979  0.00  0.00    +0.000 A 
ATOM      9  C   UNL     1       6.461   5.486  18.551  0.00  0.00    +0.000 A 
BRANCH   4  11
ATOM     10  C   UNL     1       7.638   7.842  17.446  0.00  0.00    +0.000 C 
ATOM     11  O   UNL     1       7.491   6.664  16.662  0.00  0.00    +0.000 OA
ENDBRANCH   4  11
ENDBRANCH   2   7
ENDBRANCH   1   2
BRANCH   1  12
ATOM     12  C   UNL     1       1.561   3.100  18.377  0.00  0.00    +0.000 C 
ATOM     13  O   UNL     1       0.445   2.596  18.475  0.00  0.00    +0.000 OA
BRANCH  12  14
ATOM     14  C   UNL     1       1.766   4.484  18.907  0.00  0.00    +0.000 A 
ATOM     15  C   UNL     1       1.489   4.715  20.264  0.00  0.00    +0.000 A 
ATOM     16  C   UNL     1       1.637   5.987  20.822  0.00  0.00    +0.000 A 
ATOM     17  C   UNL     1       2.062   7.049  20.027  0.00  0.00    +0.000 A 
ATOM     18  C   UNL     1       2.343   6.824  18.671  0.00  0.00    +0.000 A 
ATOM     19  C   UNL     1       2.203   5.545  18.106  0.00  0.00    +0.000 A 
BRANCH  18  20
ATOM     20  N   UNL     1       2.776   7.948  17.830  0.00  0.00    +0.000 N 
ATOM     21  O   UNL     1       3.811   7.808  17.164  0.00  0.00    +0.000 OA
ATOM     22  O   UNL     1       2.081   8.974  17.848  0.00  0.00    +0.000 OA
ENDBRANCH  18  20
ENDBRANCH  12  14
ENDBRANCH   1  12
TORSDOF 6
ENDMDL
MODEL 3
REMARK VINA RESULT:      -7.3      0.750      1.002
REMARK  Name = 
REMARK  7 active torsions:
REMARK  status: ('A' for Active; 'I' for Inactive)
REMARK    1  A    between atoms: C_1  and  O_2
REMARK    2  A    between atoms: O_2  and  C_3
REMARK    3  A    between atoms: C_6  and  C_7
REMARK    4  A    between atoms: C_7  and  C_9
REMARK    5  A    between atoms: C_9  and  C_10
REMARK    6  A    between atoms: C_10  and  C_12
REMARK    7  A    between atoms: C_16  and  N_17
REMARK                            x       y       z     vdW  Elec       q    Type
REMARK                         _______ _______ _______ _____ _____    ______ ____
ROOT
ATOM      1  C   UNL     1       2.921   2.717  17.551  0.00  0.00    +0.000 C 
ENDROOT
BRANCH   1   2
ATOM      2  C   UNL     1       1.694   3.324  18.189  0.00  0.00    +0.000 C 
ATOM      3  O   UNL     1       0.620   2.722  18.196  0.00  0.00    +0.000 OA
BRANCH   2   7
ATOM      4  C   UNL     1       1.930   7.198  20.030  0.00  0.00    +0.000 A 
ATOM      5  C   UNL     1       1.602   6.066  20.777  0.00  0.00    +0.000 A 
ATOM      6  C   UNL     1       1.523   4.813  20.166  0.00  0.00    +0.000 A 
ATOM      7  C   UNL     1       1.771   4.682  18.796  0.00  0.00    +0.000 A 
ATOM      8  C   UNL     1       2.069   5.821  18.038  0.00  0.00    +0.000 A 
ATOM      9  C   UNL     1       2.146   7.076  18.656  0.00  0.00    +0.000 A 
BRANCH   4  11
ATOM     10  C   UNL     1       0.895   9.273  20.478  0.00  0.00    +0.000 C 
ATOM     11  O   UNL     1       1.967   8.373  20.729  0.00  0.00    +0.000 OA
ENDBRANCH   4  11
ENDBRANCH   2   7
ENDBRANCH   1   2
BRANCH   1  12
ATOM     12  C   UNL     1       4.208   2.994  18.291  0.00  0.00    +0.000 C 
ATOM     13  O   UNL     1       4.478   2.462  19.365  0.00  0.00    +0.000 OA
BRANCH  12  14
ATOM     14  C   UNL     1       5.188   3.965  17.712  0.00  0.00    +0.000 A 
ATOM     15  C   UNL     1       5.675   4.984  18.547  0.00  0.00    +0.000 A 
ATOM     16  C   UNL     1       6.576   5.938  18.067  0.00  0.00    +0.000 A 
ATOM     17  C   UNL     1       6.999   5.888  16.742  0.00  0.00    +0.000 A 
ATOM     18  C   UNL     1       6.519   4.871  15.903  0.00  0.00    +0.000 A 
ATOM     19  C   UNL     1       5.619   3.904  16.382  0.00  0.00    +0.000 A 
BRANCH  18  20
ATOM     20  N   UNL     1       6.955   4.828  14.501  0.00  0.00    +0.000 N 
ATOM     21  O   UNL     1       7.846   5.612  14.147  0.00  0.00    +0.000 OA
ATOM     22  O   UNL     1       6.394   4.014  13.755  0.00  0.00    +0.000 OA
ENDBRANCH  18  20
ENDBRANCH  12  14
ENDBRANCH   1  12
TORSDOF 6
ENDMDL
MODEL 4
REMARK VINA RESULT:      -7.2      0.952      1.378
REMARK  Name = 
REMARK  7 active torsions:
REMARK  status: ('A' for Active; 'I' for Inactive)
REMARK    1  A    between atoms: C_1  and  O_2
REMARK    2  A    between atoms: O_2  and  C_3
REMARK    3  A    between atoms: C_6  and  C_7
REMARK    4  A    between atoms: C_7  and  C_9
REMARK    5  A    between atoms: C_9  and  C_10
REMARK    6  A    between atoms: C_10  and  C_12
REMARK    7  A    between atoms: C_16  and  N_17
REMARK                            x       y       z     vdW  Elec       q    Type
REMARK                         _______ _______ _______ _____ _____    ______ ____
ROOT
ATOM      1  C   UNL     1       3.184   2.269  18.315  0.00  0.00    +0.000 C 
ENDROOT
BRANCH   1   2
ATOM      2  C   UNL     1       1.901   3.029  18.552  0.00  0.00    +0.000 C 
ATOM      3  O   UNL     1       0.805   2.490  18.390  0.00  0.00    +0.000 OA
BRANCH   2   7
ATOM      4  C   UNL     1       2.036   7.185  19.630  0.00  0.00    +0.000 A 
ATOM      5  C   UNL     1       2.284   6.774  18.319  0.00  0.00    +0.000 A 
ATOM      6  C   UNL     1       2.242   5.419  17.982  0.00  0.00    +0.000 A 
ATOM      7  C   UNL     1       1.953   4.461  18.959  0.00  0.00    +0.000 A 
ATOM      8  C   UNL     1       1.734   4.868  20.281  0.00  0.00    +0.000 A 
ATOM      9  C   UNL     1       1.778   6.229  20.613  0.00  0.00    +0.000 A 
BRANCH   4  11
ATOM     10  C   UNL     1       1.040   9.304  19.321  0.00  0.00    +0.000 C 
ATOM     11  O   UNL     1       2.114   8.534  19.846  0.00  0.00    +0.000 OA
ENDBRANCH   4  11
ENDBRANCH   2   7
ENDBRANCH   1   2
BRANCH   1  12
ATOM     12  C   UNL     1       4.379   2.822  19.055  0.00  0.00    +0.000 C 
ATOM     13  O   UNL     1       4.675   2.460  20.191  0.00  0.00    +0.000 OA
BRANCH  12  14
ATOM     14  C   UNL     1       5.229   3.861  18.394  0.00  0.00    +0.000 A 
ATOM     15  C   UNL     1       5.765   4.879  19.199  0.00  0.00    +0.000 A 
ATOM     16  C   UNL     1       6.549   5.895  18.645  0.00  0.00    +0.000 A 
ATOM     17  C   UNL     1       6.804   5.908  17.277  0.00  0.00    +0.000 A 
ATOM     18  C   UNL     1       6.274   4.892  16.468  0.00  0.00    +0.000 A 
ATOM     19  C   UNL     1       5.490   3.864  17.020  0.00  0.00    +0.000 A 
BRANCH  18  20
ATOM     20  N   UNL     1       6.531   4.915  15.022  0.00  0.00    +0.000 N 
ATOM     21  O   UNL     1       5.648   4.483  14.269  0.00  0.00    +0.000 OA
ATOM     22  O   UNL     1       7.625   5.358  14.645  0.00  0.00    +0.000 OA
ENDBRANCH  18  20
ENDBRANCH  12  14
ENDBRANCH   1  12
TORSDOF 6
ENDMDL
MODEL 5
REMARK VINA RESULT:      -7.1      1.846      2.205
REMARK  Name = 
REMARK  7 active torsions:
REMARK  status: ('A' for Active; 'I' for Inactive)
REMARK    1  A    between atoms: C_1  and  O_2
REMARK    2  A    between atoms: O_2  and  C_3
REMARK    3  A    between atoms: C_6  and  C_7
REMARK    4  A    between atoms: C_7  and  C_9
REMARK    5  A    between atoms: C_9  and  C_10
REMARK    6  A    between atoms: C_10  and  C_12
REMARK    7  A    between atoms: C_16  and  N_17
REMARK                            x       y       z     vdW  Elec       q    Type
REMARK                         _______ _______ _______ _____ _____    ______ ____
ROOT
ATOM      1  C   UNL     1       3.140   2.618  17.810  0.00  0.00    +0.000 C 
ENDROOT
BRANCH   1   2
ATOM      2  C   UNL     1       1.923   3.217  18.473  0.00  0.00    +0.000 C 
ATOM      3  O   UNL     1       0.899   2.553  18.636  0.00  0.00    +0.000 OA
BRANCH   2   7
ATOM      4  C   UNL     1       1.995   7.290  19.839  0.00  0.00    +0.000 A 
ATOM      5  C   UNL     1       1.634   6.250  20.697  0.00  0.00    +0.000 A 
ATOM      6  C   UNL     1       1.609   4.930  20.240  0.00  0.00    +0.000 A 
ATOM      7  C   UNL     1       1.944   4.640  18.913  0.00  0.00    +0.000 A 
ATOM      8  C   UNL     1       2.276   5.684  18.042  0.00  0.00    +0.000 A 
ATOM      9  C   UNL     1       2.299   7.006  18.506  0.00  0.00    +0.000 A 
BRANCH   4  11
ATOM     10  C   UNL     1       1.029   9.444  19.831  0.00  0.00    +0.000 C 
ATOM     11  O   UNL     1       1.974   8.541  20.391  0.00  0.00    +0.000 OA
ENDBRANCH   4  11
ENDBRANCH   2   7
ENDBRANCH   1   2
BRANCH   1  12
ATOM     12  C   UNL     1       4.456   3.107  18.370  0.00  0.00    +0.000 C 
ATOM     13  O   UNL     1       4.845   2.804  19.495  0.00  0.00    +0.000 OA
BRANCH  12  14
ATOM     14  C   UNL     1       5.314   4.006  17.537  0.00  0.00    +0.000 A 
ATOM     15  C   UNL     1       5.454   3.702  16.173  0.00  0.00    +0.000 A 
ATOM     16  C   UNL     1       6.257   4.486  15.341  0.00  0.00    +0.000 A 
ATOM     17  C   UNL     1       6.936   5.583  15.864  0.00  0.00    +0.000 A 
ATOM     18  C   UNL     1       6.798   5.894  17.224  0.00  0.00    +0.000 A 
ATOM     19  C   UNL     1       5.986   5.114  18.065  0.00  0.00    +0.000 A 
BRANCH  18  20
ATOM     20  N   UNL     1       7.526   7.043  17.778  0.00  0.00    +0.000 N 
ATOM     21  O   UNL     1       7.464   8.118  17.166  0.00  0.00    +0.000 OA
ATOM     22  O   UNL     1       8.169   6.861  18.821  0.00  0.00    +0.000 OA
ENDBRANCH  18  20
ENDBRANCH  12  14
ENDBRANCH   1  12
TORSDOF 6
ENDMDL
MODEL 6
REMARK VINA RESULT:      -7.1      2.643      4.322
REMARK  Name = 
REMARK  7 active torsions:
REMARK  status: ('A' for Active; 'I' for Inactive)
REMARK    1  A    between atoms: C_1  and  O_2
REMARK    2  A    between atoms: O_2  and  C_3
REMARK    3  A    between atoms: C_6  and  C_7
REMARK    4  A    between atoms: C_7  and  C_9
REMARK    5  A    between atoms: C_9  and  C_10
REMARK    6  A    between atoms: C_10  and  C_12
REMARK    7  A    between atoms: C_16  and  N_17
REMARK                            x       y       z     vdW  Elec       q    Type
REMARK                         _______ _______ _______ _____ _____    ______ ____
ROOT
ATOM      1  C   UNL     1       6.696   6.169  16.623  0.00  0.00    +0.000 C 
ENDROOT
BRANCH   1   2
ATOM      2  C   UNL     1       5.242   6.399  16.285  0.00  0.00    +0.000 C 
ATOM      3  O   UNL     1       4.914   7.191  15.402  0.00  0.00    +0.000 OA
BRANCH   2   7
ATOM      4  C   UNL     1       2.140   4.419  18.501  0.00  0.00    +0.000 A 
ATOM      5  C   UNL     1       2.400   5.777  18.686  0.00  0.00    +0.000 A 
ATOM      6  C   UNL     1       3.415   6.409  17.963  0.00  0.00    +0.000 A 
ATOM      7  C   UNL     1       4.183   5.681  17.048  0.00  0.00    +0.000 A 
ATOM      8  C   UNL     1       3.945   4.312  16.884  0.00  0.00    +0.000 A 
ATOM      9  C   UNL     1       2.926   3.684  17.612  0.00  0.00    +0.000 A 
BRANCH   4  11
ATOM     10  C   UNL     1       0.914   2.504  19.141  0.00  0.00    +0.000 C 
ATOM     11  O   UNL     1       1.131   3.905  19.269  0.00  0.00    +0.000 OA
ENDBRANCH   4  11
ENDBRANCH   2   7
ENDBRANCH   1   2
BRANCH   1  12
ATOM     12  C   UNL     1       7.292   4.932  15.993  0.00  0.00    +0.000 C 
ATOM     13  O   UNL     1       7.866   4.069  16.653  0.00  0.00    +0.000 OA
BRANCH  12  14
ATOM     14  C   UNL     1       7.200   4.751  14.511  0.00  0.00    +0.000 A 
ATOM     15  C   UNL     1       8.003   5.568  13.699  0.00  0.00    +0.000 A 
ATOM     16  C   UNL     1       7.952   5.469  12.306  0.00  0.00    +0.000 A 
ATOM     17  C   UNL     1       7.092   4.553  11.706  0.00  0.00    +0.000 A 
ATOM     18  C   UNL     1       6.289   3.733  12.512  0.00  0.00    +0.000 A 
ATOM     19  C   UNL     1       6.341   3.822  13.913  0.00  0.00    +0.000 A 
BRANCH  18  20
ATOM     20  N   UNL     1       5.371   2.777  11.877  0.00  0.00    +0.000 N 
ATOM     21  O   UNL     1       4.202   3.137  11.685  0.00  0.00    +0.000 OA
ATOM     22  O   UNL     1       5.824   1.662  11.582  0.00  0.00    +0.000 OA
ENDBRANCH  18  20
ENDBRANCH  12  14
ENDBRANCH   1  12
TORSDOF 6
ENDMDL
MODEL 7
REMARK VINA RESULT:      -7.1      2.833      4.226
REMARK  Name = 
REMARK  7 active torsions:
REMARK  status: ('A' for Active; 'I' for Inactive)
REMARK    1  A    between atoms: C_1  and  O_2
REMARK    2  A    between atoms: O_2  and  C_3
REMARK    3  A    between atoms: C_6  and  C_7
REMARK    4  A    between atoms: C_7  and  C_9
REMARK    5  A    between atoms: C_9  and  C_10
REMARK    6  A    between atoms: C_10  and  C_12
REMARK    7  A    between atoms: C_16  and  N_17
REMARK                            x       y       z     vdW  Elec       q    Type
REMARK                         _______ _______ _______ _____ _____    ______ ____
ROOT
ATOM      1  C   UNL     1       5.776   4.519  16.563  0.00  0.00    +0.000 C 
ENDROOT
BRANCH   1   2
ATOM      2  C   UNL     1       4.654   5.446  16.965  0.00  0.00    +0.000 C 
ATOM      3  O   UNL     1       4.564   6.577  16.485  0.00  0.00    +0.000 OA
BRANCH   2   7
ATOM      4  C   UNL     1       1.781   4.075  19.849  0.00  0.00    +0.000 A 
ATOM      5  C   UNL     1       2.028   3.352  18.681  0.00  0.00    +0.000 A 
ATOM      6  C   UNL     1       2.961   3.811  17.748  0.00  0.00    +0.000 A 
ATOM      7  C   UNL     1       3.654   5.004  17.977  0.00  0.00    +0.000 A 
ATOM      8  C   UNL     1       3.386   5.747  19.133  0.00  0.00    +0.000 A 
ATOM      9  C   UNL     1       2.449   5.281  20.064  0.00  0.00    +0.000 A 
BRANCH   4  11
ATOM     10  C   UNL     1       1.337   2.641  21.672  0.00  0.00    +0.000 C 
ATOM     11  O   UNL     1       0.841   3.536  20.684  0.00  0.00    +0.000 OA
ENDBRANCH   4  11
ENDBRANCH   2   7
ENDBRANCH   1   2
BRANCH   1  12
ATOM     12  C   UNL     1       6.826   5.159  15.685  0.00  0.00    +0.000 C 
ATOM     13  O   UNL     1       7.631   5.982  16.115  0.00  0.00    +0.000 OA
BRANCH  12  14
ATOM     14  C   UNL     1       6.885   4.796  14.235  0.00  0.00    +0.000 A 
ATOM     15  C   UNL     1       7.829   5.453  13.431  0.00  0.00    +0.000 A 
ATOM     16  C   UNL     1       7.924   5.180  12.064  0.00  0.00    +0.000 A 
ATOM     17  C   UNL     1       7.072   4.246  11.482  0.00  0.00    +0.000 A 
ATOM     18  C   UNL     1       6.128   3.583  12.280  0.00  0.00    +0.000 A 
ATOM     19  C   UNL     1       6.032   3.848  13.657  0.00  0.00    +0.000 A 
BRANCH  18  20
ATOM     20  N   UNL     1       5.219   2.609  11.662  0.00  0.00    +0.000 N 
ATOM     21  O   UNL     1       4.059   2.969  11.423  0.00  0.00    +0.000 OA
ATOM     22  O   UNL     1       5.670   1.479  11.425  0.00  0.00    +0.000 OA
ENDBRANCH  18  20
ENDBRANCH  12  14
ENDBRANCH   1  12
TORSDOF 6
ENDMDL
MODEL 8
REMARK VINA RESULT:      -7.1      1.205      1.487
REMARK  Name = 
REMARK  7 active torsions:
REMARK  status: ('A' for Active; 'I' for Inactive)
REMARK    1  A    between atoms: C_1  and  O_2
REMARK    2  A    between atoms: O_2  and  C_3
REMARK    3  A    between atoms: C_6  and  C_7
REMARK    4  A    between atoms: C_7  and  C_9
REMARK    5  A    between atoms: C_9  and  C_10
REMARK    6  A    between atoms: C_10  and  C_12
REMARK    7  A    between atoms: C_16  and  N_17
REMARK                            x       y       z     vdW  Elec       q    Type
REMARK                         _______ _______ _______ _____ _____    ______ ____
ROOT
ATOM      1  C   UNL     1       3.149   2.723  18.744  0.00  0.00    +0.000 C 
ENDROOT
BRANCH   1   2
ATOM      2  C   UNL     1       2.093   3.554  19.433  0.00  0.00    +0.000 C 
ATOM      3  O   UNL     1       1.214   3.025  20.115  0.00  0.00    +0.000 OA
BRANCH   2   7
ATOM      4  C   UNL     1       2.103   7.833  19.048  0.00  0.00    +0.000 A 
ATOM      5  C   UNL     1       1.853   7.222  20.278  0.00  0.00    +0.000 A 
ATOM      6  C   UNL     1       1.848   5.830  20.390  0.00  0.00    +0.000 A 
ATOM      7  C   UNL     1       2.090   5.034  19.265  0.00  0.00    +0.000 A 
ATOM      8  C   UNL     1       2.309   5.643  18.024  0.00  0.00    +0.000 A 
ATOM      9  C   UNL     1       2.313   7.041  17.918  0.00  0.00    +0.000 A 
BRANCH   4  11
ATOM     10  C   UNL     1       0.941   9.794  18.432  0.00  0.00    +0.000 C 
ATOM     11  O   UNL     1       2.073   9.200  19.055  0.00  0.00    +0.000 OA
ENDBRANCH   4  11
ENDBRANCH   2   7
ENDBRANCH   1   2
BRANCH   1  12
ATOM     12  C   UNL     1       4.562   3.019  19.192  0.00  0.00    +0.000 C 
ATOM     13  O   UNL     1       5.073   2.471  20.164  0.00  0.00    +0.000 OA
BRANCH  12  14
ATOM     14  C   UNL     1       5.368   4.029  18.438  0.00  0.00    +0.000 A 
ATOM     15  C   UNL     1       5.922   5.098  19.161  0.00  0.00    +0.000 A 
ATOM     16  C   UNL     1       6.668   6.090  18.518  0.00  0.00    +0.000 A 
ATOM     17  C   UNL     1       6.866   6.028  17.142  0.00  0.00    +0.000 A 
ATOM     18  C   UNL     1       6.318   4.961  16.415  0.00  0.00    +0.000 A 
ATOM     19  C   UNL     1       5.573   3.957  17.056  0.00  0.00    +0.000 A 
BRANCH  18  20
ATOM     20  N   UNL     1       6.515   4.905  14.960  0.00  0.00    +0.000 N 
ATOM     21  O   UNL     1       7.572   5.357  14.501  0.00  0.00    +0.000 OA
ATOM     22  O   UNL     1       5.603   4.415  14.280  0.00  0.00    +0.000 OA
ENDBRANCH  18  20
ENDBRANCH  12  14
ENDBRANCH   1  12
TORSDOF 6
ENDMDL
MODEL 9
REMARK VINA RESULT:      -7.1      2.020      2.608
REMARK  Name = 
REMARK  7 active torsions:
REMARK  status: ('A' for Active; 'I' for Inactive)
REMARK    1  A    between atoms: C_1  and  O_2
REMARK    2  A    between atoms: O_2  and  C_3
REMARK    3  A    between atoms: C_6  and  C_7
REMARK    4  A    between atoms: C_7  and  C_9
REMARK    5  A    between atoms: C_9  and  C_10
REMARK    6  A    between atoms: C_10  and  C_12
REMARK    7  A    between atoms: C_16  and  N_17
REMARK                            x       y       z     vdW  Elec       q    Type
REMARK                         _______ _______ _______ _____ _____    ______ ____
ROOT
ATOM      1  C   UNL     1       2.875   2.583  19.105  0.00  0.00    +0.000 C 
ENDROOT
BRANCH   1   2
ATOM      2  C   UNL     1       1.907   3.538  19.763  0.00  0.00    +0.000 C 
ATOM      3  O   UNL     1       1.026   3.126  20.518  0.00  0.00    +0.000 OA
BRANCH   2   7
ATOM      4  C   UNL     1       2.127   7.728  18.841  0.00  0.00    +0.000 A 
ATOM      5  C   UNL     1       2.144   6.767  17.829  0.00  0.00    +0.000 A 
ATOM      6  C   UNL     1       2.077   5.407  18.142  0.00  0.00    +0.000 A 
ATOM      7  C   UNL     1       1.995   4.997  19.476  0.00  0.00    +0.000 A 
ATOM      8  C   UNL     1       2.011   5.957  20.495  0.00  0.00    +0.000 A 
ATOM      9  C   UNL     1       2.079   7.319  20.175  0.00  0.00    +0.000 A 
BRANCH   4  11
ATOM     10  C   UNL     1       1.130   9.868  18.809  0.00  0.00    +0.000 C 
ATOM     11  O   UNL     1       2.208   9.026  18.420  0.00  0.00    +0.000 OA
ENDBRANCH   4  11
ENDBRANCH   2   7
ENDBRANCH   1   2
BRANCH   1  12
ATOM     12  C   UNL     1       4.328   2.967  19.260  0.00  0.00    +0.000 C 
ATOM     13  O   UNL     1       5.004   2.608  20.220  0.00  0.00    +0.000 OA
BRANCH  12  14
ATOM     14  C   UNL     1       4.969   3.830  18.221  0.00  0.00    +0.000 A 
ATOM     15  C   UNL     1       4.668   3.570  16.874  0.00  0.00    +0.000 A 
ATOM     16  C   UNL     1       5.248   4.322  15.849  0.00  0.00    +0.000 A 
ATOM     17  C   UNL     1       6.142   5.344  16.158  0.00  0.00    +0.000 A 
ATOM     18  C   UNL     1       6.445   5.611  17.501  0.00  0.00    +0.000 A 
ATOM     19  C   UNL     1       5.859   4.863  18.537  0.00  0.00    +0.000 A 
BRANCH  18  20
ATOM     20  N   UNL     1       7.399   6.679  17.825  0.00  0.00    +0.000 N 
ATOM     21  O   UNL     1       7.449   7.660  17.071  0.00  0.00    +0.000 OA
ATOM     22  O   UNL     1       8.105   6.527  18.832  0.00  0.00    +0.000 OA
ENDBRANCH  18  20
ENDBRANCH  12  14
ENDBRANCH   1  12
TORSDOF 6
ENDMDL
