MODEL 1
REMARK VINA RESULT:      -8.2      0.000      0.000
REMARK  Name = 
REMARK  7 active torsions:
REMARK  status: ('A' for Active; 'I' for Inactive)
REMARK    1  A    between atoms: C_1  and  C_2
REMARK    2  A    between atoms: C_7  and  O_8
REMARK    3  A    between atoms: O_8  and  C_9
REMARK    4  A    between atoms: C_9  and  C_10
REMARK    5  A    between atoms: N_12  and  C_13
REMARK    6  A    between atoms: C_13  and  C_14
REMARK    7  A    between atoms: C_16  and  C_17
REMARK                            x       y       z     vdW  Elec       q    Type
REMARK                         _______ _______ _______ _____ _____    ______ ____
ROOT
ATOM      1  C   UNL     1       7.613   5.456  18.421  0.00  0.00    +0.000 C 
ENDROOT
BRANCH   1   2
ATOM      2  C   UNL     1       7.810   6.910  18.209  0.00  0.00    +0.000 A 
ATOM      3  N   UNL     1       8.561   7.772  18.861  0.00  0.00    +0.000 NA
ATOM      4  C   UNL     1       8.294   8.954  18.204  0.00  0.00    +0.000 A 
ATOM      5  N   UNL     1       7.417   8.829  17.192  0.00  0.00    +0.000 NA
ATOM      6  O   UNL     1       7.097   7.475  17.195  0.00  0.00    +0.000 OA
BRANCH   4   7
ATOM      7  C   UNL     1       8.923  10.175  18.638  0.00  0.00    +0.000 A 
ATOM      8  C   UNL     1       9.368  10.330  20.022  0.00  0.00    +0.000 A 
ATOM      9  C   UNL     1       9.966  11.454  20.431  0.00  0.00    +0.000 A 
ATOM     10  N   UNL     1      10.165  12.486  19.555  0.00  0.00    +0.000 N 
ATOM     11  C   UNL     1       9.783  12.450  18.239  0.00  0.00    +0.000 A 
ATOM     12  O   UNL     1       9.971  13.384  17.468  0.00  0.00    +0.000 OA
ATOM     13  C   UNL     1       9.124  11.201  17.791  0.00  0.00    +0.000 A 
ATOM     14  H   UNL     1      10.619  13.339  19.859  0.00  0.00    +0.000 HD
ENDBRANCH   4   7
ENDBRANCH   1   2
BRANCH   1  17
ATOM     15  C   UNL     1       5.991   4.427  16.896  0.00  0.00    +0.000 C 
ATOM     16  O   UNL     1       6.874   4.156  16.086  0.00  0.00    +0.000 OA
ATOM     17  N   UNL     1       6.258   5.071  18.084  0.00  0.00    +0.000 N 
ATOM     18  H   UNL     1       5.519   5.248  18.757  0.00  0.00    +0.000 HD
BRANCH  15  19
ATOM     19  C   UNL     1       4.510   4.145  16.636  0.00  0.00    +0.000 C 
BRANCH  19  20
ATOM     20  O   UNL     1       3.649   5.009  17.345  0.00  0.00    +0.000 OA
BRANCH  20  27
ATOM     21  C   UNL     1       2.391   6.438  19.892  0.00  0.00    +0.000 C 
ATOM     22  C   UNL     1       2.134   5.057  19.359  0.00  0.00    +0.000 A 
ATOM     23  C   UNL     1       1.210   4.282  20.101  0.00  0.00    +0.000 A 
ATOM     24  C   UNL     1       0.876   2.982  19.734  0.00  0.00    +0.000 A 
ATOM     25  C   UNL     1       1.457   2.423  18.608  0.00  0.00    +0.000 A 
ATOM     26  C   UNL     1       2.369   3.170  17.859  0.00  0.00    +0.000 A 
ATOM     27  C   UNL     1       2.725   4.485  18.216  0.00  0.00    +0.000 A 
ENDBRANCH  20  27
ENDBRANCH  19  20
ENDBRANCH  15  19
ENDBRANCH   1  17
TORSDOF 6
ENDMDL
MODEL 2
REMARK VINA RESULT:      -8.1      2.354      9.397
REMARK  Name = 
REMARK  7 active torsions:
REMARK  status: ('A' for Active; 'I' for Inactive)
REMARK    1  A    between atoms: C_1  and  C_2
REMARK    2  A    between atoms: C_7  and  O_8
REMARK    3  A    between atoms: O_8  and  C_9
REMARK    4  A    between atoms: C_9  and  C_10
REMARK    5  A    between atoms: N_12  and  C_13
REMARK    6  A    between atoms: C_13  and  C_14
REMARK    7  A    between atoms: C_16  and  C_17
REMARK                            x       y       z     vdW  Elec       q    Type
REMARK                         _______ _______ _______ _____ _____    ______ ____
ROOT
ATOM      1  C   UNL     1       6.843   6.046  16.988  0.00  0.00    +0.000 C 
ENDROOT
BRANCH   1   2
ATOM      2  C   UNL     1       5.462   5.828  17.482  0.00  0.00    +0.000 A 
ATOM      3  N   UNL     1       4.980   4.899  18.282  0.00  0.00    +0.000 NA
ATOM      4  C   UNL     1       3.642   5.224  18.337  0.00  0.00    +0.000 A 
ATOM      5  N   UNL     1       3.310   6.303  17.607  0.00  0.00    +0.000 NA
ATOM      6  O   UNL     1       4.517   6.703  17.041  0.00  0.00    +0.000 OA
BRANCH   4   7
ATOM      7  C   UNL     1       2.739   4.416  19.116  0.00  0.00    +0.000 A 
ATOM      8  C   UNL     1       1.547   3.831  18.503  0.00  0.00    +0.000 A 
ATOM      9  C   UNL     1       0.710   3.067  19.213  0.00  0.00    +0.000 A 
ATOM     10  N   UNL     1       0.956   2.825  20.537  0.00  0.00    +0.000 N 
ATOM     11  C   UNL     1       2.038   3.327  21.214  0.00  0.00    +0.000 A 
ATOM     12  O   UNL     1       2.243   3.099  22.400  0.00  0.00    +0.000 OA
ATOM     13  C   UNL     1       2.963   4.169  20.420  0.00  0.00    +0.000 A 
ATOM     14  H   UNL     1       0.327   2.247  21.081  0.00  0.00    +0.000 HD
ENDBRANCH   4   7
ENDBRANCH   1   2
BRANCH   1  17
ATOM     15  C   UNL     1       7.950   8.053  17.858  0.00  0.00    +0.000 C 
ATOM     16  O   UNL     1       8.446   7.418  18.785  0.00  0.00    +0.000 OA
ATOM     17  N   UNL     1       7.141   7.461  16.914  0.00  0.00    +0.000 N 
ATOM     18  H   UNL     1       6.775   7.995  16.133  0.00  0.00    +0.000 HD
BRANCH  15  19
ATOM     19  C   UNL     1       8.121   9.565  17.701  0.00  0.00    +0.000 C 
BRANCH  19  20
ATOM     20  O   UNL     1       9.270  10.063  18.350  0.00  0.00    +0.000 OA
BRANCH  20  27
ATOM     21  C   UNL     1      11.968  11.492  19.238  0.00  0.00    +0.000 C 
ATOM     22  C   UNL     1      10.713  12.104  18.684  0.00  0.00    +0.000 A 
ATOM     23  C   UNL     1      10.732  13.512  18.548  0.00  0.00    +0.000 A 
ATOM     24  C   UNL     1       9.640  14.221  18.056  0.00  0.00    +0.000 A 
ATOM     25  C   UNL     1       8.497  13.534  17.681  0.00  0.00    +0.000 A 
ATOM     26  C   UNL     1       8.456  12.143  17.804  0.00  0.00    +0.000 A 
ATOM     27  C   UNL     1       9.548  11.408  18.305  0.00  0.00    +0.000 A 
ENDBRANCH  20  27
ENDBRANCH  19  20
ENDBRANCH  15  19
ENDBRANCH   1  17
TORSDOF 6
ENDMDL
MODEL 3
REMARK VINA RESULT:      -8.0      2.174      9.181
REMARK  Name = 
REMARK  7 active torsions:
REMARK  status: ('A' for Active; 'I' for Inactive)
REMARK    1  A    between atoms: C_1  and  C_2
REMARK    2  A    between atoms: C_7  and  O_8
REMARK    3  A    between atoms: O_8  and  C_9
REMARK    4  A    between atoms: C_9  and  C_10
REMARK    5  A    between atoms: N_12  and  C_13
REMARK    6  A    between atoms: C_13  and  C_14
REMARK    7  A    between atoms: C_16  and  C_17
REMARK                            x       y       z     vdW  Elec       q    Type
REMARK                         _______ _______ _______ _____ _____    ______ ____
ROOT
ATOM      1  C   UNL     1       7.767   5.206  18.399  0.00  0.00    +0.000 C 
ENDROOT
BRANCH   1   2
ATOM      2  C   UNL     1       6.391   4.674  18.253  0.00  0.00    +0.000 A 
ATOM      3  N   UNL     1       5.462   4.454  19.160  0.00  0.00    +0.000 NA
ATOM      4  C   UNL     1       4.430   3.939  18.406  0.00  0.00    +0.000 A 
ATOM      5  N   UNL     1       4.706   3.845  17.094  0.00  0.00    +0.000 NA
ATOM      6  O   UNL     1       6.006   4.332  16.993  0.00  0.00    +0.000 OA
BRANCH   4   7
ATOM      7  C   UNL     1       3.202   3.542  19.046  0.00  0.00    +0.000 A 
ATOM      8  C   UNL     1       1.996   3.299  18.256  0.00  0.00    +0.000 A 
ATOM      9  C   UNL     1       0.855   2.916  18.839  0.00  0.00    +0.000 A 
ATOM     10  N   UNL     1       0.798   2.752  20.197  0.00  0.00    +0.000 N 
ATOM     11  C   UNL     1       1.864   2.959  21.033  0.00  0.00    +0.000 A 
ATOM     12  O   UNL     1       1.795   2.806  22.247  0.00  0.00    +0.000 OA
ATOM     13  C   UNL     1       3.126   3.379  20.380  0.00  0.00    +0.000 A 
ATOM     14  H   UNL     1      -0.063   2.461  20.645  0.00  0.00    +0.000 HD
ENDBRANCH   4   7
ENDBRANCH   1   2
BRANCH   1  17
ATOM     15  C   UNL     1       7.794   7.541  17.651  0.00  0.00    +0.000 C 
ATOM     16  O   UNL     1       7.869   7.199  16.474  0.00  0.00    +0.000 OA
ATOM     17  N   UNL     1       7.738   6.626  18.679  0.00  0.00    +0.000 N 
ATOM     18  H   UNL     1       7.635   6.931  19.642  0.00  0.00    +0.000 HD
BRANCH  15  19
ATOM     19  C   UNL     1       7.829   9.005  18.095  0.00  0.00    +0.000 C 
BRANCH  19  20
ATOM     20  O   UNL     1       9.075   9.624  17.864  0.00  0.00    +0.000 OA
BRANCH  20  27
ATOM     21  C   UNL     1      11.155  11.961  17.295  0.00  0.00    +0.000 C 
ATOM     22  C   UNL     1      10.476  11.593  18.584  0.00  0.00    +0.000 A 
ATOM     23  C   UNL     1      10.819  12.393  19.700  0.00  0.00    +0.000 A 
ATOM     24  C   UNL     1      10.276  12.168  20.962  0.00  0.00    +0.000 A 
ATOM     25  C   UNL     1       9.370  11.136  21.139  0.00  0.00    +0.000 A 
ATOM     26  C   UNL     1       9.016  10.335  20.050  0.00  0.00    +0.000 A 
ATOM     27  C   UNL     1       9.556  10.542  18.766  0.00  0.00    +0.000 A 
ENDBRANCH  20  27
ENDBRANCH  19  20
ENDBRANCH  15  19
ENDBRANCH   1  17
TORSDOF 6
ENDMDL
MODEL 4
REMARK VINA RESULT:      -8.0      4.682      6.631
REMARK  Name = 
REMARK  7 active torsions:
REMARK  status: ('A' for Active; 'I' for Inactive)
REMARK    1  A    between atoms: C_1  and  C_2
REMARK    2  A    between atoms: C_7  and  O_8
REMARK    3  A    between atoms: O_8  and  C_9
REMARK    4  A    between atoms: C_9  and  C_10
REMARK    5  A    between atoms: N_12  and  C_13
REMARK    6  A    between atoms: C_13  and  C_14
REMARK    7  A    between atoms: C_16  and  C_17
REMARK                            x       y       z     vdW  Elec       q    Type
REMARK                         _______ _______ _______ _____ _____    ______ ____
ROOT
ATOM      1  C   UNL     1       3.658   7.484  17.263  0.00  0.00    +0.000 C 
ENDROOT
BRANCH   1   2
ATOM      2  C   UNL     1       2.607   8.272  17.950  0.00  0.00    +0.000 A 
ATOM      3  N   UNL     1       1.937   9.332  17.548  0.00  0.00    +0.000 NA
ATOM      4  C   UNL     1       1.133   9.602  18.635  0.00  0.00    +0.000 A 
ATOM      5  N   UNL     1       1.298   8.750  19.661  0.00  0.00    +0.000 NA
ATOM      6  O   UNL     1       2.273   7.868  19.207  0.00  0.00    +0.000 OA
BRANCH   4   7
ATOM      7  C   UNL     1       0.238  10.730  18.602  0.00  0.00    +0.000 A 
ATOM      8  C   UNL     1       0.744  12.087  18.812  0.00  0.00    +0.000 A 
ATOM      9  C   UNL     1      -0.077  13.142  18.769  0.00  0.00    +0.000 A 
ATOM     10  N   UNL     1      -1.413  12.966  18.533  0.00  0.00    +0.000 N 
ATOM     11  C   UNL     1      -1.994  11.741  18.329  0.00  0.00    +0.000 A 
ATOM     12  O   UNL     1      -3.193  11.602  18.118  0.00  0.00    +0.000 OA
ATOM     13  C   UNL     1      -1.079  10.576  18.374  0.00  0.00    +0.000 A 
ATOM     14  H   UNL     1      -2.039  13.761  18.498  0.00  0.00    +0.000 HD
ENDBRANCH   4   7
ENDBRANCH   1   2
BRANCH   1  17
ATOM     15  C   UNL     1       4.894   5.390  17.583  0.00  0.00    +0.000 C 
ATOM     16  O   UNL     1       5.232   5.370  16.402  0.00  0.00    +0.000 OA
ATOM     17  N   UNL     1       4.114   6.398  18.106  0.00  0.00    +0.000 N 
ATOM     18  H   UNL     1       3.881   6.417  19.093  0.00  0.00    +0.000 HD
BRANCH  15  19
ATOM     19  C   UNL     1       5.242   4.272  18.567  0.00  0.00    +0.000 C 
BRANCH  19  20
ATOM     20  O   UNL     1       4.352   3.179  18.501  0.00  0.00    +0.000 OA
BRANCH  20  27
ATOM     21  C   UNL     1       1.439   4.163  17.690  0.00  0.00    +0.000 C 
ATOM     22  C   UNL     1       1.914   3.593  18.997  0.00  0.00    +0.000 A 
ATOM     23  C   UNL     1       0.931   3.490  20.008  0.00  0.00    +0.000 A 
ATOM     24  C   UNL     1       1.223   2.987  21.273  0.00  0.00    +0.000 A 
ATOM     25  C   UNL     1       2.513   2.570  21.557  0.00  0.00    +0.000 A 
ATOM     26  C   UNL     1       3.500   2.661  20.573  0.00  0.00    +0.000 A 
ATOM     27  C   UNL     1       3.226   3.170  19.289  0.00  0.00    +0.000 A 
ENDBRANCH  20  27
ENDBRANCH  19  20
ENDBRANCH  15  19
ENDBRANCH   1  17
TORSDOF 6
ENDMDL
MODEL 5
REMARK VINA RESULT:      -8.0      2.292      9.313
REMARK  Name = 
REMARK  7 active torsions:
REMARK  status: ('A' for Active; 'I' for Inactive)
REMARK    1  A    between atoms: C_1  and  C_2
REMARK    2  A    between atoms: C_7  and  O_8
REMARK    3  A    between atoms: O_8  and  C_9
REMARK    4  A    between atoms: C_9  and  C_10
REMARK    5  A    between atoms: N_12  and  C_13
REMARK    6  A    between atoms: C_13  and  C_14
REMARK    7  A    between atoms: C_16  and  C_17
REMARK                            x       y       z     vdW  Elec       q    Type
REMARK                         _______ _______ _______ _____ _____    ______ ____
ROOT
ATOM      1  C   UNL     1       7.608   5.656  18.751  0.00  0.00    +0.000 C 
ENDROOT
BRANCH   1   2
ATOM      2  C   UNL     1       6.150   5.400  18.682  0.00  0.00    +0.000 A 
ATOM      3  N   UNL     1       5.398   4.561  19.364  0.00  0.00    +0.000 NA
ATOM      4  C   UNL     1       4.149   4.779  18.825  0.00  0.00    +0.000 A 
ATOM      5  N   UNL     1       4.127   5.708  17.854  0.00  0.00    +0.000 NA
ATOM      6  O   UNL     1       5.453   6.120  17.760  0.00  0.00    +0.000 OA
BRANCH   4   7
ATOM      7  C   UNL     1       3.020   4.022  19.301  0.00  0.00    +0.000 A 
ATOM      8  C   UNL     1       1.983   3.571  18.374  0.00  0.00    +0.000 A 
ATOM      9  C   UNL     1       0.939   2.854  18.804  0.00  0.00    +0.000 A 
ATOM     10  N   UNL     1       0.821   2.537  20.129  0.00  0.00    +0.000 N 
ATOM     11  C   UNL     1       1.729   2.912  21.085  0.00  0.00    +0.000 A 
ATOM     12  O   UNL     1       1.609   2.617  22.268  0.00  0.00    +0.000 OA
ATOM     13  C   UNL     1       2.886   3.702  20.602  0.00  0.00    +0.000 A 
ATOM     14  H   UNL     1       0.033   1.993  20.461  0.00  0.00    +0.000 HD
ENDBRANCH   4   7
ENDBRANCH   1   2
BRANCH   1  17
ATOM     15  C   UNL     1       8.015   7.878  17.797  0.00  0.00    +0.000 C 
ATOM     16  O   UNL     1       7.927   7.439  16.652  0.00  0.00    +0.000 OA
ATOM     17  N   UNL     1       7.871   7.072  18.904  0.00  0.00    +0.000 N 
ATOM     18  H   UNL     1       7.906   7.462  19.840  0.00  0.00    +0.000 HD
BRANCH  15  19
ATOM     19  C   UNL     1       8.362   9.336  18.104  0.00  0.00    +0.000 C 
BRANCH  19  20
ATOM     20  O   UNL     1       9.168   9.483  19.252  0.00  0.00    +0.000 OA
BRANCH  20  27
ATOM     21  C   UNL     1       8.771  11.329  21.811  0.00  0.00    +0.000 C 
ATOM     22  C   UNL     1       9.643  11.555  20.609  0.00  0.00    +0.000 A 
ATOM     23  C   UNL     1      10.383  12.762  20.613  0.00  0.00    +0.000 A 
ATOM     24  C   UNL     1      11.229  13.112  19.565  0.00  0.00    +0.000 A 
ATOM     25  C   UNL     1      11.360  12.258  18.482  0.00  0.00    +0.000 A 
ATOM     26  C   UNL     1      10.642  11.060  18.458  0.00  0.00    +0.000 A 
ATOM     27  C   UNL     1       9.777  10.689  19.505  0.00  0.00    +0.000 A 
ENDBRANCH  20  27
ENDBRANCH  19  20
ENDBRANCH  15  19
ENDBRANCH   1  17
TORSDOF 6
ENDMDL
MODEL 6
REMARK VINA RESULT:      -7.8      4.625      6.432
REMARK  Name = 
REMARK  7 active torsions:
REMARK  status: ('A' for Active; 'I' for Inactive)
REMARK    1  A    between atoms: C_1  and  C_2
REMARK    2  A    between atoms: C_7  and  O_8
REMARK    3  A    between atoms: O_8  and  C_9
REMARK    4  A    between atoms: C_9  and  C_10
REMARK    5  A    between atoms: N_12  and  C_13
REMARK    6  A    between atoms: C_13  and  C_14
REMARK    7  A    between atoms: C_16  and  C_17
REMARK                            x       y       z     vdW  Elec       q    Type
REMARK                         _______ _______ _______ _____ _____    ______ ____
ROOT
ATOM      1  C   UNL     1       3.805   7.430  17.351  0.00  0.00    +0.000 C 
ENDROOT
BRANCH   1   2
ATOM      2  C   UNL     1       2.714   8.196  17.999  0.00  0.00    +0.000 A 
ATOM      3  N   UNL     1       2.024   9.230  17.564  0.00  0.00    +0.000 NA
ATOM      4  C   UNL     1       1.184   9.491  18.625  0.00  0.00    +0.000 A 
ATOM      5  N   UNL     1       1.346   8.659  19.668  0.00  0.00    +0.000 NA
ATOM      6  O   UNL     1       2.359   7.801  19.253  0.00  0.00    +0.000 OA
BRANCH   4   7
ATOM      7  C   UNL     1       0.257  10.591  18.552  0.00  0.00    +0.000 A 
ATOM      8  C   UNL     1      -1.163  10.351  18.296  0.00  0.00    +0.000 A 
ATOM      9  C   UNL     1      -2.034  11.364  18.241  0.00  0.00    +0.000 A 
ATOM     10  N   UNL     1      -1.605  12.651  18.418  0.00  0.00    +0.000 N 
ATOM     11  C   UNL     1      -0.298  12.991  18.657  0.00  0.00    +0.000 A 
ATOM     12  O   UNL     1       0.068  14.150  18.815  0.00  0.00    +0.000 OA
ATOM     13  C   UNL     1       0.661  11.864  18.721  0.00  0.00    +0.000 A 
ATOM     14  H   UNL     1      -2.260  13.423  18.378  0.00  0.00    +0.000 HD
ENDBRANCH   4   7
ENDBRANCH   1   2
BRANCH   1  17
ATOM     15  C   UNL     1       5.285   5.684  18.230  0.00  0.00    +0.000 C 
ATOM     16  O   UNL     1       6.284   6.295  17.857  0.00  0.00    +0.000 OA
ATOM     17  N   UNL     1       4.011   6.166  18.026  0.00  0.00    +0.000 N 
ATOM     18  H   UNL     1       3.203   5.665  18.379  0.00  0.00    +0.000 HD
BRANCH  15  19
ATOM     19  C   UNL     1       5.353   4.305  18.889  0.00  0.00    +0.000 C 
BRANCH  19  20
ATOM     20  O   UNL     1       4.314   3.443  18.478  0.00  0.00    +0.000 OA
BRANCH  20  27
ATOM     21  C   UNL     1       1.314   4.121  17.668  0.00  0.00    +0.000 C 
ATOM     22  C   UNL     1       1.845   3.591  18.970  0.00  0.00    +0.000 A 
ATOM     23  C   UNL     1       0.876   3.372  19.978  0.00  0.00    +0.000 A 
ATOM     24  C   UNL     1       1.217   2.890  21.238  0.00  0.00    +0.000 A 
ATOM     25  C   UNL     1       2.544   2.609  21.522  0.00  0.00    +0.000 A 
ATOM     26  C   UNL     1       3.517   2.815  20.542  0.00  0.00    +0.000 A 
ATOM     27  C   UNL     1       3.194   3.307  19.262  0.00  0.00    +0.000 A 
ENDBRANCH  20  27
ENDBRANCH  19  20
ENDBRANCH  15  19
ENDBRANCH   1  17
TORSDOF 6
ENDMDL
MODEL 7
REMARK VINA RESULT:      -7.8      1.269      1.592
REMARK  Name = 
REMARK  7 active torsions:
REMARK  status: ('A' for Active; 'I' for Inactive)
REMARK    1  A    between atoms: C_1  and  C_2
REMARK    2  A    between atoms: C_7  and  O_8
REMARK    3  A    between atoms: O_8  and  C_9
REMARK    4  A    between atoms: C_9  and  C_10
REMARK    5  A    between atoms: N_12  and  C_13
REMARK    6  A    between atoms: C_13  and  C_14
REMARK    7  A    between atoms: C_16  and  C_17
REMARK                            x       y       z     vdW  Elec       q    Type
REMARK                         _______ _______ _______ _____ _____    ______ ____
ROOT
ATOM      1  C   UNL     1       7.840   5.799  18.505  0.00  0.00    +0.000 C 
ENDROOT
BRANCH   1   2
ATOM      2  C   UNL     1       8.019   7.254  18.282  0.00  0.00    +0.000 A 
ATOM      3  N   UNL     1       8.721   8.139  18.958  0.00  0.00    +0.000 NA
ATOM      4  C   UNL     1       8.464   9.306  18.272  0.00  0.00    +0.000 A 
ATOM      5  N   UNL     1       7.642   9.151  17.220  0.00  0.00    +0.000 NA
ATOM      6  O   UNL     1       7.348   7.791  17.227  0.00  0.00    +0.000 OA
BRANCH   4   7
ATOM      7  C   UNL     1       9.047  10.545  18.719  0.00  0.00    +0.000 A 
ATOM      8  C   UNL     1       9.331  11.620  17.768  0.00  0.00    +0.000 A 
ATOM      9  C   UNL     1       9.859  12.779  18.175  0.00  0.00    +0.000 A 
ATOM     10  N   UNL     1      10.151  12.975  19.498  0.00  0.00    +0.000 N 
ATOM     11  C   UNL     1       9.933  12.036  20.472  0.00  0.00    +0.000 A 
ATOM     12  O   UNL     1      10.200  12.229  21.652  0.00  0.00    +0.000 OA
ATOM     13  C   UNL     1       9.344  10.755  20.015  0.00  0.00    +0.000 A 
ATOM     14  H   UNL     1      10.550  13.851  19.813  0.00  0.00    +0.000 HD
ENDBRANCH   4   7
ENDBRANCH   1   2
BRANCH   1  17
ATOM     15  C   UNL     1       5.533   5.012  18.231  0.00  0.00    +0.000 C 
ATOM     16  O   UNL     1       5.296   5.190  19.423  0.00  0.00    +0.000 OA
ATOM     17  N   UNL     1       6.766   5.286  17.680  0.00  0.00    +0.000 N 
ATOM     18  H   UNL     1       6.928   5.171  16.685  0.00  0.00    +0.000 HD
BRANCH  15  19
ATOM     19  C   UNL     1       4.516   4.407  17.263  0.00  0.00    +0.000 C 
BRANCH  19  20
ATOM     20  O   UNL     1       3.217   4.933  17.424  0.00  0.00    +0.000 OA
BRANCH  20  27
ATOM     21  C   UNL     1       2.119   6.299  20.078  0.00  0.00    +0.000 C 
ATOM     22  C   UNL     1       1.850   4.921  19.542  0.00  0.00    +0.000 A 
ATOM     23  C   UNL     1       0.996   4.117  20.335  0.00  0.00    +0.000 A 
ATOM     24  C   UNL     1       0.661   2.816  19.972  0.00  0.00    +0.000 A 
ATOM     25  C   UNL     1       1.169   2.285  18.799  0.00  0.00    +0.000 A 
ATOM     26  C   UNL     1       2.012   3.061  17.999  0.00  0.00    +0.000 A 
ATOM     27  C   UNL     1       2.368   4.377  18.350  0.00  0.00    +0.000 A 
ENDBRANCH  20  27
ENDBRANCH  19  20
ENDBRANCH  15  19
ENDBRANCH   1  17
TORSDOF 6
ENDMDL
MODEL 8
REMARK VINA RESULT:      -7.5      4.186      7.078
REMARK  Name = 
REMARK  7 active torsions:
REMARK  status: ('A' for Active; 'I' for Inactive)
REMARK    1  A    between atoms: C_1  and  C_2
REMARK    2  A    between atoms: C_7  and  O_8
REMARK    3  A    between atoms: O_8  and  C_9
REMARK    4  A    between atoms: C_9  and  C_10
REMARK    5  A    between atoms: N_12  and  C_13
REMARK    6  A    between atoms: C_13  and  C_14
REMARK    7  A    between atoms: C_16  and  C_17
REMARK                            x       y       z     vdW  Elec       q    Type
REMARK                         _______ _______ _______ _____ _____    ______ ____
ROOT
ATOM      1  C   UNL     1       6.901   4.878  17.446  0.00  0.00    +0.000 C 
ENDROOT
BRANCH   1   2
ATOM      2  C   UNL     1       6.872   4.714  15.973  0.00  0.00    +0.000 A 
ATOM      3  N   UNL     1       6.187   3.876  15.222  0.00  0.00    +0.000 NA
ATOM      4  C   UNL     1       6.611   4.205  13.953  0.00  0.00    +0.000 A 
ATOM      5  N   UNL     1       7.514   5.199  13.918  0.00  0.00    +0.000 NA
ATOM      6  O   UNL     1       7.686   5.537  15.257  0.00  0.00    +0.000 OA
BRANCH   4   7
ATOM      7  C   UNL     1       6.097   3.484  12.817  0.00  0.00    +0.000 A 
ATOM      8  C   UNL     1       6.940   2.527  12.100  0.00  0.00    +0.000 A 
ATOM      9  C   UNL     1       6.468   1.842  11.053  0.00  0.00    +0.000 A 
ATOM     10  N   UNL     1       5.181   2.033  10.629  0.00  0.00    +0.000 N 
ATOM     11  C   UNL     1       4.307   2.907  11.222  0.00  0.00    +0.000 A 
ATOM     12  O   UNL     1       3.157   3.064  10.830  0.00  0.00    +0.000 OA
ATOM     13  C   UNL     1       4.835   3.660  12.384  0.00  0.00    +0.000 A 
ATOM     14  H   UNL     1       4.817   1.517   9.837  0.00  0.00    +0.000 HD
ENDBRANCH   4   7
ENDBRANCH   1   2
BRANCH   1  17
ATOM     15  C   UNL     1       5.016   6.402  17.814  0.00  0.00    +0.000 C 
ATOM     16  O   UNL     1       5.608   7.323  17.257  0.00  0.00    +0.000 OA
ATOM     17  N   UNL     1       5.573   5.151  17.956  0.00  0.00    +0.000 N 
ATOM     18  H   UNL     1       5.050   4.393  18.382  0.00  0.00    +0.000 HD
BRANCH  15  19
ATOM     19  C   UNL     1       3.641   6.570  18.462  0.00  0.00    +0.000 C 
BRANCH  19  20
ATOM     20  O   UNL     1       2.645   5.768  17.866  0.00  0.00    +0.000 OA
BRANCH  20  27
ATOM     21  C   UNL     1       1.518   5.749  20.840  0.00  0.00    +0.000 C 
ATOM     22  C   UNL     1       1.630   4.612  19.864  0.00  0.00    +0.000 A 
ATOM     23  C   UNL     1       1.179   3.358  20.339  0.00  0.00    +0.000 A 
ATOM     24  C   UNL     1       1.226   2.210  19.552  0.00  0.00    +0.000 A 
ATOM     25  C   UNL     1       1.724   2.291  18.262  0.00  0.00    +0.000 A 
ATOM     26  C   UNL     1       2.172   3.520  17.771  0.00  0.00    +0.000 A 
ATOM     27  C   UNL     1       2.137   4.691  18.552  0.00  0.00    +0.000 A 
ENDBRANCH  20  27
ENDBRANCH  19  20
ENDBRANCH  15  19
ENDBRANCH   1  17
TORSDOF 6
ENDMDL
MODEL 9
REMARK VINA RESULT:      -7.5      4.331      6.662
REMARK  Name = 
REMARK  7 active torsions:
REMARK  status: ('A' for Active; 'I' for Inactive)
REMARK    1  A    between atoms: C_1  and  C_2
REMARK    2  A    between atoms: C_7  and  O_8
REMARK    3  A    between atoms: O_8  and  C_9
REMARK    4  A    between atoms: C_9  and  C_10
REMARK    5  A    between atoms: N_12  and  C_13
REMARK    6  A    between atoms: C_13  and  C_14
REMARK    7  A    between atoms: C_16  and  C_17
REMARK                            x       y       z     vdW  Elec       q    Type
REMARK                         _______ _______ _______ _____ _____    ______ ____
ROOT
ATOM      1  C   UNL     1       5.778   4.755  19.198  0.00  0.00    +0.000 C 
ENDROOT
BRANCH   1   2
ATOM      2  C   UNL     1       6.256   5.063  17.829  0.00  0.00    +0.000 A 
ATOM      3  N   UNL     1       6.064   4.422  16.695  0.00  0.00    +0.000 NA
ATOM      4  C   UNL     1       6.777   5.188  15.799  0.00  0.00    +0.000 A 
ATOM      5  N   UNL     1       7.384   6.253  16.351  0.00  0.00    +0.000 NA
ATOM      6  O   UNL     1       7.038   6.170  17.696  0.00  0.00    +0.000 OA
BRANCH   4   7
ATOM      7  C   UNL     1       6.836   4.802  14.412  0.00  0.00    +0.000 A 
ATOM      8  C   UNL     1       7.780   5.447  13.500  0.00  0.00    +0.000 A 
ATOM      9  C   UNL     1       7.852   5.085  12.214  0.00  0.00    +0.000 A 
ATOM     10  N   UNL     1       7.032   4.104  11.729  0.00  0.00    +0.000 N 
ATOM     11  C   UNL     1       6.107   3.439  12.491  0.00  0.00    +0.000 A 
ATOM     12  O   UNL     1       5.381   2.561  12.040  0.00  0.00    +0.000 OA
ATOM     13  C   UNL     1       6.035   3.841  13.916  0.00  0.00    +0.000 A 
ATOM     14  H   UNL     1       7.082   3.825  10.756  0.00  0.00    +0.000 HD
ENDBRANCH   4   7
ENDBRANCH   1   2
BRANCH   1  17
ATOM     15  C   UNL     1       3.369   4.703  19.652  0.00  0.00    +0.000 C 
ATOM     16  O   UNL     1       3.353   3.475  19.607  0.00  0.00    +0.000 OA
ATOM     17  N   UNL     1       4.524   5.429  19.464  0.00  0.00    +0.000 N 
ATOM     18  H   UNL     1       4.522   6.440  19.546  0.00  0.00    +0.000 HD
BRANCH  15  19
ATOM     19  C   UNL     1       2.106   5.544  19.850  0.00  0.00    +0.000 C 
BRANCH  19  20
ATOM     20  O   UNL     1       2.371   6.824  20.381  0.00  0.00    +0.000 OA
BRANCH  20  27
ATOM     21  C   UNL     1       3.046   7.873  17.455  0.00  0.00    +0.000 C 
ATOM     22  C   UNL     1       2.113   8.459  18.478  0.00  0.00    +0.000 A 
ATOM     23  C   UNL     1       1.452   9.647  18.087  0.00  0.00    +0.000 A 
ATOM     24  C   UNL     1       0.564  10.308  18.930  0.00  0.00    +0.000 A 
ATOM     25  C   UNL     1       0.311   9.793  20.190  0.00  0.00    +0.000 A 
ATOM     26  C   UNL     1       0.950   8.619  20.596  0.00  0.00    +0.000 A 
ATOM     27  C   UNL     1       1.856   7.937  19.761  0.00  0.00    +0.000 A 
ENDBRANCH  20  27
ENDBRANCH  19  20
ENDBRANCH  15  19
ENDBRANCH   1  17
TORSDOF 6
ENDMDL
