MODEL 1
REMARK VINA RESULT:      -8.0      0.000      0.000
REMARK  Name = 
REMARK  5 active torsions:
REMARK  status: ('A' for Active; 'I' for Inactive)
REMARK    1  A    between atoms: C_1  and  C_2
REMARK    2  A    between atoms: C_2  and  C_3
REMARK    3  A    between atoms: C_7  and  S_8
REMARK    4  A    between atoms: S_8  and  C_9
REMARK    5  A    between atoms: C_9  and  C_10
REMARK                            x       y       z     vdW  Elec       q    Type
REMARK                         _______ _______ _______ _____ _____    ______ ____
ROOT
ATOM      1  C   UNL     1       5.430   5.296  17.214  0.00  0.00    +0.000 C 
ENDROOT
BRANCH   1   2
ATOM      2  C   UNL     1       4.531   6.511  17.411  0.00  0.00    +0.000 C 
ATOM      3  O   UNL     1       4.604   7.466  16.640  0.00  0.00    +0.000 OA
ATOM      4  N   UNL     1       3.709   6.419  18.514  0.00  0.00    +0.000 N 
ATOM      5  C   UNL     1       2.770   7.352  18.889  0.00  0.00    +0.000 A 
ATOM      6  N   UNL     1       2.232   7.348  20.086  0.00  0.00    +0.000 NA
ATOM      7  C   UNL     1       1.352   8.419  20.201  0.00  0.00    +0.000 A 
ATOM      8  C   UNL     1       0.635   8.793  21.356  0.00  0.00    +0.000 A 
ATOM      9  C   UNL     1      -0.207   9.913  21.321  0.00  0.00    +0.000 A 
ATOM     10  C   UNL     1      -0.352  10.652  20.152  0.00  0.00    +0.000 A 
ATOM     11  C   UNL     1       0.340  10.297  18.992  0.00  0.00    +0.000 A 
ATOM     12  C   UNL     1       1.192   9.183  19.044  0.00  0.00    +0.000 A 
ATOM     13  S   UNL     1       2.180   8.525  17.806  0.00  0.00    +0.000 S 
ATOM     14  H   UNL     1       3.850   5.692  19.204  0.00  0.00    +0.000 HD
ENDBRANCH   1   2
BRANCH   1  15
ATOM     15  S   UNL     1       4.570   4.017  16.240  0.00  0.00    +0.000 S 
BRANCH  15  20
ATOM     16  C   UNL     1       2.476   1.998  19.673  0.00  0.00    +0.000 C 
ATOM     17  C   UNL     1       1.726   2.466  18.446  0.00  0.00    +0.000 C 
ATOM     18  O   UNL     1       0.509   2.305  18.377  0.00  0.00    +0.000 OA
ATOM     19  N   UNL     1       2.406   3.049  17.410  0.00  0.00    +0.000 NA
ATOM     20  C   UNL     1       3.670   3.223  17.494  0.00  0.00    +0.000 C 
ATOM     21  N   UNL     1       4.442   2.869  18.542  0.00  0.00    +0.000 N 
ATOM     22  C   UNL     1       3.948   2.289  19.664  0.00  0.00    +0.000 C 
ATOM     23  O   UNL     1       4.693   2.010  20.600  0.00  0.00    +0.000 OA
ATOM     24  H   UNL     1       5.435   3.055  18.506  0.00  0.00    +0.000 HD
BRANCH  16  26
ATOM     25  C   UNL     1       2.003   3.991  21.230  0.00  0.00    +0.000 C 
ATOM     26  C   UNL     1       1.817   2.499  20.971  0.00  0.00    +0.000 C 
ENDBRANCH  16  26
ENDBRANCH  15  20
ENDBRANCH   1  15
TORSDOF 4
ENDMDL
MODEL 2
REMARK VINA RESULT:      -7.6      5.192      6.086
REMARK  Name = 
REMARK  5 active torsions:
REMARK  status: ('A' for Active; 'I' for Inactive)
REMARK    1  A    between atoms: C_1  and  C_2
REMARK    2  A    between atoms: C_2  and  C_3
REMARK    3  A    between atoms: C_7  and  S_8
REMARK    4  A    between atoms: S_8  and  C_9
REMARK    5  A    between atoms: C_9  and  C_10
REMARK                            x       y       z     vdW  Elec       q    Type
REMARK                         _______ _______ _______ _____ _____    ______ ____
ROOT
ATOM      1  C   UNL     1       7.431   6.030  18.522  0.00  0.00    +0.000 C 
ENDROOT
BRANCH   1   2
ATOM      2  C   UNL     1       7.850   7.419  18.055  0.00  0.00    +0.000 C 
ATOM      3  O   UNL     1       7.651   7.768  16.893  0.00  0.00    +0.000 OA
ATOM      4  N   UNL     1       8.474   8.168  19.031  0.00  0.00    +0.000 N 
ATOM      5  C   UNL     1       8.904   9.466  18.888  0.00  0.00    +0.000 A 
ATOM      6  N   UNL     1       9.735  10.017  19.741  0.00  0.00    +0.000 NA
ATOM      7  C   UNL     1      10.028  11.313  19.331  0.00  0.00    +0.000 A 
ATOM      8  C   UNL     1      10.935  12.201  19.945  0.00  0.00    +0.000 A 
ATOM      9  C   UNL     1      11.136  13.477  19.402  0.00  0.00    +0.000 A 
ATOM     10  C   UNL     1      10.437  13.881  18.269  0.00  0.00    +0.000 A 
ATOM     11  C   UNL     1       9.526  13.025  17.648  0.00  0.00    +0.000 A 
ATOM     12  C   UNL     1       9.346  11.744  18.191  0.00  0.00    +0.000 A 
ATOM     13  S   UNL     1       8.330  10.476  17.643  0.00  0.00    +0.000 S 
ATOM     14  H   UNL     1       8.774   7.739  19.897  0.00  0.00    +0.000 HD
ENDBRANCH   1   2
BRANCH   1  15
ATOM     15  S   UNL     1       6.878   5.021  17.108  0.00  0.00    +0.000 S 
BRANCH  15  20
ATOM     16  C   UNL     1       3.204   3.242  19.001  0.00  0.00    +0.000 C 
ATOM     17  C   UNL     1       3.114   4.236  17.865  0.00  0.00    +0.000 C 
ATOM     18  O   UNL     1       2.012   4.583  17.445  0.00  0.00    +0.000 OA
ATOM     19  N   UNL     1       4.257   4.731  17.296  0.00  0.00    +0.000 NA
ATOM     20  C   UNL     1       5.400   4.373  17.746  0.00  0.00    +0.000 C 
ATOM     21  N   UNL     1       5.606   3.514  18.765  0.00  0.00    +0.000 N 
ATOM     22  C   UNL     1       4.598   2.930  19.459  0.00  0.00    +0.000 C 
ATOM     23  O   UNL     1       4.843   2.173  20.395  0.00  0.00    +0.000 OA
ATOM     24  H   UNL     1       6.555   3.301  19.044  0.00  0.00    +0.000 HD
BRANCH  16  26
ATOM     25  C   UNL     1       2.505   5.080  20.659  0.00  0.00    +0.000 C 
ATOM     26  C   UNL     1       2.306   3.644  20.184  0.00  0.00    +0.000 C 
ENDBRANCH  16  26
ENDBRANCH  15  20
ENDBRANCH   1  15
TORSDOF 4
ENDMDL
MODEL 3
REMARK VINA RESULT:      -7.5      1.223      1.616
REMARK  Name = 
REMARK  5 active torsions:
REMARK  status: ('A' for Active; 'I' for Inactive)
REMARK    1  A    between atoms: C_1  and  C_2
REMARK    2  A    between atoms: C_2  and  C_3
REMARK    3  A    between atoms: C_7  and  S_8
REMARK    4  A    between atoms: S_8  and  C_9
REMARK    5  A    between atoms: C_9  and  C_10
REMARK                            x       y       z     vdW  Elec       q    Type
REMARK                         _______ _______ _______ _____ _____    ______ ____
ROOT
ATOM      1  C   UNL     1       5.244   5.753  17.392  0.00  0.00    +0.000 C 
ENDROOT
BRANCH   1   2
ATOM      2  C   UNL     1       4.109   6.341  18.222  0.00  0.00    +0.000 C 
ATOM      3  O   UNL     1       3.797   5.829  19.295  0.00  0.00    +0.000 OA
ATOM      4  N   UNL     1       3.496   7.427  17.632  0.00  0.00    +0.000 N 
ATOM      5  C   UNL     1       2.481   8.170  18.189  0.00  0.00    +0.000 A 
ATOM      6  N   UNL     1       1.754   8.994  17.472  0.00  0.00    +0.000 NA
ATOM      7  C   UNL     1       0.785   9.578  18.280  0.00  0.00    +0.000 A 
ATOM      8  C   UNL     1      -0.230  10.464  17.862  0.00  0.00    +0.000 A 
ATOM      9  C   UNL     1      -1.150  10.959  18.797  0.00  0.00    +0.000 A 
ATOM     10  C   UNL     1      -1.061  10.596  20.136  0.00  0.00    +0.000 A 
ATOM     11  C   UNL     1      -0.060   9.728  20.577  0.00  0.00    +0.000 A 
ATOM     12  C   UNL     1       0.844   9.226  19.629  0.00  0.00    +0.000 A 
ATOM     13  S   UNL     1       2.149   8.136  19.859  0.00  0.00    +0.000 S 
ATOM     14  H   UNL     1       3.681   7.662  16.665  0.00  0.00    +0.000 HD
ENDBRANCH   1   2
BRANCH   1  15
ATOM     15  S   UNL     1       4.634   4.385  16.354  0.00  0.00    +0.000 S 
BRANCH  15  20
ATOM     16  C   UNL     1       2.588   2.027  19.594  0.00  0.00    +0.000 C 
ATOM     17  C   UNL     1       1.821   2.618  18.432  0.00  0.00    +0.000 C 
ATOM     18  O   UNL     1       0.603   2.465  18.365  0.00  0.00    +0.000 OA
ATOM     19  N   UNL     1       2.486   3.303  17.451  0.00  0.00    +0.000 NA
ATOM     20  C   UNL     1       3.751   3.467  17.533  0.00  0.00    +0.000 C 
ATOM     21  N   UNL     1       4.538   3.009  18.528  0.00  0.00    +0.000 N 
ATOM     22  C   UNL     1       4.060   2.318  19.593  0.00  0.00    +0.000 C 
ATOM     23  O   UNL     1       4.818   1.944  20.484  0.00  0.00    +0.000 OA
ATOM     24  H   UNL     1       5.531   3.198  18.497  0.00  0.00    +0.000 HD
BRANCH  16  26
ATOM     25  C   UNL     1       1.943   3.889  21.249  0.00  0.00    +0.000 C 
ATOM     26  C   UNL     1       1.948   2.393  20.946  0.00  0.00    +0.000 C 
ENDBRANCH  16  26
ENDBRANCH  15  20
ENDBRANCH   1  15
TORSDOF 4
ENDMDL
MODEL 4
REMARK VINA RESULT:      -7.5      5.259      6.303
REMARK  Name = 
REMARK  5 active torsions:
REMARK  status: ('A' for Active; 'I' for Inactive)
REMARK    1  A    between atoms: C_1  and  C_2
REMARK    2  A    between atoms: C_2  and  C_3
REMARK    3  A    between atoms: C_7  and  S_8
REMARK    4  A    between atoms: S_8  and  C_9
REMARK    5  A    between atoms: C_9  and  C_10
REMARK                            x       y       z     vdW  Elec       q    Type
REMARK                         _______ _______ _______ _____ _____    ______ ____
ROOT
ATOM      1  C   UNL     1       7.650   6.030  18.692  0.00  0.00    +0.000 C 
ENDROOT
BRANCH   1   2
ATOM      2  C   UNL     1       7.992   7.424  18.181  0.00  0.00    +0.000 C 
ATOM      3  O   UNL     1       7.742   7.735  17.018  0.00  0.00    +0.000 OA
ATOM      4  N   UNL     1       8.609   8.224  19.120  0.00  0.00    +0.000 N 
ATOM      5  C   UNL     1       8.976   9.536  18.933  0.00  0.00    +0.000 A 
ATOM      6  N   UNL     1       9.806  10.144  19.747  0.00  0.00    +0.000 NA
ATOM      7  C   UNL     1      10.026  11.441  19.299  0.00  0.00    +0.000 A 
ATOM      8  C   UNL     1      10.910  12.384  19.864  0.00  0.00    +0.000 A 
ATOM      9  C   UNL     1      11.036  13.655  19.286  0.00  0.00    +0.000 A 
ATOM     10  C   UNL     1      10.286  13.999  18.166  0.00  0.00    +0.000 A 
ATOM     11  C   UNL     1       9.397  13.088  17.593  0.00  0.00    +0.000 A 
ATOM     12  C   UNL     1       9.293  11.814  18.171  0.00  0.00    +0.000 A 
ATOM     13  S   UNL     1       8.319  10.488  17.684  0.00  0.00    +0.000 S 
ATOM     14  H   UNL     1       8.955   7.830  19.986  0.00  0.00    +0.000 HD
ENDBRANCH   1   2
BRANCH   1  15
ATOM     15  S   UNL     1       7.221   4.928  17.305  0.00  0.00    +0.000 S 
BRANCH  15  20
ATOM     16  C   UNL     1       2.789   4.397  17.875  0.00  0.00    +0.000 C 
ATOM     17  C   UNL     1       3.430   5.766  17.842  0.00  0.00    +0.000 C 
ATOM     18  O   UNL     1       2.734   6.769  17.984  0.00  0.00    +0.000 OA
ATOM     19  N   UNL     1       4.779   5.885  17.636  0.00  0.00    +0.000 NA
ATOM     20  C   UNL     1       5.499   4.837  17.500  0.00  0.00    +0.000 C 
ATOM     21  N   UNL     1       5.046   3.567  17.534  0.00  0.00    +0.000 N 
ATOM     22  C   UNL     1       3.744   3.248  17.738  0.00  0.00    +0.000 C 
ATOM     23  O   UNL     1       3.390   2.072  17.784  0.00  0.00    +0.000 OA
ATOM     24  H   UNL     1       5.704   2.808  17.418  0.00  0.00    +0.000 HD
BRANCH  16  26
ATOM     25  C   UNL     1       2.607   4.339  20.441  0.00  0.00    +0.000 C 
ATOM     26  C   UNL     1       1.880   4.222  19.105  0.00  0.00    +0.000 C 
ENDBRANCH  16  26
ENDBRANCH  15  20
ENDBRANCH   1  15
TORSDOF 4
ENDMDL
MODEL 5
REMARK VINA RESULT:      -7.4      5.694      6.702
REMARK  Name = 
REMARK  5 active torsions:
REMARK  status: ('A' for Active; 'I' for Inactive)
REMARK    1  A    between atoms: C_1  and  C_2
REMARK    2  A    between atoms: C_2  and  C_3
REMARK    3  A    between atoms: C_7  and  S_8
REMARK    4  A    between atoms: S_8  and  C_9
REMARK    5  A    between atoms: C_9  and  C_10
REMARK                            x       y       z     vdW  Elec       q    Type
REMARK                         _______ _______ _______ _____ _____    ______ ____
ROOT
ATOM      1  C   UNL     1       7.847   6.693  18.657  0.00  0.00    +0.000 C 
ENDROOT
BRANCH   1   2
ATOM      2  C   UNL     1       8.191   8.109  18.214  0.00  0.00    +0.000 C 
ATOM      3  O   UNL     1       7.874   8.502  17.093  0.00  0.00    +0.000 OA
ATOM      4  N   UNL     1       8.891   8.832  19.158  0.00  0.00    +0.000 N 
ATOM      5  C   UNL     1       9.279  10.145  19.032  0.00  0.00    +0.000 A 
ATOM      6  N   UNL     1      10.177  10.680  19.825  0.00  0.00    +0.000 NA
ATOM      7  C   UNL     1      10.402  11.998  19.447  0.00  0.00    +0.000 A 
ATOM      8  C   UNL     1      11.346  12.882  20.010  0.00  0.00    +0.000 A 
ATOM      9  C   UNL     1      11.468  14.184  19.507  0.00  0.00    +0.000 A 
ATOM     10  C   UNL     1      10.655  14.618  18.465  0.00  0.00    +0.000 A 
ATOM     11  C   UNL     1       9.706  13.766  17.896  0.00  0.00    +0.000 A 
ATOM     12  C   UNL     1       9.606  12.460  18.397  0.00  0.00    +0.000 A 
ATOM     13  S   UNL     1       8.567  11.192  17.894  0.00  0.00    +0.000 S 
ATOM     14  H   UNL     1       9.282   8.374  19.972  0.00  0.00    +0.000 HD
ENDBRANCH   1   2
BRANCH   1  15
ATOM     15  S   UNL     1       6.980   5.800  17.325  0.00  0.00    +0.000 S 
BRANCH  15  20
ATOM     16  C   UNL     1       3.336   4.281  19.485  0.00  0.00    +0.000 C 
ATOM     17  C   UNL     1       4.628   3.496  19.451  0.00  0.00    +0.000 C 
ATOM     18  O   UNL     1       4.694   2.406  20.017  0.00  0.00    +0.000 OA
ATOM     19  N   UNL     1       5.723   4.007  18.808  0.00  0.00    +0.000 NA
ATOM     20  C   UNL     1       5.644   5.136  18.212  0.00  0.00    +0.000 C 
ATOM     21  N   UNL     1       4.544   5.916  18.155  0.00  0.00    +0.000 N 
ATOM     22  C   UNL     1       3.361   5.572  18.721  0.00  0.00    +0.000 C 
ATOM     23  O   UNL     1       2.383   6.309  18.617  0.00  0.00    +0.000 OA
ATOM     24  H   UNL     1       4.589   6.792  17.653  0.00  0.00    +0.000 HD
BRANCH  16  26
ATOM     25  C   UNL     1       1.148   3.138  20.210  0.00  0.00    +0.000 C 
ATOM     26  C   UNL     1       2.131   3.415  19.076  0.00  0.00    +0.000 C 
ENDBRANCH  16  26
ENDBRANCH  15  20
ENDBRANCH   1  15
TORSDOF 4
ENDMDL
MODEL 6
REMARK VINA RESULT:      -7.4      2.222      4.426
REMARK  Name = 
REMARK  5 active torsions:
REMARK  status: ('A' for Active; 'I' for Inactive)
REMARK    1  A    between atoms: C_1  and  C_2
REMARK    2  A    between atoms: C_2  and  C_3
REMARK    3  A    between atoms: C_7  and  S_8
REMARK    4  A    between atoms: S_8  and  C_9
REMARK    5  A    between atoms: C_9  and  C_10
REMARK                            x       y       z     vdW  Elec       q    Type
REMARK                         _______ _______ _______ _____ _____    ______ ____
ROOT
ATOM      1  C   UNL     1       2.951   3.468  19.160  0.00  0.00    +0.000 C 
ENDROOT
BRANCH   1   2
ATOM      2  C   UNL     1       2.231   4.707  19.677  0.00  0.00    +0.000 C 
ATOM      3  O   UNL     1       1.425   4.615  20.601  0.00  0.00    +0.000 OA
ATOM      4  N   UNL     1       2.552   5.862  18.993  0.00  0.00    +0.000 N 
ATOM      5  C   UNL     1       2.083   7.120  19.287  0.00  0.00    +0.000 A 
ATOM      6  N   UNL     1       2.193   8.115  18.439  0.00  0.00    +0.000 NA
ATOM      7  C   UNL     1       1.602   9.252  18.979  0.00  0.00    +0.000 A 
ATOM      8  C   UNL     1       1.455  10.502  18.343  0.00  0.00    +0.000 A 
ATOM      9  C   UNL     1       0.819  11.555  19.015  0.00  0.00    +0.000 A 
ATOM     10  C   UNL     1       0.344  11.381  20.311  0.00  0.00    +0.000 A 
ATOM     11  C   UNL     1       0.485  10.156  20.966  0.00  0.00    +0.000 A 
ATOM     12  C   UNL     1       1.108   9.106  20.277  0.00  0.00    +0.000 A 
ATOM     13  S   UNL     1       1.401   7.499  20.801  0.00  0.00    +0.000 S 
ATOM     14  H   UNL     1       3.069   5.819  18.124  0.00  0.00    +0.000 HD
ENDBRANCH   1   2
BRANCH   1  15
ATOM     15  S   UNL     1       3.487   3.714  17.435  0.00  0.00    +0.000 S 
BRANCH  15  20
ATOM     16  C   UNL     1       7.543   5.627  17.810  0.00  0.00    +0.000 C 
ATOM     17  C   UNL     1       6.735   5.226  19.024  0.00  0.00    +0.000 C 
ATOM     18  O   UNL     1       7.183   5.432  20.150  0.00  0.00    +0.000 OA
ATOM     19  N   UNL     1       5.518   4.619  18.866  0.00  0.00    +0.000 NA
ATOM     20  C   UNL     1       5.053   4.417  17.692  0.00  0.00    +0.000 C 
ATOM     21  N   UNL     1       5.668   4.750  16.538  0.00  0.00    +0.000 N 
ATOM     22  C   UNL     1       6.874   5.369  16.492  0.00  0.00    +0.000 C 
ATOM     23  O   UNL     1       7.378   5.672  15.414  0.00  0.00    +0.000 OA
ATOM     24  H   UNL     1       5.209   4.548  15.661  0.00  0.00    +0.000 HD
BRANCH  16  26
ATOM     25  C   UNL     1       6.979   8.125  17.563  0.00  0.00    +0.000 C 
ATOM     26  C   UNL     1       8.037   7.082  17.909  0.00  0.00    +0.000 C 
ENDBRANCH  16  26
ENDBRANCH  15  20
ENDBRANCH   1  15
TORSDOF 4
ENDMDL
MODEL 7
REMARK VINA RESULT:      -7.2      3.838      8.053
REMARK  Name = 
REMARK  5 active torsions:
REMARK  status: ('A' for Active; 'I' for Inactive)
REMARK    1  A    between atoms: C_1  and  C_2
REMARK    2  A    between atoms: C_2  and  C_3
REMARK    3  A    between atoms: C_7  and  S_8
REMARK    4  A    between atoms: S_8  and  C_9
REMARK    5  A    between atoms: C_9  and  C_10
REMARK                            x       y       z     vdW  Elec       q    Type
REMARK                         _______ _______ _______ _____ _____    ______ ____
ROOT
ATOM      1  C   UNL     1       1.689  10.162  18.075  0.00  0.00    +0.000 C 
ENDROOT
BRANCH   1   2
ATOM      2  C   UNL     1       2.213   8.731  18.084  0.00  0.00    +0.000 C 
ATOM      3  O   UNL     1       2.774   8.271  17.092  0.00  0.00    +0.000 OA
ATOM      4  N   UNL     1       1.958   8.055  19.259  0.00  0.00    +0.000 N 
ATOM      5  C   UNL     1       2.365   6.773  19.546  0.00  0.00    +0.000 A 
ATOM      6  N   UNL     1       1.853   6.093  20.545  0.00  0.00    +0.000 NA
ATOM      7  C   UNL     1       2.417   4.822  20.577  0.00  0.00    +0.000 A 
ATOM      8  C   UNL     1       2.075   3.776  21.458  0.00  0.00    +0.000 A 
ATOM      9  C   UNL     1       2.725   2.539  21.356  0.00  0.00    +0.000 A 
ATOM     10  C   UNL     1       3.716   2.338  20.401  0.00  0.00    +0.000 A 
ATOM     11  C   UNL     1       4.080   3.360  19.522  0.00  0.00    +0.000 A 
ATOM     12  C   UNL     1       3.410   4.589  19.624  0.00  0.00    +0.000 A 
ATOM     13  S   UNL     1       3.615   6.007  18.682  0.00  0.00    +0.000 S 
ATOM     14  H   UNL     1       1.322   8.437  19.947  0.00  0.00    +0.000 HD
ENDBRANCH   1   2
BRANCH   1  15
ATOM     15  S   UNL     1       0.850  10.545  19.648  0.00  0.00    +0.000 S 
BRANCH  15  20
ATOM     16  C   UNL     1      -3.171  11.561  17.902  0.00  0.00    +0.000 C 
ATOM     17  C   UNL     1      -2.776  11.989  19.298  0.00  0.00    +0.000 C 
ATOM     18  O   UNL     1      -3.571  12.623  19.989  0.00  0.00    +0.000 OA
ATOM     19  N   UNL     1      -1.531  11.686  19.781  0.00  0.00    +0.000 NA
ATOM     20  C   UNL     1      -0.714  11.016  19.061  0.00  0.00    +0.000 C 
ATOM     21  N   UNL     1      -0.958  10.562  17.814  0.00  0.00    +0.000 N 
ATOM     22  C   UNL     1      -2.138  10.754  17.173  0.00  0.00    +0.000 C 
ATOM     23  O   UNL     1      -2.316  10.297  16.047  0.00  0.00    +0.000 OA
ATOM     24  H   UNL     1      -0.240  10.038  17.332  0.00  0.00    +0.000 HD
BRANCH  16  26
ATOM     25  C   UNL     1      -5.649  11.670  17.222  0.00  0.00    +0.000 C 
ATOM     26  C   UNL     1      -4.541  10.859  17.886  0.00  0.00    +0.000 C 
ENDBRANCH  16  26
ENDBRANCH  15  20
ENDBRANCH   1  15
TORSDOF 4
ENDMDL
MODEL 8
REMARK VINA RESULT:      -7.1      5.187      5.996
REMARK  Name = 
REMARK  5 active torsions:
REMARK  status: ('A' for Active; 'I' for Inactive)
REMARK    1  A    between atoms: C_1  and  C_2
REMARK    2  A    between atoms: C_2  and  C_3
REMARK    3  A    between atoms: C_7  and  S_8
REMARK    4  A    between atoms: S_8  and  C_9
REMARK    5  A    between atoms: C_9  and  C_10
REMARK                            x       y       z     vdW  Elec       q    Type
REMARK                         _______ _______ _______ _____ _____    ______ ____
ROOT
ATOM      1  C   UNL     1       7.152   6.566  16.874  0.00  0.00    +0.000 C 
ENDROOT
BRANCH   1   2
ATOM      2  C   UNL     1       7.793   7.572  17.823  0.00  0.00    +0.000 C 
ATOM      3  O   UNL     1       8.205   7.209  18.922  0.00  0.00    +0.000 OA
ATOM      4  N   UNL     1       7.813   8.862  17.333  0.00  0.00    +0.000 N 
ATOM      5  C   UNL     1       8.376   9.946  17.965  0.00  0.00    +0.000 A 
ATOM      6  N   UNL     1       8.113  11.176  17.592  0.00  0.00    +0.000 NA
ATOM      7  C   UNL     1       8.783  12.065  18.424  0.00  0.00    +0.000 A 
ATOM      8  C   UNL     1       8.698  13.473  18.389  0.00  0.00    +0.000 A 
ATOM      9  C   UNL     1       9.425  14.238  19.310  0.00  0.00    +0.000 A 
ATOM     10  C   UNL     1      10.243  13.622  20.251  0.00  0.00    +0.000 A 
ATOM     11  C   UNL     1      10.352  12.230  20.302  0.00  0.00    +0.000 A 
ATOM     12  C   UNL     1       9.606  11.475  19.385  0.00  0.00    +0.000 A 
ATOM     13  S   UNL     1       9.514   9.770  19.219  0.00  0.00    +0.000 S 
ATOM     14  H   UNL     1       7.279   9.109  16.510  0.00  0.00    +0.000 HD
ENDBRANCH   1   2
BRANCH   1  15
ATOM     15  S   UNL     1       7.356   4.869  17.509  0.00  0.00    +0.000 S 
BRANCH  15  20
ATOM     16  C   UNL     1       3.317   3.885  19.228  0.00  0.00    +0.000 C 
ATOM     17  C   UNL     1       3.515   5.035  18.266  0.00  0.00    +0.000 C 
ATOM     18  O   UNL     1       2.556   5.734  17.946  0.00  0.00    +0.000 OA
ATOM     19  N   UNL     1       4.755   5.282  17.742  0.00  0.00    +0.000 NA
ATOM     20  C   UNL     1       5.751   4.558  18.089  0.00  0.00    +0.000 C 
ATOM     21  N   UNL     1       5.703   3.522  18.952  0.00  0.00    +0.000 N 
ATOM     22  C   UNL     1       4.566   3.133  19.581  0.00  0.00    +0.000 C 
ATOM     23  O   UNL     1       4.584   2.198  20.377  0.00  0.00    +0.000 OA
ATOM     24  H   UNL     1       6.553   3.016  19.160  0.00  0.00    +0.000 HD
BRANCH  16  26
ATOM     25  C   UNL     1       1.268   3.541  20.746  0.00  0.00    +0.000 C 
ATOM     26  C   UNL     1       2.554   4.322  20.492  0.00  0.00    +0.000 C 
ENDBRANCH  16  26
ENDBRANCH  15  20
ENDBRANCH   1  15
TORSDOF 4
ENDMDL
MODEL 9
REMARK VINA RESULT:      -7.1      1.993      4.098
REMARK  Name = 
REMARK  5 active torsions:
REMARK  status: ('A' for Active; 'I' for Inactive)
REMARK    1  A    between atoms: C_1  and  C_2
REMARK    2  A    between atoms: C_2  and  C_3
REMARK    3  A    between atoms: C_7  and  S_8
REMARK    4  A    between atoms: S_8  and  C_9
REMARK    5  A    between atoms: C_9  and  C_10
REMARK                            x       y       z     vdW  Elec       q    Type
REMARK                         _______ _______ _______ _____ _____    ______ ____
ROOT
ATOM      1  C   UNL     1       2.334   2.317  17.927  0.00  0.00    +0.000 C 
ENDROOT
BRANCH   1   2
ATOM      2  C   UNL     1       1.924   3.496  18.801  0.00  0.00    +0.000 C 
ATOM      3  O   UNL     1       1.369   3.302  19.881  0.00  0.00    +0.000 OA
ATOM      4  N   UNL     1       2.205   4.725  18.242  0.00  0.00    +0.000 N 
ATOM      5  C   UNL     1       1.983   5.943  18.840  0.00  0.00    +0.000 A 
ATOM      6  N   UNL     1       2.000   7.063  18.156  0.00  0.00    +0.000 NA
ATOM      7  C   UNL     1       1.708   8.127  19.002  0.00  0.00    +0.000 A 
ATOM      8  C   UNL     1       1.563   9.479  18.628  0.00  0.00    +0.000 A 
ATOM      9  C   UNL     1       1.249  10.440  19.598  0.00  0.00    +0.000 A 
ATOM     10  C   UNL     1       1.094  10.074  20.931  0.00  0.00    +0.000 A 
ATOM     11  C   UNL     1       1.241   8.744  21.329  0.00  0.00    +0.000 A 
ATOM     12  C   UNL     1       1.539   7.789  20.346  0.00  0.00    +0.000 A 
ATOM     13  S   UNL     1       1.752   6.096  20.520  0.00  0.00    +0.000 S 
ATOM     14  H   UNL     1       2.480   4.799  17.271  0.00  0.00    +0.000 HD
ENDBRANCH   1   2
BRANCH   1  15
ATOM     15  S   UNL     1       4.107   1.948  18.143  0.00  0.00    +0.000 S 
BRANCH  15  20
ATOM     16  C   UNL     1       6.048   5.982  17.694  0.00  0.00    +0.000 C 
ATOM     17  C   UNL     1       5.242   5.357  16.578  0.00  0.00    +0.000 C 
ATOM     18  O   UNL     1       5.116   5.952  15.510  0.00  0.00    +0.000 OA
ATOM     19  N   UNL     1       4.642   4.140  16.766  0.00  0.00    +0.000 NA
ATOM     20  C   UNL     1       4.788   3.522  17.876  0.00  0.00    +0.000 C 
ATOM     21  N   UNL     1       5.499   3.966  18.933  0.00  0.00    +0.000 N 
ATOM     22  C   UNL     1       6.172   5.143  18.932  0.00  0.00    +0.000 C 
ATOM     23  O   UNL     1       6.824   5.489  19.914  0.00  0.00    +0.000 OA
ATOM     24  H   UNL     1       5.551   3.395  19.765  0.00  0.00    +0.000 HD
BRANCH  16  26
ATOM     25  C   UNL     1       7.801   7.865  17.665  0.00  0.00    +0.000 C 
ATOM     26  C   UNL     1       7.427   6.460  17.204  0.00  0.00    +0.000 C 
ENDBRANCH  16  26
ENDBRANCH  15  20
ENDBRANCH   1  15
TORSDOF 4
ENDMDL
