MODEL 1
REMARK VINA RESULT:      -7.8      0.000      0.000
REMARK  Name = 
REMARK  5 active torsions:
REMARK  status: ('A' for Active; 'I' for Inactive)
REMARK    1  A    between atoms: C_2  and  C_3
REMARK    2  A    between atoms: C_6  and  N_7
REMARK    3  A    between atoms: N_7  and  C_8
REMARK    4  A    between atoms: C_8  and  N_10
REMARK    5  A    between atoms: N_10  and  C_11
REMARK                            x       y       z     vdW  Elec       q    Type
REMARK                         _______ _______ _______ _____ _____    ______ ____
ROOT
ATOM      1  N   UNL     1       2.904   6.119  20.370  0.00  0.00    +0.000 N 
ATOM      2  H   UNL     1       3.616   6.228  21.081  0.00  0.00    +0.000 HD
ENDROOT
BRANCH   1   6
ATOM      3  C   UNL     1       0.795   9.573  19.281  0.00  0.00    +0.000 A 
ATOM      4  C   UNL     1       1.569   8.897  18.333  0.00  0.00    +0.000 A 
ATOM      5  C   UNL     1       2.245   7.727  18.700  0.00  0.00    +0.000 A 
ATOM      6  C   UNL     1       2.184   7.269  20.020  0.00  0.00    +0.000 A 
ATOM      7  C   UNL     1       1.326   7.889  20.930  0.00  0.00    +0.000 A 
ATOM      8  C   UNL     1       0.608   9.013  20.546  0.00  0.00    +0.000 A 
BRANCH   3  10
ATOM      9  O   UNL     1       0.690  11.906  19.325  0.00  0.00    +0.000 OA
ATOM     10  C   UNL     1       0.158  10.869  18.935  0.00  0.00    +0.000 C 
ATOM     11  N   UNL     1      -1.022  10.841  18.200  0.00  0.00    +0.000 N 
ATOM     12  C   UNL     1      -1.670  12.072  17.785  0.00  0.00    +0.000 C 
ATOM     13  C   UNL     1      -3.155  11.763  17.891  0.00  0.00    +0.000 C 
ATOM     14  C   UNL     1      -3.227  10.292  17.513  0.00  0.00    +0.000 C 
ATOM     15  C   UNL     1      -1.946   9.712  18.097  0.00  0.00    +0.000 C 
ENDBRANCH   3  10
ENDBRANCH   1   6
BRANCH   1  16
ATOM     16  C   UNL     1       2.653   4.805  20.029  0.00  0.00    +0.000 C 
ATOM     17  S   UNL     1       1.197   3.994  20.142  0.00  0.00    +0.000 S 
BRANCH  16  18
ATOM     18  N   UNL     1       3.787   4.095  19.700  0.00  0.00    +0.000 N 
ATOM     19  H   UNL     1       3.922   3.218  20.196  0.00  0.00    +0.000 HD
BRANCH  18  20
ATOM     20  C   UNL     1       4.589   4.320  18.565  0.00  0.00    +0.000 A 
ATOM     21  C   UNL     1       4.306   3.618  17.397  0.00  0.00    +0.000 A 
ATOM     22  C   UNL     1       5.092   3.819  16.258  0.00  0.00    +0.000 A 
ATOM     23  C   UNL     1       6.123   4.762  16.266  0.00  0.00    +0.000 A 
ATOM     24 CL   UNL     1       7.038   4.975  14.818  0.00  0.00    +0.000 Cl
ATOM     25  C   UNL     1       6.380   5.498  17.426  0.00  0.00    +0.000 A 
ATOM     26 CL   UNL     1       7.600   6.716  17.508  0.00  0.00    +0.000 Cl
ATOM     27  C   UNL     1       5.619   5.267  18.575  0.00  0.00    +0.000 A 
ENDBRANCH  18  20
ENDBRANCH  16  18
ENDBRANCH   1  16
TORSDOF 5
ENDMDL
MODEL 2
REMARK VINA RESULT:      -7.8      1.289      2.197
REMARK  Name = 
REMARK  5 active torsions:
REMARK  status: ('A' for Active; 'I' for Inactive)
REMARK    1  A    between atoms: C_2  and  C_3
REMARK    2  A    between atoms: C_6  and  N_7
REMARK    3  A    between atoms: N_7  and  C_8
REMARK    4  A    between atoms: C_8  and  N_10
REMARK    5  A    between atoms: N_10  and  C_11
REMARK                            x       y       z     vdW  Elec       q    Type
REMARK                         _______ _______ _______ _____ _____    ______ ____
ROOT
ATOM      1  N   UNL     1       2.753   6.138  20.448  0.00  0.00    +0.000 N 
ATOM      2  H   UNL     1       3.333   6.228  21.273  0.00  0.00    +0.000 HD
ENDROOT
BRANCH   1   6
ATOM      3  C   UNL     1       0.754   9.595  19.176  0.00  0.00    +0.000 A 
ATOM      4  C   UNL     1       0.637   9.167  20.503  0.00  0.00    +0.000 A 
ATOM      5  C   UNL     1       1.334   8.027  20.924  0.00  0.00    +0.000 A 
ATOM      6  C   UNL     1       2.100   7.298  20.009  0.00  0.00    +0.000 A 
ATOM      7  C   UNL     1       2.293   7.791  18.718  0.00  0.00    +0.000 A 
ATOM      8  C   UNL     1       1.652   8.955  18.320  0.00  0.00    +0.000 A 
BRANCH   3  10
ATOM      9  O   UNL     1      -0.958  10.516  17.881  0.00  0.00    +0.000 OA
ATOM     10  C   UNL     1      -0.060  10.738  18.690  0.00  0.00    +0.000 C 
ATOM     11  N   UNL     1       0.250  12.008  19.163  0.00  0.00    +0.000 N 
ATOM     12  C   UNL     1      -0.536  13.162  18.767  0.00  0.00    +0.000 C 
ATOM     13  C   UNL     1       0.485  14.283  18.648  0.00  0.00    +0.000 C 
ATOM     14  C   UNL     1       1.490  13.949  19.739  0.00  0.00    +0.000 C 
ATOM     15  C   UNL     1       1.532  12.427  19.730  0.00  0.00    +0.000 C 
ENDBRANCH   3  10
ENDBRANCH   1   6
BRANCH   1  16
ATOM     16  C   UNL     1       2.568   4.834  20.038  0.00  0.00    +0.000 C 
ATOM     17  S   UNL     1       1.134   3.975  20.021  0.00  0.00    +0.000 S 
BRANCH  16  18
ATOM     18  N   UNL     1       3.742   4.172  19.755  0.00  0.00    +0.000 N 
ATOM     19  H   UNL     1       3.917   3.326  20.292  0.00  0.00    +0.000 HD
BRANCH  18  20
ATOM     20  C   UNL     1       4.548   4.390  18.621  0.00  0.00    +0.000 A 
ATOM     21  C   UNL     1       4.256   3.697  17.450  0.00  0.00    +0.000 A 
ATOM     22  C   UNL     1       5.045   3.891  16.312  0.00  0.00    +0.000 A 
ATOM     23  C   UNL     1       6.089   4.820  16.324  0.00  0.00    +0.000 A 
ATOM     24 CL   UNL     1       7.007   5.025  14.878  0.00  0.00    +0.000 Cl
ATOM     25  C   UNL     1       6.356   5.547  17.488  0.00  0.00    +0.000 A 
ATOM     26 CL   UNL     1       7.594   6.747  17.575  0.00  0.00    +0.000 Cl
ATOM     27  C   UNL     1       5.592   5.322  18.635  0.00  0.00    +0.000 A 
ENDBRANCH  18  20
ENDBRANCH  16  18
ENDBRANCH   1  16
TORSDOF 5
ENDMDL
MODEL 3
REMARK VINA RESULT:      -7.7      0.457      1.066
REMARK  Name = 
REMARK  5 active torsions:
REMARK  status: ('A' for Active; 'I' for Inactive)
REMARK    1  A    between atoms: C_2  and  C_3
REMARK    2  A    between atoms: C_6  and  N_7
REMARK    3  A    between atoms: N_7  and  C_8
REMARK    4  A    between atoms: C_8  and  N_10
REMARK    5  A    between atoms: N_10  and  C_11
REMARK                            x       y       z     vdW  Elec       q    Type
REMARK                         _______ _______ _______ _____ _____    ______ ____
ROOT
ATOM      1  N   UNL     1       2.915   6.251  20.091  0.00  0.00    +0.000 N 
ATOM      2  H   UNL     1       3.790   6.357  20.591  0.00  0.00    +0.000 HD
ENDROOT
BRANCH   1   6
ATOM      3  C   UNL     1       0.669   9.729  19.440  0.00  0.00    +0.000 A 
ATOM      4  C   UNL     1       0.668   9.120  20.699  0.00  0.00    +0.000 A 
ATOM      5  C   UNL     1       1.446   7.975  20.913  0.00  0.00    +0.000 A 
ATOM      6  C   UNL     1       2.179   7.421  19.859  0.00  0.00    +0.000 A 
ATOM      7  C   UNL     1       2.256   8.094  18.639  0.00  0.00    +0.000 A 
ATOM      8  C   UNL     1       1.534   9.263  18.448  0.00  0.00    +0.000 A 
BRANCH   3  10
ATOM      9  O   UNL     1      -0.193  11.843  19.931  0.00  0.00    +0.000 OA
ATOM     10  C   UNL     1      -0.230  10.879  19.170  0.00  0.00    +0.000 C 
ATOM     11  N   UNL     1      -1.086  10.796  18.077  0.00  0.00    +0.000 N 
ATOM     12  C   UNL     1      -1.956  11.904  17.727  0.00  0.00    +0.000 C 
ATOM     13  C   UNL     1      -3.229  11.233  17.233  0.00  0.00    +0.000 C 
ATOM     14  C   UNL     1      -2.712   9.974  16.556  0.00  0.00    +0.000 C 
ATOM     15  C   UNL     1      -1.527   9.566  17.420  0.00  0.00    +0.000 C 
ENDBRANCH   3  10
ENDBRANCH   1   6
BRANCH   1  16
ATOM     16  C   UNL     1       2.532   4.938  19.911  0.00  0.00    +0.000 C 
ATOM     17  S   UNL     1       1.052   4.259  20.286  0.00  0.00    +0.000 S 
BRANCH  16  18
ATOM     18  N   UNL     1       3.559   4.114  19.508  0.00  0.00    +0.000 N 
ATOM     19  H   UNL     1       3.551   3.172  19.891  0.00  0.00    +0.000 HD
BRANCH  18  20
ATOM     20  C   UNL     1       4.419   4.355  18.420  0.00  0.00    +0.000 A 
ATOM     21  C   UNL     1       4.140   3.746  17.199  0.00  0.00    +0.000 A 
ATOM     22  C   UNL     1       4.982   3.966  16.105  0.00  0.00    +0.000 A 
ATOM     23  C   UNL     1       6.070   4.837  16.210  0.00  0.00    +0.000 A 
ATOM     24 CL   UNL     1       7.053   5.078  14.813  0.00  0.00    +0.000 Cl
ATOM     25  C   UNL     1       6.325   5.481  17.424  0.00  0.00    +0.000 A 
ATOM     26 CL   UNL     1       7.617   6.608  17.628  0.00  0.00    +0.000 Cl
ATOM     27  C   UNL     1       5.506   5.229  18.527  0.00  0.00    +0.000 A 
ENDBRANCH  18  20
ENDBRANCH  16  18
ENDBRANCH   1  16
TORSDOF 5
ENDMDL
MODEL 4
REMARK VINA RESULT:      -7.6      4.162      8.193
REMARK  Name = 
REMARK  5 active torsions:
REMARK  status: ('A' for Active; 'I' for Inactive)
REMARK    1  A    between atoms: C_2  and  C_3
REMARK    2  A    between atoms: C_6  and  N_7
REMARK    3  A    between atoms: N_7  and  C_8
REMARK    4  A    between atoms: C_8  and  N_10
REMARK    5  A    between atoms: N_10  and  C_11
REMARK                            x       y       z     vdW  Elec       q    Type
REMARK                         _______ _______ _______ _____ _____    ______ ____
ROOT
ATOM      1  N   UNL     1       4.458   5.416  19.316  0.00  0.00    +0.000 N 
ATOM      2  H   UNL     1       4.992   5.670  20.139  0.00  0.00    +0.000 HD
ENDROOT
BRANCH   1   6
ATOM      3  C   UNL     1       6.518   5.193  15.673  0.00  0.00    +0.000 A 
ATOM      4  C   UNL     1       5.469   6.105  15.830  0.00  0.00    +0.000 A 
ATOM      5  C   UNL     1       4.808   6.191  17.061  0.00  0.00    +0.000 A 
ATOM      6  C   UNL     1       5.164   5.336  18.108  0.00  0.00    +0.000 A 
ATOM      7  C   UNL     1       6.278   4.506  17.977  0.00  0.00    +0.000 A 
ATOM      8  C   UNL     1       6.972   4.466  16.775  0.00  0.00    +0.000 A 
BRANCH   3  10
ATOM      9  O   UNL     1       8.161   5.676  14.085  0.00  0.00    +0.000 OA
ATOM     10  C   UNL     1       7.157   5.016  14.345  0.00  0.00    +0.000 C 
ATOM     11  N   UNL     1       6.572   4.124  13.452  0.00  0.00    +0.000 N 
ATOM     12  C   UNL     1       7.173   3.868  12.156  0.00  0.00    +0.000 C 
ATOM     13  C   UNL     1       5.983   3.691  11.225  0.00  0.00    +0.000 C 
ATOM     14  C   UNL     1       4.946   3.027  12.116  0.00  0.00    +0.000 C 
ATOM     15  C   UNL     1       5.183   3.668  13.476  0.00  0.00    +0.000 C 
ENDBRANCH   3  10
ENDBRANCH   1   6
BRANCH   1  16
ATOM     16  C   UNL     1       3.094   5.395  19.523  0.00  0.00    +0.000 C 
ATOM     17  S   UNL     1       1.969   4.441  18.737  0.00  0.00    +0.000 S 
BRANCH  16  18
ATOM     18  N   UNL     1       2.649   6.380  20.377  0.00  0.00    +0.000 N 
ATOM     19  H   UNL     1       2.984   6.323  21.335  0.00  0.00    +0.000 HD
BRANCH  18  20
ATOM     20  C   UNL     1       2.035   7.584  19.983  0.00  0.00    +0.000 A 
ATOM     21  C   UNL     1       2.168   8.001  18.661  0.00  0.00    +0.000 A 
ATOM     22  C   UNL     1       1.573   9.196  18.247  0.00  0.00    +0.000 A 
ATOM     23  C   UNL     1       0.797   9.947  19.134  0.00  0.00    +0.000 A 
ATOM     24 CL   UNL     1       0.073  11.400  18.548  0.00  0.00    +0.000 Cl
ATOM     25  C   UNL     1       0.628   9.506  20.450  0.00  0.00    +0.000 A 
ATOM     26 CL   UNL     1      -0.353  10.345  21.596  0.00  0.00    +0.000 Cl
ATOM     27  C   UNL     1       1.257   8.333  20.872  0.00  0.00    +0.000 A 
ENDBRANCH  18  20
ENDBRANCH  16  18
ENDBRANCH   1  16
TORSDOF 5
ENDMDL
MODEL 5
REMARK VINA RESULT:      -7.6      4.580      8.468
REMARK  Name = 
REMARK  5 active torsions:
REMARK  status: ('A' for Active; 'I' for Inactive)
REMARK    1  A    between atoms: C_2  and  C_3
REMARK    2  A    between atoms: C_6  and  N_7
REMARK    3  A    between atoms: N_7  and  C_8
REMARK    4  A    between atoms: C_8  and  N_10
REMARK    5  A    between atoms: N_10  and  C_11
REMARK                            x       y       z     vdW  Elec       q    Type
REMARK                         _______ _______ _______ _____ _____    ______ ____
ROOT
ATOM      1  N   UNL     1       0.822  10.133  20.327  0.00  0.00    +0.000 N 
ATOM      2  H   UNL     1       1.009  10.267  21.314  0.00  0.00    +0.000 HD
ENDROOT
BRANCH   1   6
ATOM      3  C   UNL     1       2.566   6.813  18.459  0.00  0.00    +0.000 A 
ATOM      4  C   UNL     1       2.370   7.997  17.741  0.00  0.00    +0.000 A 
ATOM      5  C   UNL     1       1.813   9.109  18.385  0.00  0.00    +0.000 A 
ATOM      6  C   UNL     1       1.413   9.017  19.721  0.00  0.00    +0.000 A 
ATOM      7  C   UNL     1       1.710   7.868  20.456  0.00  0.00    +0.000 A 
ATOM      8  C   UNL     1       2.318   6.788  19.832  0.00  0.00    +0.000 A 
BRANCH   3  10
ATOM      9  O   UNL     1       2.337   4.599  17.751  0.00  0.00    +0.000 OA
ATOM     10  C   UNL     1       3.056   5.595  17.764  0.00  0.00    +0.000 C 
ATOM     11  N   UNL     1       4.317   5.641  17.178  0.00  0.00    +0.000 N 
ATOM     12  C   UNL     1       4.837   4.503  16.442  0.00  0.00    +0.000 C 
ATOM     13  C   UNL     1       6.323   4.500  16.765  0.00  0.00    +0.000 C 
ATOM     14  C   UNL     1       6.649   5.980  16.893  0.00  0.00    +0.000 C 
ATOM     15  C   UNL     1       5.395   6.566  17.525  0.00  0.00    +0.000 C 
ENDBRANCH   3  10
ENDBRANCH   1   6
BRANCH   1  16
ATOM     16  C   UNL     1       0.175  11.198  19.734  0.00  0.00    +0.000 C 
ATOM     17  S   UNL     1       0.840  12.671  19.309  0.00  0.00    +0.000 S 
BRANCH  16  18
ATOM     18  N   UNL     1      -1.188  11.030  19.632  0.00  0.00    +0.000 N 
ATOM     19  H   UNL     1      -1.728  11.255  20.464  0.00  0.00    +0.000 HD
BRANCH  18  20
ATOM     20  C   UNL     1      -1.901  10.867  18.429  0.00  0.00    +0.000 A 
ATOM     21  C   UNL     1      -1.412   9.976  17.478  0.00  0.00    +0.000 A 
ATOM     22  C   UNL     1      -2.099   9.801  16.273  0.00  0.00    +0.000 A 
ATOM     23  C   UNL     1      -3.304  10.470  16.040  0.00  0.00    +0.000 A 
ATOM     24 CL   UNL     1      -4.110  10.189  14.540  0.00  0.00    +0.000 Cl
ATOM     25  C   UNL     1      -3.817  11.332  17.013  0.00  0.00    +0.000 A 
ATOM     26 CL   UNL     1      -5.320  12.159  16.828  0.00  0.00    +0.000 Cl
ATOM     27  C   UNL     1      -3.108  11.536  18.199  0.00  0.00    +0.000 A 
ENDBRANCH  18  20
ENDBRANCH  16  18
ENDBRANCH   1  16
TORSDOF 5
ENDMDL
MODEL 6
REMARK VINA RESULT:      -7.5      1.425      2.112
REMARK  Name = 
REMARK  5 active torsions:
REMARK  status: ('A' for Active; 'I' for Inactive)
REMARK    1  A    between atoms: C_2  and  C_3
REMARK    2  A    between atoms: C_6  and  N_7
REMARK    3  A    between atoms: N_7  and  C_8
REMARK    4  A    between atoms: C_8  and  N_10
REMARK    5  A    between atoms: N_10  and  C_11
REMARK                            x       y       z     vdW  Elec       q    Type
REMARK                         _______ _______ _______ _____ _____    ______ ____
ROOT
ATOM      1  N   UNL     1       2.964   6.508  20.111  0.00  0.00    +0.000 N 
ATOM      2  H   UNL     1       3.808   6.703  20.636  0.00  0.00    +0.000 HD
ENDROOT
BRANCH   1   6
ATOM      3  C   UNL     1       0.610   9.813  19.065  0.00  0.00    +0.000 A 
ATOM      4  C   UNL     1       1.372   9.160  18.091  0.00  0.00    +0.000 A 
ATOM      5  C   UNL     1       2.131   8.038  18.446  0.00  0.00    +0.000 A 
ATOM      6  C   UNL     1       2.163   7.608  19.776  0.00  0.00    +0.000 A 
ATOM      7  C   UNL     1       1.320   8.200  20.717  0.00  0.00    +0.000 A 
ATOM      8  C   UNL     1       0.520   9.273  20.349  0.00  0.00    +0.000 A 
BRANCH   3  10
ATOM      9  O   UNL     1      -1.112  10.988  18.011  0.00  0.00    +0.000 OA
ATOM     10  C   UNL     1      -0.116  11.064  18.726  0.00  0.00    +0.000 C 
ATOM     11  N   UNL     1       0.384  12.263  19.222  0.00  0.00    +0.000 N 
ATOM     12  C   UNL     1      -0.303  13.517  18.969  0.00  0.00    +0.000 C 
ATOM     13  C   UNL     1       0.821  14.526  18.792  0.00  0.00    +0.000 C 
ATOM     14  C   UNL     1       1.890  14.022  19.748  0.00  0.00    +0.000 C 
ATOM     15  C   UNL     1       1.757  12.508  19.662  0.00  0.00    +0.000 C 
ENDBRANCH   3  10
ENDBRANCH   1   6
BRANCH   1  16
ATOM     16  C   UNL     1       2.674   5.163  20.003  0.00  0.00    +0.000 C 
ATOM     17  S   UNL     1       1.230   4.409  20.372  0.00  0.00    +0.000 S 
BRANCH  16  18
ATOM     18  N   UNL     1       3.768   4.386  19.688  0.00  0.00    +0.000 N 
ATOM     19  H   UNL     1       3.858   3.514  20.203  0.00  0.00    +0.000 HD
BRANCH  18  20
ATOM     20  C   UNL     1       4.577   4.544  18.547  0.00  0.00    +0.000 A 
ATOM     21  C   UNL     1       4.304   3.772  17.421  0.00  0.00    +0.000 A 
ATOM     22  C   UNL     1       5.097   3.905  16.278  0.00  0.00    +0.000 A 
ATOM     23  C   UNL     1       6.127   4.849  16.235  0.00  0.00    +0.000 A 
ATOM     24 CL   UNL     1       7.051   4.976  14.784  0.00  0.00    +0.000 Cl
ATOM     25  C   UNL     1       6.374   5.654  17.351  0.00  0.00    +0.000 A 
ATOM     26 CL   UNL     1       7.593   6.876  17.367  0.00  0.00    +0.000 Cl
ATOM     27  C   UNL     1       5.607   5.491  18.506  0.00  0.00    +0.000 A 
ENDBRANCH  18  20
ENDBRANCH  16  18
ENDBRANCH   1  16
TORSDOF 5
ENDMDL
MODEL 7
REMARK VINA RESULT:      -7.5      2.207      3.039
REMARK  Name = 
REMARK  5 active torsions:
REMARK  status: ('A' for Active; 'I' for Inactive)
REMARK    1  A    between atoms: C_2  and  C_3
REMARK    2  A    between atoms: C_6  and  N_7
REMARK    3  A    between atoms: N_7  and  C_8
REMARK    4  A    between atoms: C_8  and  N_10
REMARK    5  A    between atoms: N_10  and  C_11
REMARK                            x       y       z     vdW  Elec       q    Type
REMARK                         _______ _______ _______ _____ _____    ______ ____
ROOT
ATOM      1  N   UNL     1       2.488   4.168  17.564  0.00  0.00    +0.000 N 
ATOM      2  H   UNL     1       2.010   4.170  16.671  0.00  0.00    +0.000 HD
ENDROOT
BRANCH   1   6
ATOM      3  C   UNL     1       1.801   7.448  20.080  0.00  0.00    +0.000 A 
ATOM      4  C   UNL     1       1.632   6.147  20.564  0.00  0.00    +0.000 A 
ATOM      5  C   UNL     1       1.894   5.058  19.723  0.00  0.00    +0.000 A 
ATOM      6  C   UNL     1       2.273   5.276  18.395  0.00  0.00    +0.000 A 
ATOM      7  C   UNL     1       2.540   6.572  17.953  0.00  0.00    +0.000 A 
ATOM      8  C   UNL     1       2.340   7.647  18.808  0.00  0.00    +0.000 A 
BRANCH   3  10
ATOM      9  O   UNL     1       1.596   8.530  22.140  0.00  0.00    +0.000 OA
ATOM     10  C   UNL     1       1.427   8.610  20.925  0.00  0.00    +0.000 C 
ATOM     11  N   UNL     1       0.884   9.727  20.298  0.00  0.00    +0.000 N 
ATOM     12  C   UNL     1       0.542  10.915  21.058  0.00  0.00    +0.000 C 
ATOM     13  C   UNL     1      -0.720  11.433  20.388  0.00  0.00    +0.000 C 
ATOM     14  C   UNL     1      -0.503  11.078  18.925  0.00  0.00    +0.000 C 
ATOM     15  C   UNL     1       0.233   9.747  18.989  0.00  0.00    +0.000 C 
ENDBRANCH   3  10
ENDBRANCH   1   6
BRANCH   1  16
ATOM     16  C   UNL     1       3.417   3.156  17.696  0.00  0.00    +0.000 C 
ATOM     17  S   UNL     1       3.325   1.827  18.704  0.00  0.00    +0.000 S 
BRANCH  16  18
ATOM     18  N   UNL     1       4.586   3.386  17.005  0.00  0.00    +0.000 N 
ATOM     19  H   UNL     1       4.735   2.813  16.178  0.00  0.00    +0.000 HD
BRANCH  18  20
ATOM     20  C   UNL     1       5.419   4.510  17.165  0.00  0.00    +0.000 A 
ATOM     21  C   UNL     1       5.307   5.560  16.259  0.00  0.00    +0.000 A 
ATOM     22  C   UNL     1       6.127   6.685  16.393  0.00  0.00    +0.000 A 
ATOM     23  C   UNL     1       7.019   6.787  17.464  0.00  0.00    +0.000 A 
ATOM     24 CL   UNL     1       7.985   8.213  17.580  0.00  0.00    +0.000 Cl
ATOM     25  C   UNL     1       7.102   5.751  18.398  0.00  0.00    +0.000 A 
ATOM     26 CL   UNL     1       8.141   5.817  19.775  0.00  0.00    +0.000 Cl
ATOM     27  C   UNL     1       6.310   4.611  18.239  0.00  0.00    +0.000 A 
ENDBRANCH  18  20
ENDBRANCH  16  18
ENDBRANCH   1  16
TORSDOF 5
ENDMDL
MODEL 8
REMARK VINA RESULT:      -7.4      4.919      8.721
REMARK  Name = 
REMARK  5 active torsions:
REMARK  status: ('A' for Active; 'I' for Inactive)
REMARK    1  A    between atoms: C_2  and  C_3
REMARK    2  A    between atoms: C_6  and  N_7
REMARK    3  A    between atoms: N_7  and  C_8
REMARK    4  A    between atoms: C_8  and  N_10
REMARK    5  A    between atoms: N_10  and  C_11
REMARK                            x       y       z     vdW  Elec       q    Type
REMARK                         _______ _______ _______ _____ _____    ______ ____
ROOT
ATOM      1  N   UNL     1       0.461  10.065  19.729  0.00  0.00    +0.000 N 
ATOM      2  H   UNL     1      -0.233   9.951  20.459  0.00  0.00    +0.000 HD
ENDROOT
BRANCH   1   6
ATOM      3  C   UNL     1       2.856   6.744  18.834  0.00  0.00    +0.000 A 
ATOM      4  C   UNL     1       2.670   7.751  17.881  0.00  0.00    +0.000 A 
ATOM      5  C   UNL     1       1.892   8.871  18.202  0.00  0.00    +0.000 A 
ATOM      6  C   UNL     1       1.267   8.953  19.450  0.00  0.00    +0.000 A 
ATOM      7  C   UNL     1       1.543   7.997  20.429  0.00  0.00    +0.000 A 
ATOM      8  C   UNL     1       2.365   6.920  20.129  0.00  0.00    +0.000 A 
BRANCH   3  10
ATOM      9  O   UNL     1       4.729   5.608  18.023  0.00  0.00    +0.000 OA
ATOM     10  C   UNL     1       3.589   5.505  18.472  0.00  0.00    +0.000 C 
ATOM     11  N   UNL     1       2.939   4.287  18.643  0.00  0.00    +0.000 N 
ATOM     12  C   UNL     1       3.615   3.036  18.356  0.00  0.00    +0.000 C 
ATOM     13  C   UNL     1       2.525   2.153  17.770  0.00  0.00    +0.000 C 
ATOM     14  C   UNL     1       1.282   2.592  18.527  0.00  0.00    +0.000 C 
ATOM     15  C   UNL     1       1.492   4.087  18.717  0.00  0.00    +0.000 C 
ENDBRANCH   3  10
ENDBRANCH   1   6
BRANCH   1  16
ATOM     16  C   UNL     1       0.600  11.366  19.292  0.00  0.00    +0.000 C 
ATOM     17  S   UNL     1       1.485  12.584  20.016  0.00  0.00    +0.000 S 
BRANCH  16  18
ATOM     18  N   UNL     1      -0.206  11.678  18.220  0.00  0.00    +0.000 N 
ATOM     19  H   UNL     1       0.266  11.804  17.328  0.00  0.00    +0.000 HD
BRANCH  18  20
ATOM     20  C   UNL     1      -1.608  11.546  18.189  0.00  0.00    +0.000 A 
ATOM     21  C   UNL     1      -2.182  10.740  17.210  0.00  0.00    +0.000 A 
ATOM     22  C   UNL     1      -3.572  10.598  17.155  0.00  0.00    +0.000 A 
ATOM     23  C   UNL     1      -4.386  11.212  18.111  0.00  0.00    +0.000 A 
ATOM     24 CL   UNL     1      -6.092  10.975  17.995  0.00  0.00    +0.000 Cl
ATOM     25  C   UNL     1      -3.806  11.987  19.119  0.00  0.00    +0.000 A 
ATOM     26 CL   UNL     1      -4.732  12.740  20.366  0.00  0.00    +0.000 Cl
ATOM     27  C   UNL     1      -2.421  12.160  19.148  0.00  0.00    +0.000 A 
ENDBRANCH  18  20
ENDBRANCH  16  18
ENDBRANCH   1  16
TORSDOF 5
ENDMDL
MODEL 9
REMARK VINA RESULT:      -7.4      1.507      2.314
REMARK  Name = 
REMARK  5 active torsions:
REMARK  status: ('A' for Active; 'I' for Inactive)
REMARK    1  A    between atoms: C_2  and  C_3
REMARK    2  A    between atoms: C_6  and  N_7
REMARK    3  A    between atoms: N_7  and  C_8
REMARK    4  A    between atoms: C_8  and  N_10
REMARK    5  A    between atoms: N_10  and  C_11
REMARK                            x       y       z     vdW  Elec       q    Type
REMARK                         _______ _______ _______ _____ _____    ______ ____
ROOT
ATOM      1  N   UNL     1       3.429   6.281  18.642  0.00  0.00    +0.000 N 
ATOM      2  H   UNL     1       4.300   6.286  19.160  0.00  0.00    +0.000 HD
ENDROOT
BRANCH   1   6
ATOM      3  C   UNL     1       0.958   9.638  19.067  0.00  0.00    +0.000 A 
ATOM      4  C   UNL     1       1.127   8.754  20.137  0.00  0.00    +0.000 A 
ATOM      5  C   UNL     1       1.980   7.652  19.993  0.00  0.00    +0.000 A 
ATOM      6  C   UNL     1       2.615   7.414  18.771  0.00  0.00    +0.000 A 
ATOM      7  C   UNL     1       2.522   8.357  17.746  0.00  0.00    +0.000 A 
ATOM      8  C   UNL     1       1.727   9.481  17.912  0.00  0.00    +0.000 A 
BRANCH   3  10
ATOM      9  O   UNL     1       0.091  11.546  20.098  0.00  0.00    +0.000 OA
ATOM     10  C   UNL     1      -0.022  10.750  19.169  0.00  0.00    +0.000 C 
ATOM     11  N   UNL     1      -1.032  10.820  18.215  0.00  0.00    +0.000 N 
ATOM     12  C   UNL     1      -1.992  11.908  18.228  0.00  0.00    +0.000 C 
ATOM     13  C   UNL     1      -3.296  11.256  17.794  0.00  0.00    +0.000 C 
ATOM     14  C   UNL     1      -2.837  10.195  16.806  0.00  0.00    +0.000 C 
ATOM     15  C   UNL     1      -1.516   9.714  17.391  0.00  0.00    +0.000 C 
ENDBRANCH   3  10
ENDBRANCH   1   6
BRANCH   1  16
ATOM     16  C   UNL     1       3.131   5.062  18.068  0.00  0.00    +0.000 C 
ATOM     17  S   UNL     1       1.617   4.381  17.876  0.00  0.00    +0.000 S 
BRANCH  16  18
ATOM     18  N   UNL     1       4.243   4.308  17.765  0.00  0.00    +0.000 N 
ATOM     19  H   UNL     1       4.319   3.415  18.245  0.00  0.00    +0.000 HD
BRANCH  18  20
ATOM     20  C   UNL     1       5.097   4.520  16.666  0.00  0.00    +0.000 A 
ATOM     21  C   UNL     1       6.310   5.170  16.878  0.00  0.00    +0.000 A 
ATOM     22  C   UNL     1       7.173   5.398  15.802  0.00  0.00    +0.000 A 
ATOM     23  C   UNL     1       6.854   4.927  14.525  0.00  0.00    +0.000 A 
ATOM     24 CL   UNL     1       7.976   5.225  13.248  0.00  0.00    +0.000 Cl
ATOM     25  C   UNL     1       5.656   4.238  14.321  0.00  0.00    +0.000 A 
ATOM     26 CL   UNL     1       5.207   3.581  12.789  0.00  0.00    +0.000 Cl
ATOM     27  C   UNL     1       4.777   4.046  15.389  0.00  0.00    +0.000 A 
ENDBRANCH  18  20
ENDBRANCH  16  18
ENDBRANCH   1  16
TORSDOF 5
ENDMDL
