MODEL 1
REMARK VINA RESULT:      -8.2      0.000      0.000
REMARK  Name = 
REMARK  6 active torsions:
REMARK  status: ('A' for Active; 'I' for Inactive)
REMARK    1  A    between atoms: C_1  and  O_2
REMARK    2  A    between atoms: O_2  and  C_3
REMARK    3  A    between atoms: C_6  and  C_7
REMARK    4  A    between atoms: C_12  and  C_13
REMARK    5  A    between atoms: C_16  and  C_17
REMARK    6  A    between atoms: C_25  and  C_26
REMARK                            x       y       z     vdW  Elec       q    Type
REMARK                         _______ _______ _______ _____ _____    ______ ____
ROOT
ATOM      1  C   UNL     1       1.842   8.386  18.732  0.00  0.00    +0.000 C 
ATOM      2  N   UNL     1       1.404   8.526  19.942  0.00  0.00    +0.000 NA
ATOM      3  N   UNL     1       0.644   9.658  19.981  0.00  0.00    +0.000 N 
ATOM      4  C   UNL     1      -0.020  10.105  21.084  0.00  0.00    +0.000 A 
ATOM      5  N   UNL     1      -0.861  11.121  21.120  0.00  0.00    +0.000 NA
ATOM      6  C   UNL     1      -1.367  11.299  22.401  0.00  0.00    +0.000 A 
ATOM      7  C   UNL     1      -0.857  10.438  23.349  0.00  0.00    +0.000 A 
ATOM      8  S   UNL     1       0.217   9.334  22.625  0.00  0.00    +0.000 S 
ATOM      9  C   UNL     1       0.550  10.341  18.689  0.00  0.00    +0.000 C 
ATOM     10  C   UNL     1       1.396   9.444  17.765  0.00  0.00    +0.000 C 
ENDROOT
BRANCH   1  14
ATOM     11  C   UNL     1       4.411   5.195  17.483  0.00  0.00    +0.000 A 
ATOM     12  C   UNL     1       4.620   6.498  17.034  0.00  0.00    +0.000 A 
ATOM     13  C   UNL     1       3.793   7.534  17.469  0.00  0.00    +0.000 A 
ATOM     14  C   UNL     1       2.733   7.270  18.346  0.00  0.00    +0.000 A 
ATOM     15  C   UNL     1       2.521   5.964  18.797  0.00  0.00    +0.000 A 
ATOM     16  C   UNL     1       3.359   4.929  18.362  0.00  0.00    +0.000 A 
BRANCH  11  18
ATOM     17  C   UNL     1       6.648   4.603  16.994  0.00  0.00    +0.000 C 
ATOM     18  O   UNL     1       5.267   4.263  16.963  0.00  0.00    +0.000 OA
ENDBRANCH  11  18
ENDBRANCH   1  14
BRANCH   6  19
ATOM     19  C   UNL     1      -2.373  12.312  22.699  0.00  0.00    +0.000 A 
ATOM     20  C   UNL     1      -2.499  13.453  21.894  0.00  0.00    +0.000 A 
ATOM     21  C   UNL     1      -3.437  14.442  22.192  0.00  0.00    +0.000 A 
ATOM     22  C   UNL     1      -4.274  14.314  23.307  0.00  0.00    +0.000 A 
ATOM     23  C   UNL     1      -4.155  13.171  24.114  0.00  0.00    +0.000 A 
ATOM     24  C   UNL     1      -3.211  12.180  23.813  0.00  0.00    +0.000 A 
BRANCH  22  25
ATOM     25  C   UNL     1      -5.277  15.390  23.644  0.00  0.00    +0.000 C 
ATOM     26  F   UNL     1      -6.509  14.903  23.964  0.00  0.00    +0.000 F 
ATOM     27  F   UNL     1      -4.893  16.151  24.706  0.00  0.00    +0.000 F 
ATOM     28  F   UNL     1      -5.479  16.258  22.613  0.00  0.00    +0.000 F 
ENDBRANCH  22  25
ENDBRANCH   6  19
BRANCH   9  29
ATOM     29  C   UNL     1       1.074  11.760  18.639  0.00  0.00    +0.000 A 
ATOM     30  C   UNL     1       2.385  12.195  18.612  0.00  0.00    +0.000 A 
ATOM     31  C   UNL     1       2.488  13.615  18.565  0.00  0.00    +0.000 A 
ATOM     32  C   UNL     1       1.253  14.219  18.552  0.00  0.00    +0.000 A 
ATOM     33  S   UNL     1      -0.021  13.079  18.596  0.00  0.00    +0.000 S 
ENDBRANCH   9  29
TORSDOF 5
ENDMDL
MODEL 2
REMARK VINA RESULT:      -8.2      0.246      1.208
REMARK  Name = 
REMARK  6 active torsions:
REMARK  status: ('A' for Active; 'I' for Inactive)
REMARK    1  A    between atoms: C_1  and  O_2
REMARK    2  A    between atoms: O_2  and  C_3
REMARK    3  A    between atoms: C_6  and  C_7
REMARK    4  A    between atoms: C_12  and  C_13
REMARK    5  A    between atoms: C_16  and  C_17
REMARK    6  A    between atoms: C_25  and  C_26
REMARK                            x       y       z     vdW  Elec       q    Type
REMARK                         _______ _______ _______ _____ _____    ______ ____
ROOT
ATOM      1  C   UNL     1       1.806   8.467  18.670  0.00  0.00    +0.000 C 
ATOM      2  N   UNL     1       1.400   8.592  19.893  0.00  0.00    +0.000 NA
ATOM      3  N   UNL     1       0.640   9.722  19.966  0.00  0.00    +0.000 N 
ATOM      4  C   UNL     1       0.005  10.154  21.093  0.00  0.00    +0.000 A 
ATOM      5  N   UNL     1      -0.836  11.169  21.164  0.00  0.00    +0.000 NA
ATOM      6  C   UNL     1      -1.308  11.330  22.459  0.00  0.00    +0.000 A 
ATOM      7  C   UNL     1      -0.771  10.458  23.382  0.00  0.00    +0.000 A 
ATOM      8  S   UNL     1       0.284   9.365  22.617  0.00  0.00    +0.000 S 
ATOM      9  C   UNL     1       0.511  10.420  18.686  0.00  0.00    +0.000 C 
ATOM     10  C   UNL     1       1.333   9.536  17.729  0.00  0.00    +0.000 C 
ENDROOT
BRANCH   1  14
ATOM     11  C   UNL     1       4.368   5.215  17.575  0.00  0.00    +0.000 A 
ATOM     12  C   UNL     1       3.291   5.017  18.438  0.00  0.00    +0.000 A 
ATOM     13  C   UNL     1       2.447   6.078  18.766  0.00  0.00    +0.000 A 
ATOM     14  C   UNL     1       2.687   7.357  18.247  0.00  0.00    +0.000 A 
ATOM     15  C   UNL     1       3.767   7.559  17.382  0.00  0.00    +0.000 A 
ATOM     16  C   UNL     1       4.607   6.487  17.051  0.00  0.00    +0.000 A 
BRANCH  11  18
ATOM     17  C   UNL     1       6.012   4.173  16.231  0.00  0.00    +0.000 C 
ATOM     18  O   UNL     1       5.139   4.107  17.354  0.00  0.00    +0.000 OA
ENDBRANCH  11  18
ENDBRANCH   1  14
BRANCH   6  19
ATOM     19  C   UNL     1      -2.306  12.338  22.797  0.00  0.00    +0.000 A 
ATOM     20  C   UNL     1      -3.283  12.079  23.768  0.00  0.00    +0.000 A 
ATOM     21  C   UNL     1      -4.262  13.026  24.073  0.00  0.00    +0.000 A 
ATOM     22  C   UNL     1      -4.287  14.259  23.411  0.00  0.00    +0.000 A 
ATOM     23  C   UNL     1      -3.307  14.525  22.440  0.00  0.00    +0.000 A 
ATOM     24  C   UNL     1      -2.327  13.572  22.135  0.00  0.00    +0.000 A 
BRANCH  22  25
ATOM     25  C   UNL     1      -5.354  15.279  23.724  0.00  0.00    +0.000 C 
ATOM     26  F   UNL     1      -6.532  14.724  24.130  0.00  0.00    +0.000 F 
ATOM     27  F   UNL     1      -4.987  16.134  24.718  0.00  0.00    +0.000 F 
ATOM     28  F   UNL     1      -5.663  16.059  22.651  0.00  0.00    +0.000 F 
ENDBRANCH  22  25
ENDBRANCH   6  19
BRANCH   9  29
ATOM     29  C   UNL     1       1.032  11.841  18.640  0.00  0.00    +0.000 A 
ATOM     30  C   UNL     1       2.341  12.279  18.603  0.00  0.00    +0.000 A 
ATOM     31  C   UNL     1       2.441  13.700  18.564  0.00  0.00    +0.000 A 
ATOM     32  C   UNL     1       1.205  14.301  18.565  0.00  0.00    +0.000 A 
ATOM     33  S   UNL     1      -0.067  13.158  18.615  0.00  0.00    +0.000 S 
ENDBRANCH   9  29
TORSDOF 5
ENDMDL
MODEL 3
REMARK VINA RESULT:      -8.1      0.358      1.147
REMARK  Name = 
REMARK  6 active torsions:
REMARK  status: ('A' for Active; 'I' for Inactive)
REMARK    1  A    between atoms: C_1  and  O_2
REMARK    2  A    between atoms: O_2  and  C_3
REMARK    3  A    between atoms: C_6  and  C_7
REMARK    4  A    between atoms: C_12  and  C_13
REMARK    5  A    between atoms: C_16  and  C_17
REMARK    6  A    between atoms: C_25  and  C_26
REMARK                            x       y       z     vdW  Elec       q    Type
REMARK                         _______ _______ _______ _____ _____    ______ ____
ROOT
ATOM      1  C   UNL     1       1.824   8.425  18.748  0.00  0.00    +0.000 C 
ATOM      2  N   UNL     1       1.391   8.566  19.960  0.00  0.00    +0.000 NA
ATOM      3  N   UNL     1       0.614   9.688  19.996  0.00  0.00    +0.000 N 
ATOM      4  C   UNL     1      -0.050  10.132  21.100  0.00  0.00    +0.000 A 
ATOM      5  N   UNL     1      -0.905  11.136  21.135  0.00  0.00    +0.000 NA
ATOM      6  C   UNL     1      -1.407  11.315  22.417  0.00  0.00    +0.000 A 
ATOM      7  C   UNL     1      -0.879  10.467  23.367  0.00  0.00    +0.000 A 
ATOM      8  S   UNL     1       0.207   9.374  22.645  0.00  0.00    +0.000 S 
ATOM      9  C   UNL     1       0.504  10.361  18.701  0.00  0.00    +0.000 C 
ATOM     10  C   UNL     1       1.358   9.470  17.778  0.00  0.00    +0.000 C 
ENDROOT
BRANCH   1  14
ATOM     11  C   UNL     1       4.421   5.254  17.504  0.00  0.00    +0.000 A 
ATOM     12  C   UNL     1       4.535   6.530  16.953  0.00  0.00    +0.000 A 
ATOM     13  C   UNL     1       3.702   7.562  17.386  0.00  0.00    +0.000 A 
ATOM     14  C   UNL     1       2.729   7.319  18.364  0.00  0.00    +0.000 A 
ATOM     15  C   UNL     1       2.611   6.042  18.918  0.00  0.00    +0.000 A 
ATOM     16  C   UNL     1       3.456   5.011  18.483  0.00  0.00    +0.000 A 
BRANCH  11  18
ATOM     17  C   UNL     1       5.614   4.497  15.608  0.00  0.00    +0.000 C 
ATOM     18  O   UNL     1       5.271   4.322  16.977  0.00  0.00    +0.000 OA
ENDBRANCH  11  18
ENDBRANCH   1  14
BRANCH   6  19
ATOM     19  C   UNL     1      -2.425  12.315  22.714  0.00  0.00    +0.000 A 
ATOM     20  C   UNL     1      -3.276  12.163  23.819  0.00  0.00    +0.000 A 
ATOM     21  C   UNL     1      -4.274  13.100  24.091  0.00  0.00    +0.000 A 
ATOM     22  C   UNL     1      -4.446  14.215  23.261  0.00  0.00    +0.000 A 
ATOM     23  C   UNL     1      -3.594  14.374  22.157  0.00  0.00    +0.000 A 
ATOM     24  C   UNL     1      -2.593  13.431  21.885  0.00  0.00    +0.000 A 
BRANCH  22  25
ATOM     25  C   UNL     1      -5.537  15.220  23.541  0.00  0.00    +0.000 C 
ATOM     26  F   UNL     1      -5.135  16.247  24.343  0.00  0.00    +0.000 F 
ATOM     27  F   UNL     1      -6.017  15.801  22.408  0.00  0.00    +0.000 F 
ATOM     28  F   UNL     1      -6.613  14.664  24.164  0.00  0.00    +0.000 F 
ENDBRANCH  22  25
ENDBRANCH   6  19
BRANCH   9  29
ATOM     29  C   UNL     1       1.007  11.788  18.639  0.00  0.00    +0.000 A 
ATOM     30  C   UNL     1       2.310  12.240  18.562  0.00  0.00    +0.000 A 
ATOM     31  C   UNL     1       2.393  13.661  18.521  0.00  0.00    +0.000 A 
ATOM     32  C   UNL     1       1.151  14.249  18.562  0.00  0.00    +0.000 A 
ATOM     33  S   UNL     1      -0.105  13.092  18.650  0.00  0.00    +0.000 S 
ENDBRANCH   9  29
TORSDOF 5
ENDMDL
MODEL 4
REMARK VINA RESULT:      -8.0      6.124     10.462
REMARK  Name = 
REMARK  6 active torsions:
REMARK  status: ('A' for Active; 'I' for Inactive)
REMARK    1  A    between atoms: C_1  and  O_2
REMARK    2  A    between atoms: O_2  and  C_3
REMARK    3  A    between atoms: C_6  and  C_7
REMARK    4  A    between atoms: C_12  and  C_13
REMARK    5  A    between atoms: C_16  and  C_17
REMARK    6  A    between atoms: C_25  and  C_26
REMARK                            x       y       z     vdW  Elec       q    Type
REMARK                         _______ _______ _______ _____ _____    ______ ____
ROOT
ATOM      1  C   UNL     1      -1.957  12.976  21.545  0.00  0.00    +0.000 C 
ATOM      2  N   UNL     1      -1.348  11.910  21.954  0.00  0.00    +0.000 NA
ATOM      3  N   UNL     1      -0.799  11.300  20.864  0.00  0.00    +0.000 N 
ATOM      4  C   UNL     1      -0.042  10.167  20.913  0.00  0.00    +0.000 A 
ATOM      5  N   UNL     1       0.605   9.626  19.898  0.00  0.00    +0.000 NA
ATOM      6  C   UNL     1       1.285   8.484  20.297  0.00  0.00    +0.000 A 
ATOM      7  C   UNL     1       1.101   8.133  21.617  0.00  0.00    +0.000 A 
ATOM      8  S   UNL     1       0.125   9.285  22.403  0.00  0.00    +0.000 S 
ATOM      9  C   UNL     1      -1.047  12.014  19.611  0.00  0.00    +0.000 C 
ATOM     10  C   UNL     1      -1.873  13.232  20.068  0.00  0.00    +0.000 C 
ENDROOT
BRANCH   1  14
ATOM     11  C   UNL     1      -4.034  15.648  24.169  0.00  0.00    +0.000 A 
ATOM     12  C   UNL     1      -3.996  15.881  22.795  0.00  0.00    +0.000 A 
ATOM     13  C   UNL     1      -3.340  14.989  21.947  0.00  0.00    +0.000 A 
ATOM     14  C   UNL     1      -2.695  13.861  22.472  0.00  0.00    +0.000 A 
ATOM     15  C   UNL     1      -2.730  13.626  23.849  0.00  0.00    +0.000 A 
ATOM     16  C   UNL     1      -3.397  14.522  24.694  0.00  0.00    +0.000 A 
BRANCH  11  18
ATOM     17  C   UNL     1      -5.675  17.350  24.203  0.00  0.00    +0.000 C 
ATOM     18  O   UNL     1      -4.680  16.608  24.898  0.00  0.00    +0.000 OA
ENDBRANCH  11  18
ENDBRANCH   1  14
BRANCH   6  19
ATOM     19  C   UNL     1       2.137   7.734  19.382  0.00  0.00    +0.000 A 
ATOM     20  C   UNL     1       2.583   6.446  19.712  0.00  0.00    +0.000 A 
ATOM     21  C   UNL     1       3.425   5.736  18.856  0.00  0.00    +0.000 A 
ATOM     22  C   UNL     1       3.844   6.299  17.644  0.00  0.00    +0.000 A 
ATOM     23  C   UNL     1       3.396   7.586  17.306  0.00  0.00    +0.000 A 
ATOM     24  C   UNL     1       2.552   8.298  18.169  0.00  0.00    +0.000 A 
BRANCH  22  25
ATOM     25  C   UNL     1       4.770   5.541  16.724  0.00  0.00    +0.000 C 
ATOM     26  F   UNL     1       4.285   4.323  16.349  0.00  0.00    +0.000 F 
ATOM     27  F   UNL     1       5.021   6.212  15.565  0.00  0.00    +0.000 F 
ATOM     28  F   UNL     1       5.985   5.298  17.289  0.00  0.00    +0.000 F 
ENDBRANCH  22  25
ENDBRANCH   6  19
BRANCH   9  29
ATOM     29  C   UNL     1      -1.809  11.255  18.544  0.00  0.00    +0.000 A 
ATOM     30  C   UNL     1      -1.326  10.349  17.620  0.00  0.00    +0.000 A 
ATOM     31  C   UNL     1      -2.349   9.836  16.772  0.00  0.00    +0.000 A 
ATOM     32  C   UNL     1      -3.582  10.361  17.081  0.00  0.00    +0.000 A 
ATOM     33  S   UNL     1      -3.503  11.466  18.383  0.00  0.00    +0.000 S 
ENDBRANCH   9  29
TORSDOF 5
ENDMDL
MODEL 5
REMARK VINA RESULT:      -8.0      6.146     10.469
REMARK  Name = 
REMARK  6 active torsions:
REMARK  status: ('A' for Active; 'I' for Inactive)
REMARK    1  A    between atoms: C_1  and  O_2
REMARK    2  A    between atoms: O_2  and  C_3
REMARK    3  A    between atoms: C_6  and  C_7
REMARK    4  A    between atoms: C_12  and  C_13
REMARK    5  A    between atoms: C_16  and  C_17
REMARK    6  A    between atoms: C_25  and  C_26
REMARK                            x       y       z     vdW  Elec       q    Type
REMARK                         _______ _______ _______ _____ _____    ______ ____
ROOT
ATOM      1  C   UNL     1      -1.824  13.045  21.384  0.00  0.00    +0.000 C 
ATOM      2  N   UNL     1      -1.212  11.994  21.827  0.00  0.00    +0.000 NA
ATOM      3  N   UNL     1      -0.692  11.332  20.752  0.00  0.00    +0.000 N 
ATOM      4  C   UNL     1       0.059  10.197  20.835  0.00  0.00    +0.000 A 
ATOM      5  N   UNL     1       0.678   9.607  19.829  0.00  0.00    +0.000 NA
ATOM      6  C   UNL     1       1.361   8.479  20.263  0.00  0.00    +0.000 A 
ATOM      7  C   UNL     1       1.207   8.189  21.602  0.00  0.00    +0.000 A 
ATOM      8  S   UNL     1       0.257   9.382  22.358  0.00  0.00    +0.000 S 
ATOM      9  C   UNL     1      -0.967  11.990  19.474  0.00  0.00    +0.000 C 
ATOM     10  C   UNL     1      -1.774  13.233  19.896  0.00  0.00    +0.000 C 
ENDROOT
BRANCH   1  14
ATOM     11  C   UNL     1      -3.922  15.634  24.074  0.00  0.00    +0.000 A 
ATOM     12  C   UNL     1      -3.085  14.628  24.556  0.00  0.00    +0.000 A 
ATOM     13  C   UNL     1      -2.385  13.809  23.670  0.00  0.00    +0.000 A 
ATOM     14  C   UNL     1      -2.534  13.976  22.287  0.00  0.00    +0.000 A 
ATOM     15  C   UNL     1      -3.372  14.983  21.801  0.00  0.00    +0.000 A 
ATOM     16  C   UNL     1      -4.067  15.807  22.697  0.00  0.00    +0.000 A 
BRANCH  11  18
ATOM     17  C   UNL     1      -4.237  17.730  25.122  0.00  0.00    +0.000 C 
ATOM     18  O   UNL     1      -4.575  16.351  25.038  0.00  0.00    +0.000 OA
ENDBRANCH  11  18
ENDBRANCH   1  14
BRANCH   6  19
ATOM     19  C   UNL     1       2.186   7.683  19.363  0.00  0.00    +0.000 A 
ATOM     20  C   UNL     1       2.610   6.397  19.729  0.00  0.00    +0.000 A 
ATOM     21  C   UNL     1       3.427   5.642  18.886  0.00  0.00    +0.000 A 
ATOM     22  C   UNL     1       3.842   6.158  17.652  0.00  0.00    +0.000 A 
ATOM     23  C   UNL     1       3.417   7.443  17.278  0.00  0.00    +0.000 A 
ATOM     24  C   UNL     1       2.597   8.199  18.128  0.00  0.00    +0.000 A 
BRANCH  22  25
ATOM     25  C   UNL     1       4.741   5.352  16.746  0.00  0.00    +0.000 C 
ATOM     26  F   UNL     1       5.082   6.007  15.600  0.00  0.00    +0.000 F 
ATOM     27  F   UNL     1       5.917   5.012  17.342  0.00  0.00    +0.000 F 
ATOM     28  F   UNL     1       4.169   4.182  16.348  0.00  0.00    +0.000 F 
ENDBRANCH  22  25
ENDBRANCH   6  19
BRANCH   9  29
ATOM     29  C   UNL     1      -1.758  11.189  18.462  0.00  0.00    +0.000 A 
ATOM     30  C   UNL     1      -1.303  10.239  17.569  0.00  0.00    +0.000 A 
ATOM     31  C   UNL     1      -2.349   9.695  16.769  0.00  0.00    +0.000 A 
ATOM     32  C   UNL     1      -3.571  10.242  17.082  0.00  0.00    +0.000 A 
ATOM     33  S   UNL     1      -3.454  11.406  18.331  0.00  0.00    +0.000 S 
ENDBRANCH   9  29
TORSDOF 5
ENDMDL
MODEL 6
REMARK VINA RESULT:      -8.0      6.103     10.395
REMARK  Name = 
REMARK  6 active torsions:
REMARK  status: ('A' for Active; 'I' for Inactive)
REMARK    1  A    between atoms: C_1  and  O_2
REMARK    2  A    between atoms: O_2  and  C_3
REMARK    3  A    between atoms: C_6  and  C_7
REMARK    4  A    between atoms: C_12  and  C_13
REMARK    5  A    between atoms: C_16  and  C_17
REMARK    6  A    between atoms: C_25  and  C_26
REMARK                            x       y       z     vdW  Elec       q    Type
REMARK                         _______ _______ _______ _____ _____    ______ ____
ROOT
ATOM      1  C   UNL     1      -2.236  13.010  21.428  0.00  0.00    +0.000 C 
ATOM      2  N   UNL     1      -1.629  11.963  21.886  0.00  0.00    +0.000 NA
ATOM      3  N   UNL     1      -1.024  11.340  20.833  0.00  0.00    +0.000 N 
ATOM      4  C   UNL     1      -0.252  10.221  20.939  0.00  0.00    +0.000 A 
ATOM      5  N   UNL     1       0.446   9.670  19.963  0.00  0.00    +0.000 NA
ATOM      6  C   UNL     1       1.127   8.548  20.415  0.00  0.00    +0.000 A 
ATOM      7  C   UNL     1       0.891   8.221  21.734  0.00  0.00    +0.000 A 
ATOM      8  S   UNL     1      -0.135   9.372  22.453  0.00  0.00    +0.000 S 
ATOM      9  C   UNL     1      -1.229  12.024  19.556  0.00  0.00    +0.000 C 
ATOM     10  C   UNL     1      -2.093  13.237  19.951  0.00  0.00    +0.000 C 
ENDROOT
BRANCH   1  14
ATOM     11  C   UNL     1      -4.409  15.637  24.021  0.00  0.00    +0.000 A 
ATOM     12  C   UNL     1      -3.296  16.090  23.313  0.00  0.00    +0.000 A 
ATOM     13  C   UNL     1      -2.613  15.233  22.451  0.00  0.00    +0.000 A 
ATOM     14  C   UNL     1      -3.027  13.902  22.304  0.00  0.00    +0.000 A 
ATOM     15  C   UNL     1      -4.141  13.445  23.012  0.00  0.00    +0.000 A 
ATOM     16  C   UNL     1      -4.828  14.313  23.872  0.00  0.00    +0.000 A 
BRANCH  11  18
ATOM     17  C   UNL     1      -4.170  17.690  25.169  0.00  0.00    +0.000 C 
ATOM     18  O   UNL     1      -4.976  16.560  24.856  0.00  0.00    +0.000 OA
ENDBRANCH  11  18
ENDBRANCH   1  14
BRANCH   6  19
ATOM     19  C   UNL     1       2.029   7.794  19.553  0.00  0.00    +0.000 A 
ATOM     20  C   UNL     1       2.490   8.341  18.347  0.00  0.00    +0.000 A 
ATOM     21  C   UNL     1       3.328   7.613  17.502  0.00  0.00    +0.000 A 
ATOM     22  C   UNL     1       3.725   6.314  17.843  0.00  0.00    +0.000 A 
ATOM     23  C   UNL     1       3.270   5.763  19.051  0.00  0.00    +0.000 A 
ATOM     24  C   UNL     1       2.428   6.496  19.898  0.00  0.00    +0.000 A 
BRANCH  22  25
ATOM     25  C   UNL     1       4.616   5.516  16.922  0.00  0.00    +0.000 C 
ATOM     26  F   UNL     1       4.097   4.302  16.584  0.00  0.00    +0.000 F 
ATOM     27  F   UNL     1       4.858   6.155  15.744  0.00  0.00    +0.000 F 
ATOM     28  F   UNL     1       5.836   5.259  17.468  0.00  0.00    +0.000 F 
ENDBRANCH  22  25
ENDBRANCH   6  19
BRANCH   9  29
ATOM     29  C   UNL     1      -1.932  11.231  18.474  0.00  0.00    +0.000 A 
ATOM     30  C   UNL     1      -1.390  10.338  17.570  0.00  0.00    +0.000 A 
ATOM     31  C   UNL     1      -2.370   9.782  16.698  0.00  0.00    +0.000 A 
ATOM     32  C   UNL     1      -3.629  10.263  16.968  0.00  0.00    +0.000 A 
ATOM     33  S   UNL     1      -3.627  11.378  18.264  0.00  0.00    +0.000 S 
ENDBRANCH   9  29
TORSDOF 5
ENDMDL
MODEL 7
REMARK VINA RESULT:      -8.0      0.565      1.214
REMARK  Name = 
REMARK  6 active torsions:
REMARK  status: ('A' for Active; 'I' for Inactive)
REMARK    1  A    between atoms: C_1  and  O_2
REMARK    2  A    between atoms: O_2  and  C_3
REMARK    3  A    between atoms: C_6  and  C_7
REMARK    4  A    between atoms: C_12  and  C_13
REMARK    5  A    between atoms: C_16  and  C_17
REMARK    6  A    between atoms: C_25  and  C_26
REMARK                            x       y       z     vdW  Elec       q    Type
REMARK                         _______ _______ _______ _____ _____    ______ ____
ROOT
ATOM      1  C   UNL     1       1.690   8.717  18.676  0.00  0.00    +0.000 C 
ATOM      2  N   UNL     1       1.229   8.797  19.883  0.00  0.00    +0.000 NA
ATOM      3  N   UNL     1       0.492   9.942  19.971  0.00  0.00    +0.000 N 
ATOM      4  C   UNL     1      -0.186  10.339  21.085  0.00  0.00    +0.000 A 
ATOM      5  N   UNL     1      -1.006  11.370  21.163  0.00  0.00    +0.000 NA
ATOM      6  C   UNL     1      -1.536  11.486  22.441  0.00  0.00    +0.000 A 
ATOM      7  C   UNL     1      -1.064  10.560  23.347  0.00  0.00    +0.000 A 
ATOM      8  S   UNL     1       0.002   9.476  22.584  0.00  0.00    +0.000 S 
ATOM      9  C   UNL     1       0.441  10.699  18.720  0.00  0.00    +0.000 C 
ATOM     10  C   UNL     1       1.288   9.838  17.763  0.00  0.00    +0.000 C 
ENDROOT
BRANCH   1  14
ATOM     11  C   UNL     1       4.232   5.457  17.557  0.00  0.00    +0.000 A 
ATOM     12  C   UNL     1       3.140   5.255  18.400  0.00  0.00    +0.000 A 
ATOM     13  C   UNL     1       2.303   6.319  18.735  0.00  0.00    +0.000 A 
ATOM     14  C   UNL     1       2.565   7.605  18.244  0.00  0.00    +0.000 A 
ATOM     15  C   UNL     1       3.660   7.810  17.400  0.00  0.00    +0.000 A 
ATOM     16  C   UNL     1       4.493   6.735  17.061  0.00  0.00    +0.000 A 
BRANCH  11  18
ATOM     17  C   UNL     1       4.320   3.097  17.436  0.00  0.00    +0.000 C 
ATOM     18  O   UNL     1       4.994   4.345  17.325  0.00  0.00    +0.000 OA
ENDBRANCH  11  18
ENDBRANCH   1  14
BRANCH   6  19
ATOM     19  C   UNL     1      -2.526  12.502  22.776  0.00  0.00    +0.000 A 
ATOM     20  C   UNL     1      -2.627  13.679  22.021  0.00  0.00    +0.000 A 
ATOM     21  C   UNL     1      -3.550  14.670  22.356  0.00  0.00    +0.000 A 
ATOM     22  C   UNL     1      -4.397  14.508  23.459  0.00  0.00    +0.000 A 
ATOM     23  C   UNL     1      -4.303  13.329  24.216  0.00  0.00    +0.000 A 
ATOM     24  C   UNL     1      -3.374  12.335  23.878  0.00  0.00    +0.000 A 
BRANCH  22  25
ATOM     25  C   UNL     1      -5.384  15.586  23.836  0.00  0.00    +0.000 C 
ATOM     26  F   UNL     1      -5.013  16.299  24.937  0.00  0.00    +0.000 F 
ATOM     27  F   UNL     1      -5.563  16.502  22.845  0.00  0.00    +0.000 F 
ATOM     28  F   UNL     1      -6.621  15.088  24.116  0.00  0.00    +0.000 F 
ENDBRANCH  22  25
ENDBRANCH   6  19
BRANCH   9  29
ATOM     29  C   UNL     1       0.995  12.107  18.763  0.00  0.00    +0.000 A 
ATOM     30  C   UNL     1       2.304  12.514  18.939  0.00  0.00    +0.000 A 
ATOM     31  C   UNL     1       2.442  13.931  18.921  0.00  0.00    +0.000 A 
ATOM     32  C   UNL     1       1.236  14.562  18.725  0.00  0.00    +0.000 A 
ATOM     33  S   UNL     1      -0.053  13.450  18.565  0.00  0.00    +0.000 S 
ENDBRANCH   9  29
TORSDOF 5
ENDMDL
MODEL 8
REMARK VINA RESULT:      -7.6      0.857      1.396
REMARK  Name = 
REMARK  6 active torsions:
REMARK  status: ('A' for Active; 'I' for Inactive)
REMARK    1  A    between atoms: C_1  and  O_2
REMARK    2  A    between atoms: O_2  and  C_3
REMARK    3  A    between atoms: C_6  and  C_7
REMARK    4  A    between atoms: C_12  and  C_13
REMARK    5  A    between atoms: C_16  and  C_17
REMARK    6  A    between atoms: C_25  and  C_26
REMARK                            x       y       z     vdW  Elec       q    Type
REMARK                         _______ _______ _______ _____ _____    ______ ____
ROOT
ATOM      1  C   UNL     1       1.765   8.524  18.960  0.00  0.00    +0.000 C 
ATOM      2  N   UNL     1       1.272   8.719  20.141  0.00  0.00    +0.000 NA
ATOM      3  N   UNL     1       0.469   9.821  20.079  0.00  0.00    +0.000 N 
ATOM      4  C   UNL     1      -0.257  10.306  21.126  0.00  0.00    +0.000 A 
ATOM      5  N   UNL     1      -1.136  11.289  21.066  0.00  0.00    +0.000 NA
ATOM      6  C   UNL     1      -1.701  11.524  22.312  0.00  0.00    +0.000 A 
ATOM      7  C   UNL     1      -1.199  10.743  23.331  0.00  0.00    +0.000 A 
ATOM      8  S   UNL     1      -0.055   9.640  22.720  0.00  0.00    +0.000 S 
ATOM      9  C   UNL     1       0.404  10.419  18.745  0.00  0.00    +0.000 C 
ATOM     10  C   UNL     1       1.321   9.503  17.913  0.00  0.00    +0.000 C 
ENDROOT
BRANCH   1  14
ATOM     11  C   UNL     1       4.465   5.336  18.016  0.00  0.00    +0.000 A 
ATOM     12  C   UNL     1       4.383   6.467  17.205  0.00  0.00    +0.000 A 
ATOM     13  C   UNL     1       3.520   7.511  17.538  0.00  0.00    +0.000 A 
ATOM     14  C   UNL     1       2.712   7.423  18.679  0.00  0.00    +0.000 A 
ATOM     15  C   UNL     1       2.792   6.290  19.494  0.00  0.00    +0.000 A 
ATOM     16  C   UNL     1       3.666   5.248  19.158  0.00  0.00    +0.000 A 
BRANCH  11  18
ATOM     17  C   UNL     1       5.714   4.467  16.206  0.00  0.00    +0.000 C 
ATOM     18  O   UNL     1       5.323   4.369  17.571  0.00  0.00    +0.000 OA
ENDBRANCH  11  18
ENDBRANCH   1  14
BRANCH   6  19
ATOM     19  C   UNL     1      -2.755  12.512  22.507  0.00  0.00    +0.000 A 
ATOM     20  C   UNL     1      -3.077  12.970  23.793  0.00  0.00    +0.000 A 
ATOM     21  C   UNL     1      -4.107  13.891  23.991  0.00  0.00    +0.000 A 
ATOM     22  C   UNL     1      -4.842  14.377  22.903  0.00  0.00    +0.000 A 
ATOM     23  C   UNL     1      -4.521  13.925  21.613  0.00  0.00    +0.000 A 
ATOM     24  C   UNL     1      -3.488  12.999  21.418  0.00  0.00    +0.000 A 
BRANCH  22  25
ATOM     25  C   UNL     1      -5.969  15.359  23.114  0.00  0.00    +0.000 C 
ATOM     26  F   UNL     1      -5.932  16.420  22.259  0.00  0.00    +0.000 F 
ATOM     27  F   UNL     1      -7.196  14.793  22.948  0.00  0.00    +0.000 F 
ATOM     28  F   UNL     1      -5.968  15.894  24.367  0.00  0.00    +0.000 F 
ENDBRANCH  22  25
ENDBRANCH   6  19
BRANCH   9  29
ATOM     29  C   UNL     1       0.875  11.853  18.628  0.00  0.00    +0.000 A 
ATOM     30  C   UNL     1       0.150  13.016  18.797  0.00  0.00    +0.000 A 
ATOM     31  C   UNL     1       0.940  14.186  18.606  0.00  0.00    +0.000 A 
ATOM     32  C   UNL     1       2.246  13.879  18.303  0.00  0.00    +0.000 A 
ATOM     33  S   UNL     1       2.513  12.190  18.249  0.00  0.00    +0.000 S 
ENDBRANCH   9  29
TORSDOF 5
ENDMDL
MODEL 9
REMARK VINA RESULT:      -7.6      0.914      1.488
REMARK  Name = 
REMARK  6 active torsions:
REMARK  status: ('A' for Active; 'I' for Inactive)
REMARK    1  A    between atoms: C_1  and  O_2
REMARK    2  A    between atoms: O_2  and  C_3
REMARK    3  A    between atoms: C_6  and  C_7
REMARK    4  A    between atoms: C_12  and  C_13
REMARK    5  A    between atoms: C_16  and  C_17
REMARK    6  A    between atoms: C_25  and  C_26
REMARK                            x       y       z     vdW  Elec       q    Type
REMARK                         _______ _______ _______ _____ _____    ______ ____
ROOT
ATOM      1  C   UNL     1       1.568   8.719  18.870  0.00  0.00    +0.000 C 
ATOM      2  N   UNL     1       1.138   8.877  20.081  0.00  0.00    +0.000 NA
ATOM      3  N   UNL     1       0.313   9.964  20.090  0.00  0.00    +0.000 N 
ATOM      4  C   UNL     1      -0.363  10.411  21.187  0.00  0.00    +0.000 A 
ATOM      5  N   UNL     1      -1.261  11.378  21.199  0.00  0.00    +0.000 NA
ATOM      6  C   UNL     1      -1.761  11.572  22.479  0.00  0.00    +0.000 A 
ATOM      7  C   UNL     1      -1.189  10.777  23.450  0.00  0.00    +0.000 A 
ATOM      8  S   UNL     1      -0.061   9.712  22.751  0.00  0.00    +0.000 S 
ATOM      9  C   UNL     1       0.163  10.592  18.776  0.00  0.00    +0.000 C 
ATOM     10  C   UNL     1       1.049   9.713  17.873  0.00  0.00    +0.000 C 
ENDROOT
BRANCH   1  14
ATOM     11  C   UNL     1       4.355   5.596  17.963  0.00  0.00    +0.000 A 
ATOM     12  C   UNL     1       3.472   5.477  19.035  0.00  0.00    +0.000 A 
ATOM     13  C   UNL     1       2.550   6.488  19.304  0.00  0.00    +0.000 A 
ATOM     14  C   UNL     1       2.518   7.643  18.511  0.00  0.00    +0.000 A 
ATOM     15  C   UNL     1       3.402   7.766  17.436  0.00  0.00    +0.000 A 
ATOM     16  C   UNL     1       4.322   6.743  17.167  0.00  0.00    +0.000 A 
BRANCH  11  18
ATOM     17  C   UNL     1       5.455   4.113  16.485  0.00  0.00    +0.000 C 
ATOM     18  O   UNL     1       5.230   4.555  17.819  0.00  0.00    +0.000 OA
ENDBRANCH  11  18
ENDBRANCH   1  14
BRANCH   6  19
ATOM     19  C   UNL     1      -2.820  12.535  22.756  0.00  0.00    +0.000 A 
ATOM     20  C   UNL     1      -3.935  12.634  21.911  0.00  0.00    +0.000 A 
ATOM     21  C   UNL     1      -4.937  13.575  22.151  0.00  0.00    +0.000 A 
ATOM     22  C   UNL     1      -4.847  14.444  23.245  0.00  0.00    +0.000 A 
ATOM     23  C   UNL     1      -3.735  14.346  24.097  0.00  0.00    +0.000 A 
ATOM     24  C   UNL     1      -2.730  13.400  23.853  0.00  0.00    +0.000 A 
BRANCH  22  25
ATOM     25  C   UNL     1      -5.919  15.476  23.497  0.00  0.00    +0.000 C 
ATOM     26  F   UNL     1      -5.663  16.272  24.574  0.00  0.00    +0.000 F 
ATOM     27  F   UNL     1      -6.090  16.322  22.444  0.00  0.00    +0.000 F 
ATOM     28  F   UNL     1      -7.139  14.917  23.732  0.00  0.00    +0.000 F 
ENDBRANCH  22  25
ENDBRANCH   6  19
BRANCH   9  29
ATOM     29  C   UNL     1       0.602  12.037  18.668  0.00  0.00    +0.000 A 
ATOM     30  C   UNL     1      -0.179  13.176  18.639  0.00  0.00    +0.000 A 
ATOM     31  C   UNL     1       0.595  14.367  18.530  0.00  0.00    +0.000 A 
ATOM     32  C   UNL     1       1.943  14.100  18.487  0.00  0.00    +0.000 A 
ATOM     33  S   UNL     1       2.270  12.424  18.575  0.00  0.00    +0.000 S 
ENDBRANCH   9  29
TORSDOF 5
ENDMDL
