MODEL 1
REMARK VINA RESULT:      -8.6      0.000      0.000
REMARK  Name = 
REMARK  11 active torsions:
REMARK  status: ('A' for Active; 'I' for Inactive)
REMARK    1  A    between atoms: C_1  and  C_2
REMARK    2  A    between atoms: C_5  and  O_6
REMARK    3  A    between atoms: O_6  and  C_7
REMARK    4  A    between atoms: C_12  and  C_13
REMARK    5  A    between atoms: C_13  and  O_14
REMARK    6  A    between atoms: O_14  and  C_15
REMARK    7  A    between atoms: C_19  and  C_20
REMARK    8  A    between atoms: C_20  and  O_22
REMARK    9  A    between atoms: N_24  and  C_25
REMARK   10  A    between atoms: C_27  and  C_28
REMARK   11  A    between atoms: C_29  and  C_30
REMARK                            x       y       z     vdW  Elec       q    Type
REMARK                         _______ _______ _______ _____ _____    ______ ____
ROOT
ATOM      1  C   UNL     1       1.156   9.499  19.313  0.00  0.00    +0.000 A 
ATOM      2  C   UNL     1       1.808   9.631  18.082  0.00  0.00    +0.000 A 
ATOM      3  C   UNL     1       2.479   8.552  17.515  0.00  0.00    +0.000 A 
ATOM      4  C   UNL     1       2.558   7.357  18.234  0.00  0.00    +0.000 A 
ATOM      5  N   UNL     1       3.158   6.197  17.846  0.00  0.00    +0.000 NA
ATOM      6  C   UNL     1       3.010   5.363  18.851  0.00  0.00    +0.000 A 
ATOM      7  N   UNL     1       2.330   5.961  19.891  0.00  0.00    +0.000 N 
ATOM      8  C   UNL     1       2.016   5.336  21.153  0.00  0.00    +0.000 C 
ATOM      9  C   UNL     1       1.989   7.249  19.506  0.00  0.00    +0.000 A 
ATOM     10  C   UNL     1       1.268   8.316  20.098  0.00  0.00    +0.000 A 
ATOM     11  C   UNL     1       0.640   8.305  21.467  0.00  0.00    +0.000 C 
ENDROOT
BRANCH   1  12
ATOM     12  O   UNL     1       0.412  10.527  19.874  0.00  0.00    +0.000 OA
BRANCH  12  17
ATOM     13  C   UNL     1      -4.711  12.046  18.121  0.00  0.00    +0.000 C 
ATOM     14  C   UNL     1      -3.363  11.570  18.569  0.00  0.00    +0.000 A 
ATOM     15  C   UNL     1      -2.733  10.511  17.931  0.00  0.00    +0.000 A 
ATOM     16  C   UNL     1      -1.476  10.112  18.379  0.00  0.00    +0.000 A 
ATOM     17  C   UNL     1      -0.850  10.815  19.411  0.00  0.00    +0.000 A 
ATOM     18  C   UNL     1      -1.575  11.826  20.043  0.00  0.00    +0.000 A 
ATOM     19  C   UNL     1      -1.053  12.552  21.249  0.00  0.00    +0.000 C 
ATOM     20  N   UNL     1      -2.813  12.211  19.627  0.00  0.00    +0.000 NA
ENDBRANCH  12  17
ENDBRANCH   1  12
BRANCH   6  21
ATOM     21  C   UNL     1       3.467   3.946  18.821  0.00  0.00    +0.000 C 
BRANCH  21  22
ATOM     22  O   UNL     1       4.831   3.919  19.250  0.00  0.00    +0.000 OA
BRANCH  22  23
ATOM     23  C   UNL     1       5.705   4.574  18.424  0.00  0.00    +0.000 A 
ATOM     24  C   UNL     1       6.485   5.563  19.027  0.00  0.00    +0.000 A 
ATOM     25  C   UNL     1       7.449   6.251  18.287  0.00  0.00    +0.000 A 
ATOM     26  C   UNL     1       7.606   5.980  16.928  0.00  0.00    +0.000 A 
ATOM     27  C   UNL     1       6.785   5.035  16.306  0.00  0.00    +0.000 A 
ATOM     28  C   UNL     1       5.843   4.323  17.057  0.00  0.00    +0.000 A 
BRANCH  27  29
ATOM     29  C   UNL     1       6.972   4.764  14.860  0.00  0.00    +0.000 C 
ATOM     30  O   UNL     1       6.327   3.913  14.265  0.00  0.00    +0.000 OA
BRANCH  29  31
ATOM     31  O   UNL     1       7.918   5.520  14.266  0.00  0.00    +0.000 OA
ATOM     32  H   UNL     1       8.840   5.284  14.476  0.00  0.00    +0.000 HD
ENDBRANCH  29  31
ENDBRANCH  27  29
ENDBRANCH  22  23
ENDBRANCH  21  22
ENDBRANCH   6  21
TORSDOF 7
ENDMDL
MODEL 2
REMARK VINA RESULT:      -8.6      2.774      4.411
REMARK  Name = 
REMARK  11 active torsions:
REMARK  status: ('A' for Active; 'I' for Inactive)
REMARK    1  A    between atoms: C_1  and  C_2
REMARK    2  A    between atoms: C_5  and  O_6
REMARK    3  A    between atoms: O_6  and  C_7
REMARK    4  A    between atoms: C_12  and  C_13
REMARK    5  A    between atoms: C_13  and  O_14
REMARK    6  A    between atoms: O_14  and  C_15
REMARK    7  A    between atoms: C_19  and  C_20
REMARK    8  A    between atoms: C_20  and  O_22
REMARK    9  A    between atoms: N_24  and  C_25
REMARK   10  A    between atoms: C_27  and  C_28
REMARK   11  A    between atoms: C_29  and  C_30
REMARK                            x       y       z     vdW  Elec       q    Type
REMARK                         _______ _______ _______ _____ _____    ______ ____
ROOT
ATOM      1  C   UNL     1      -1.189  11.503  21.852  0.00  0.00    +0.000 A 
ATOM      2  C   UNL     1      -1.099  10.688  22.986  0.00  0.00    +0.000 A 
ATOM      3  C   UNL     1      -0.283   9.562  22.987  0.00  0.00    +0.000 A 
ATOM      4  C   UNL     1       0.385   9.214  21.810  0.00  0.00    +0.000 A 
ATOM      5  N   UNL     1       1.229   8.162  21.619  0.00  0.00    +0.000 NA
ATOM      6  C   UNL     1       1.587   8.215  20.355  0.00  0.00    +0.000 A 
ATOM      7  N   UNL     1       0.985   9.278  19.717  0.00  0.00    +0.000 N 
ATOM      8  C   UNL     1       1.143   9.615  18.323  0.00  0.00    +0.000 C 
ATOM      9  C   UNL     1       0.224   9.971  20.646  0.00  0.00    +0.000 A 
ATOM     10  C   UNL     1      -0.572  11.144  20.619  0.00  0.00    +0.000 A 
ATOM     11  C   UNL     1      -0.824  12.011  19.415  0.00  0.00    +0.000 C 
ENDROOT
BRANCH   1  12
ATOM     12  O   UNL     1      -1.931  12.675  21.835  0.00  0.00    +0.000 OA
BRANCH  12  17
ATOM     13  C   UNL     1      -7.087  12.758  24.079  0.00  0.00    +0.000 C 
ATOM     14  C   UNL     1      -5.691  12.784  23.536  0.00  0.00    +0.000 A 
ATOM     15  C   UNL     1      -4.600  12.928  24.380  0.00  0.00    +0.000 A 
ATOM     16  C   UNL     1      -3.322  12.937  23.827  0.00  0.00    +0.000 A 
ATOM     17  C   UNL     1      -3.157  12.740  22.454  0.00  0.00    +0.000 A 
ATOM     18  C   UNL     1      -4.305  12.666  21.664  0.00  0.00    +0.000 A 
ATOM     19  C   UNL     1      -4.244  12.593  20.166  0.00  0.00    +0.000 C 
ATOM     20  N   UNL     1      -5.560  12.678  22.192  0.00  0.00    +0.000 NA
ENDBRANCH  12  17
ENDBRANCH   1  12
BRANCH   6  21
ATOM     21  C   UNL     1       2.564   7.278  19.735  0.00  0.00    +0.000 C 
BRANCH  21  22
ATOM     22  O   UNL     1       1.915   6.637  18.634  0.00  0.00    +0.000 OA
BRANCH  22  23
ATOM     23  C   UNL     1       2.655   5.661  18.021  0.00  0.00    +0.000 A 
ATOM     24  C   UNL     1       2.043   4.411  17.915  0.00  0.00    +0.000 A 
ATOM     25  C   UNL     1       2.687   3.362  17.256  0.00  0.00    +0.000 A 
ATOM     26  C   UNL     1       3.968   3.550  16.736  0.00  0.00    +0.000 A 
ATOM     27  C   UNL     1       4.609   4.781  16.894  0.00  0.00    +0.000 A 
ATOM     28  C   UNL     1       3.948   5.841  17.525  0.00  0.00    +0.000 A 
BRANCH  27  29
ATOM     29  C   UNL     1       5.970   4.957  16.331  0.00  0.00    +0.000 C 
ATOM     30  O   UNL     1       6.224   5.800  15.483  0.00  0.00    +0.000 OA
BRANCH  29  31
ATOM     31  O   UNL     1       6.894   4.105  16.822  0.00  0.00    +0.000 OA
ATOM     32  H   UNL     1       6.990   4.102  17.792  0.00  0.00    +0.000 HD
ENDBRANCH  29  31
ENDBRANCH  27  29
ENDBRANCH  22  23
ENDBRANCH  21  22
ENDBRANCH   6  21
TORSDOF 7
ENDMDL
MODEL 3
REMARK VINA RESULT:      -8.6      1.644      2.401
REMARK  Name = 
REMARK  11 active torsions:
REMARK  status: ('A' for Active; 'I' for Inactive)
REMARK    1  A    between atoms: C_1  and  C_2
REMARK    2  A    between atoms: C_5  and  O_6
REMARK    3  A    between atoms: O_6  and  C_7
REMARK    4  A    between atoms: C_12  and  C_13
REMARK    5  A    between atoms: C_13  and  O_14
REMARK    6  A    between atoms: O_14  and  C_15
REMARK    7  A    between atoms: C_19  and  C_20
REMARK    8  A    between atoms: C_20  and  O_22
REMARK    9  A    between atoms: N_24  and  C_25
REMARK   10  A    between atoms: C_27  and  C_28
REMARK   11  A    between atoms: C_29  and  C_30
REMARK                            x       y       z     vdW  Elec       q    Type
REMARK                         _______ _______ _______ _____ _____    ______ ____
ROOT
ATOM      1  C   UNL     1       1.116   9.676  19.508  0.00  0.00    +0.000 A 
ATOM      2  C   UNL     1       1.685   9.820  18.238  0.00  0.00    +0.000 A 
ATOM      3  C   UNL     1       2.278   8.736  17.599  0.00  0.00    +0.000 A 
ATOM      4  C   UNL     1       2.365   7.520  18.281  0.00  0.00    +0.000 A 
ATOM      5  N   UNL     1       2.897   6.352  17.822  0.00  0.00    +0.000 NA
ATOM      6  C   UNL     1       2.791   5.496  18.814  0.00  0.00    +0.000 A 
ATOM      7  N   UNL     1       2.206   6.088  19.914  0.00  0.00    +0.000 N 
ATOM      8  C   UNL     1       1.959   5.439  21.179  0.00  0.00    +0.000 C 
ATOM      9  C   UNL     1       1.883   7.395  19.586  0.00  0.00    +0.000 A 
ATOM     10  C   UNL     1       1.242   8.469  20.254  0.00  0.00    +0.000 A 
ATOM     11  C   UNL     1       0.711   8.441  21.662  0.00  0.00    +0.000 C 
ENDROOT
BRANCH   1  12
ATOM     12  O   UNL     1       0.449  10.712  20.145  0.00  0.00    +0.000 OA
BRANCH  12  17
ATOM     13  C   UNL     1       1.102  16.112  18.720  0.00  0.00    +0.000 C 
ATOM     14  C   UNL     1       1.003  14.666  19.097  0.00  0.00    +0.000 A 
ATOM     15  C   UNL     1       1.993  14.057  19.854  0.00  0.00    +0.000 A 
ATOM     16  C   UNL     1       1.851  12.712  20.186  0.00  0.00    +0.000 A 
ATOM     17  C   UNL     1       0.698  12.021  19.809  0.00  0.00    +0.000 A 
ATOM     18  C   UNL     1      -0.222  12.684  18.995  0.00  0.00    +0.000 A 
ATOM     19  C   UNL     1      -1.426  11.996  18.420  0.00  0.00    +0.000 C 
ATOM     20  N   UNL     1      -0.083  13.993  18.647  0.00  0.00    +0.000 NA
ENDBRANCH  12  17
ENDBRANCH   1  12
BRANCH   6  21
ATOM     21  C   UNL     1       3.196   4.066  18.717  0.00  0.00    +0.000 C 
BRANCH  21  22
ATOM     22  O   UNL     1       4.513   3.949  19.259  0.00  0.00    +0.000 OA
BRANCH  22  23
ATOM     23  C   UNL     1       5.498   4.525  18.501  0.00  0.00    +0.000 A 
ATOM     24  C   UNL     1       6.344   5.408  19.175  0.00  0.00    +0.000 A 
ATOM     25  C   UNL     1       7.417   6.006  18.510  0.00  0.00    +0.000 A 
ATOM     26  C   UNL     1       7.621   5.753  17.153  0.00  0.00    +0.000 A 
ATOM     27  C   UNL     1       6.740   4.918  16.460  0.00  0.00    +0.000 A 
ATOM     28  C   UNL     1       5.686   4.295  17.137  0.00  0.00    +0.000 A 
BRANCH  27  29
ATOM     29  C   UNL     1       6.979   4.664  15.018  0.00  0.00    +0.000 C 
ATOM     30  O   UNL     1       7.668   5.402  14.328  0.00  0.00    +0.000 OA
BRANCH  29  31
ATOM     31  O   UNL     1       6.364   3.565  14.534  0.00  0.00    +0.000 OA
ATOM     32  H   UNL     1       6.915   2.763  14.483  0.00  0.00    +0.000 HD
ENDBRANCH  29  31
ENDBRANCH  27  29
ENDBRANCH  22  23
ENDBRANCH  21  22
ENDBRANCH   6  21
TORSDOF 7
ENDMDL
MODEL 4
REMARK VINA RESULT:      -8.5      2.110      3.565
REMARK  Name = 
REMARK  11 active torsions:
REMARK  status: ('A' for Active; 'I' for Inactive)
REMARK    1  A    between atoms: C_1  and  C_2
REMARK    2  A    between atoms: C_5  and  O_6
REMARK    3  A    between atoms: O_6  and  C_7
REMARK    4  A    between atoms: C_12  and  C_13
REMARK    5  A    between atoms: C_13  and  O_14
REMARK    6  A    between atoms: O_14  and  C_15
REMARK    7  A    between atoms: C_19  and  C_20
REMARK    8  A    between atoms: C_20  and  O_22
REMARK    9  A    between atoms: N_24  and  C_25
REMARK   10  A    between atoms: C_27  and  C_28
REMARK   11  A    between atoms: C_29  and  C_30
REMARK                            x       y       z     vdW  Elec       q    Type
REMARK                         _______ _______ _______ _____ _____    ______ ____
ROOT
ATOM      1  C   UNL     1       1.812   7.612  19.543  0.00  0.00    +0.000 A 
ATOM      2  C   UNL     1       2.253   8.514  18.570  0.00  0.00    +0.000 A 
ATOM      3  C   UNL     1       3.160   8.118  17.593  0.00  0.00    +0.000 A 
ATOM      4  C   UNL     1       3.684   6.824  17.648  0.00  0.00    +0.000 A 
ATOM      5  N   UNL     1       4.569   6.253  16.783  0.00  0.00    +0.000 NA
ATOM      6  C   UNL     1       4.798   5.046  17.250  0.00  0.00    +0.000 A 
ATOM      7  N   UNL     1       4.083   4.822  18.408  0.00  0.00    +0.000 N 
ATOM      8  C   UNL     1       4.118   3.609  19.190  0.00  0.00    +0.000 C 
ATOM      9  C   UNL     1       3.319   5.947  18.674  0.00  0.00    +0.000 A 
ATOM     10  C   UNL     1       2.371   6.307  19.665  0.00  0.00    +0.000 A 
ATOM     11  C   UNL     1       1.931   5.446  20.818  0.00  0.00    +0.000 C 
ENDROOT
BRANCH   1  12
ATOM     12  O   UNL     1       0.852   7.945  20.487  0.00  0.00    +0.000 OA
BRANCH  12  17
ATOM     13  C   UNL     1      -0.650  13.308  21.264  0.00  0.00    +0.000 C 
ATOM     14  C   UNL     1      -0.315  11.869  21.018  0.00  0.00    +0.000 A 
ATOM     15  C   UNL     1      -0.716  11.232  19.853  0.00  0.00    +0.000 A 
ATOM     16  C   UNL     1      -0.371   9.896  19.668  0.00  0.00    +0.000 A 
ATOM     17  C   UNL     1       0.416   9.243  20.619  0.00  0.00    +0.000 A 
ATOM     18  C   UNL     1       0.725   9.931  21.792  0.00  0.00    +0.000 A 
ATOM     19  C   UNL     1       1.447   9.281  22.937  0.00  0.00    +0.000 C 
ATOM     20  N   UNL     1       0.375  11.231  21.994  0.00  0.00    +0.000 NA
ENDBRANCH  12  17
ENDBRANCH   1  12
BRANCH   6  21
ATOM     21  C   UNL     1       5.666   4.048  16.566  0.00  0.00    +0.000 C 
BRANCH  21  22
ATOM     22  O   UNL     1       6.719   4.762  15.913  0.00  0.00    +0.000 OA
BRANCH  22  23
ATOM     23  C   UNL     1       6.778   4.582  14.556  0.00  0.00    +0.000 A 
ATOM     24  C   UNL     1       7.709   5.372  13.879  0.00  0.00    +0.000 A 
ATOM     25  C   UNL     1       7.892   5.226  12.502  0.00  0.00    +0.000 A 
ATOM     26  C   UNL     1       7.109   4.316  11.790  0.00  0.00    +0.000 A 
ATOM     27  C   UNL     1       6.133   3.568  12.454  0.00  0.00    +0.000 A 
ATOM     28  C   UNL     1       5.976   3.692  13.839  0.00  0.00    +0.000 A 
BRANCH  27  29
ATOM     29  C   UNL     1       5.315   2.607  11.675  0.00  0.00    +0.000 C 
ATOM     30  O   UNL     1       5.725   1.497  11.367  0.00  0.00    +0.000 OA
BRANCH  29  31
ATOM     31  O   UNL     1       4.094   3.063  11.327  0.00  0.00    +0.000 OA
ATOM     32  H   UNL     1       3.878   3.004  10.378  0.00  0.00    +0.000 HD
ENDBRANCH  29  31
ENDBRANCH  27  29
ENDBRANCH  22  23
ENDBRANCH  21  22
ENDBRANCH   6  21
TORSDOF 7
ENDMDL
MODEL 5
REMARK VINA RESULT:      -8.5      3.130      4.937
REMARK  Name = 
REMARK  11 active torsions:
REMARK  status: ('A' for Active; 'I' for Inactive)
REMARK    1  A    between atoms: C_1  and  C_2
REMARK    2  A    between atoms: C_5  and  O_6
REMARK    3  A    between atoms: O_6  and  C_7
REMARK    4  A    between atoms: C_12  and  C_13
REMARK    5  A    between atoms: C_13  and  O_14
REMARK    6  A    between atoms: O_14  and  C_15
REMARK    7  A    between atoms: C_19  and  C_20
REMARK    8  A    between atoms: C_20  and  O_22
REMARK    9  A    between atoms: N_24  and  C_25
REMARK   10  A    between atoms: C_27  and  C_28
REMARK   11  A    between atoms: C_29  and  C_30
REMARK                            x       y       z     vdW  Elec       q    Type
REMARK                         _______ _______ _______ _____ _____    ______ ____
ROOT
ATOM      1  C   UNL     1      -0.942  11.501  21.536  0.00  0.00    +0.000 A 
ATOM      2  C   UNL     1      -0.881  10.639  22.636  0.00  0.00    +0.000 A 
ATOM      3  C   UNL     1      -0.137   9.465  22.578  0.00  0.00    +0.000 A 
ATOM      4  C   UNL     1       0.485   9.123  21.374  0.00  0.00    +0.000 A 
ATOM      5  N   UNL     1       1.258   8.028  21.126  0.00  0.00    +0.000 NA
ATOM      6  C   UNL     1       1.593   8.108  19.858  0.00  0.00    +0.000 A 
ATOM      7  N   UNL     1       1.047   9.231  19.273  0.00  0.00    +0.000 N 
ATOM      8  C   UNL     1       1.200   9.611  17.889  0.00  0.00    +0.000 C 
ATOM      9  C   UNL     1       0.350   9.933  20.243  0.00  0.00    +0.000 A 
ATOM     10  C   UNL     1      -0.372  11.153  20.277  0.00  0.00    +0.000 A 
ATOM     11  C   UNL     1      -0.592  12.080  19.112  0.00  0.00    +0.000 C 
ENDROOT
BRANCH   1  12
ATOM     12  O   UNL     1      -1.608  12.717  21.579  0.00  0.00    +0.000 OA
BRANCH  12  17
ATOM     13  C   UNL     1      -6.608  13.039  24.132  0.00  0.00    +0.000 C 
ATOM     14  C   UNL     1      -5.251  13.005  23.501  0.00  0.00    +0.000 A 
ATOM     15  C   UNL     1      -4.106  13.206  24.259  0.00  0.00    +0.000 A 
ATOM     16  C   UNL     1      -2.867  13.156  23.627  0.00  0.00    +0.000 A 
ATOM     17  C   UNL     1      -2.791  12.846  22.268  0.00  0.00    +0.000 A 
ATOM     18  C   UNL     1      -3.988  12.720  21.561  0.00  0.00    +0.000 A 
ATOM     19  C   UNL     1      -4.024  12.523  20.073  0.00  0.00    +0.000 C 
ATOM     20  N   UNL     1      -5.207  12.788  22.165  0.00  0.00    +0.000 NA
ENDBRANCH  12  17
ENDBRANCH   1  12
BRANCH   6  21
ATOM     21  C   UNL     1       2.498   7.137  19.182  0.00  0.00    +0.000 C 
BRANCH  21  22
ATOM     22  O   UNL     1       3.086   6.314  20.192  0.00  0.00    +0.000 OA
BRANCH  22  23
ATOM     23  C   UNL     1       2.762   4.985  20.109  0.00  0.00    +0.000 A 
ATOM     24  C   UNL     1       1.491   4.641  20.572  0.00  0.00    +0.000 A 
ATOM     25  C   UNL     1       1.038   3.322  20.480  0.00  0.00    +0.000 A 
ATOM     26  C   UNL     1       1.876   2.335  19.960  0.00  0.00    +0.000 A 
ATOM     27  C   UNL     1       3.171   2.664  19.553  0.00  0.00    +0.000 A 
ATOM     28  C   UNL     1       3.610   3.991  19.615  0.00  0.00    +0.000 A 
BRANCH  27  29
ATOM     29  C   UNL     1       4.043   1.597  19.003  0.00  0.00    +0.000 C 
ATOM     30  O   UNL     1       3.809   1.045  17.938  0.00  0.00    +0.000 OA
BRANCH  29  31
ATOM     31  O   UNL     1       5.099   1.281  19.780  0.00  0.00    +0.000 OA
ATOM     32  H   UNL     1       4.912   1.201  20.733  0.00  0.00    +0.000 HD
ENDBRANCH  29  31
ENDBRANCH  27  29
ENDBRANCH  22  23
ENDBRANCH  21  22
ENDBRANCH   6  21
TORSDOF 7
ENDMDL
MODEL 6
REMARK VINA RESULT:      -8.4      1.289      1.848
REMARK  Name = 
REMARK  11 active torsions:
REMARK  status: ('A' for Active; 'I' for Inactive)
REMARK    1  A    between atoms: C_1  and  C_2
REMARK    2  A    between atoms: C_5  and  O_6
REMARK    3  A    between atoms: O_6  and  C_7
REMARK    4  A    between atoms: C_12  and  C_13
REMARK    5  A    between atoms: C_13  and  O_14
REMARK    6  A    between atoms: O_14  and  C_15
REMARK    7  A    between atoms: C_19  and  C_20
REMARK    8  A    between atoms: C_20  and  O_22
REMARK    9  A    between atoms: N_24  and  C_25
REMARK   10  A    between atoms: C_27  and  C_28
REMARK   11  A    between atoms: C_29  and  C_30
REMARK                            x       y       z     vdW  Elec       q    Type
REMARK                         _______ _______ _______ _____ _____    ______ ____
ROOT
ATOM      1  C   UNL     1       1.335   9.260  19.211  0.00  0.00    +0.000 A 
ATOM      2  C   UNL     1       1.992   9.357  17.979  0.00  0.00    +0.000 A 
ATOM      3  C   UNL     1       2.665   8.263  17.446  0.00  0.00    +0.000 A 
ATOM      4  C   UNL     1       2.742   7.088  18.199  0.00  0.00    +0.000 A 
ATOM      5  N   UNL     1       3.344   5.918  17.846  0.00  0.00    +0.000 NA
ATOM      6  C   UNL     1       3.193   5.113  18.875  0.00  0.00    +0.000 A 
ATOM      7  N   UNL     1       2.509   5.741  19.894  0.00  0.00    +0.000 N 
ATOM      8  C   UNL     1       2.190   5.151  21.173  0.00  0.00    +0.000 C 
ATOM      9  C   UNL     1       2.169   7.016  19.472  0.00  0.00    +0.000 A 
ATOM     10  C   UNL     1       1.445   8.100  20.031  0.00  0.00    +0.000 A 
ATOM     11  C   UNL     1       0.813   8.128  21.396  0.00  0.00    +0.000 C 
ENDROOT
BRANCH   1  12
ATOM     12  O   UNL     1       0.589  10.303  19.740  0.00  0.00    +0.000 OA
BRANCH  12  17
ATOM     13  C   UNL     1      -4.466  11.868  17.836  0.00  0.00    +0.000 C 
ATOM     14  C   UNL     1      -3.135  11.380  18.320  0.00  0.00    +0.000 A 
ATOM     15  C   UNL     1      -2.470  10.353  17.666  0.00  0.00    +0.000 A 
ATOM     16  C   UNL     1      -1.231   9.943  18.149  0.00  0.00    +0.000 A 
ATOM     17  C   UNL     1      -0.654  10.603  19.236  0.00  0.00    +0.000 A 
ATOM     18  C   UNL     1      -1.413  11.583  19.879  0.00  0.00    +0.000 A 
ATOM     19  C   UNL     1      -0.948  12.259  21.136  0.00  0.00    +0.000 C 
ATOM     20  N   UNL     1      -2.635  11.978  19.428  0.00  0.00    +0.000 NA
ENDBRANCH  12  17
ENDBRANCH   1  12
BRANCH   6  21
ATOM     21  C   UNL     1       3.650   3.696  18.887  0.00  0.00    +0.000 C 
BRANCH  21  22
ATOM     22  O   UNL     1       5.052   3.694  19.169  0.00  0.00    +0.000 OA
BRANCH  22  23
ATOM     23  C   UNL     1       5.814   4.424  18.296  0.00  0.00    +0.000 A 
ATOM     24  C   UNL     1       5.888   3.927  16.993  0.00  0.00    +0.000 A 
ATOM     25  C   UNL     1       6.590   4.626  16.009  0.00  0.00    +0.000 A 
ATOM     26  C   UNL     1       7.258   5.806  16.338  0.00  0.00    +0.000 A 
ATOM     27  C   UNL     1       7.238   6.274  17.654  0.00  0.00    +0.000 A 
ATOM     28  C   UNL     1       6.505   5.590  18.630  0.00  0.00    +0.000 A 
BRANCH  27  29
ATOM     29  C   UNL     1       7.955   7.531  17.978  0.00  0.00    +0.000 C 
ATOM     30  O   UNL     1       7.906   8.518  17.258  0.00  0.00    +0.000 OA
BRANCH  29  31
ATOM     31  O   UNL     1       8.671   7.489  19.121  0.00  0.00    +0.000 OA
ATOM     32  H   UNL     1       9.637   7.412  19.010  0.00  0.00    +0.000 HD
ENDBRANCH  29  31
ENDBRANCH  27  29
ENDBRANCH  22  23
ENDBRANCH  21  22
ENDBRANCH   6  21
TORSDOF 7
ENDMDL
MODEL 7
REMARK VINA RESULT:      -8.4      3.505      5.099
REMARK  Name = 
REMARK  11 active torsions:
REMARK  status: ('A' for Active; 'I' for Inactive)
REMARK    1  A    between atoms: C_1  and  C_2
REMARK    2  A    between atoms: C_5  and  O_6
REMARK    3  A    between atoms: O_6  and  C_7
REMARK    4  A    between atoms: C_12  and  C_13
REMARK    5  A    between atoms: C_13  and  O_14
REMARK    6  A    between atoms: O_14  and  C_15
REMARK    7  A    between atoms: C_19  and  C_20
REMARK    8  A    between atoms: C_20  and  O_22
REMARK    9  A    between atoms: N_24  and  C_25
REMARK   10  A    between atoms: C_27  and  C_28
REMARK   11  A    between atoms: C_29  and  C_30
REMARK                            x       y       z     vdW  Elec       q    Type
REMARK                         _______ _______ _______ _____ _____    ______ ____
ROOT
ATOM      1  C   UNL     1      -0.906  11.828  21.768  0.00  0.00    +0.000 A 
ATOM      2  C   UNL     1      -0.954  11.032  22.917  0.00  0.00    +0.000 A 
ATOM      3  C   UNL     1      -0.316   9.797  22.952  0.00  0.00    +0.000 A 
ATOM      4  C   UNL     1       0.309   9.330  21.792  0.00  0.00    +0.000 A 
ATOM      5  N   UNL     1       0.989   8.160  21.634  0.00  0.00    +0.000 NA
ATOM      6  C   UNL     1       1.368   8.134  20.375  0.00  0.00    +0.000 A 
ATOM      7  N   UNL     1       0.941   9.263  19.709  0.00  0.00    +0.000 N 
ATOM      8  C   UNL     1       1.168   9.545  18.312  0.00  0.00    +0.000 C 
ATOM      9  C   UNL     1       0.280  10.080  20.613  0.00  0.00    +0.000 A 
ATOM     10  C   UNL     1      -0.332  11.358  20.552  0.00  0.00    +0.000 A 
ATOM     11  C   UNL     1      -0.434  12.229  19.329  0.00  0.00    +0.000 C 
ENDROOT
BRANCH   1  12
ATOM     12  O   UNL     1      -1.463  13.098  21.719  0.00  0.00    +0.000 OA
BRANCH  12  17
ATOM     13  C   UNL     1      -6.577  14.318  23.715  0.00  0.00    +0.000 C 
ATOM     14  C   UNL     1      -5.242  13.925  23.161  0.00  0.00    +0.000 A 
ATOM     15  C   UNL     1      -5.145  13.110  22.043  0.00  0.00    +0.000 A 
ATOM     16  C   UNL     1      -3.881  12.782  21.560  0.00  0.00    +0.000 A 
ATOM     17  C   UNL     1      -2.744  13.321  22.166  0.00  0.00    +0.000 A 
ATOM     18  C   UNL     1      -2.920  14.080  23.324  0.00  0.00    +0.000 A 
ATOM     19  C   UNL     1      -1.763  14.593  24.131  0.00  0.00    +0.000 C 
ATOM     20  N   UNL     1      -4.151  14.391  23.816  0.00  0.00    +0.000 NA
ENDBRANCH  12  17
ENDBRANCH   1  12
BRANCH   6  21
ATOM     21  C   UNL     1       2.203   7.050  19.788  0.00  0.00    +0.000 C 
BRANCH  21  22
ATOM     22  O   UNL     1       2.436   6.078  20.810  0.00  0.00    +0.000 OA
BRANCH  22  23
ATOM     23  C   UNL     1       2.315   4.776  20.401  0.00  0.00    +0.000 A 
ATOM     24  C   UNL     1       1.014   4.337  20.148  0.00  0.00    +0.000 A 
ATOM     25  C   UNL     1       0.784   3.045  19.671  0.00  0.00    +0.000 A 
ATOM     26  C   UNL     1       1.856   2.172  19.485  0.00  0.00    +0.000 A 
ATOM     27  C   UNL     1       3.154   2.586  19.796  0.00  0.00    +0.000 A 
ATOM     28  C   UNL     1       3.385   3.892  20.242  0.00  0.00    +0.000 A 
BRANCH  27  29
ATOM     29  C   UNL     1       4.277   1.640  19.589  0.00  0.00    +0.000 C 
ATOM     30  O   UNL     1       5.226   1.571  20.358  0.00  0.00    +0.000 OA
BRANCH  29  31
ATOM     31  O   UNL     1       4.170   0.877  18.483  0.00  0.00    +0.000 OA
ATOM     32  H   UNL     1       3.519   0.153  18.531  0.00  0.00    +0.000 HD
ENDBRANCH  29  31
ENDBRANCH  27  29
ENDBRANCH  22  23
ENDBRANCH  21  22
ENDBRANCH   6  21
TORSDOF 7
ENDMDL
MODEL 8
REMARK VINA RESULT:      -8.3      2.995      4.650
REMARK  Name = 
REMARK  11 active torsions:
REMARK  status: ('A' for Active; 'I' for Inactive)
REMARK    1  A    between atoms: C_1  and  C_2
REMARK    2  A    between atoms: C_5  and  O_6
REMARK    3  A    between atoms: O_6  and  C_7
REMARK    4  A    between atoms: C_12  and  C_13
REMARK    5  A    between atoms: C_13  and  O_14
REMARK    6  A    between atoms: O_14  and  C_15
REMARK    7  A    between atoms: C_19  and  C_20
REMARK    8  A    between atoms: C_20  and  O_22
REMARK    9  A    between atoms: N_24  and  C_25
REMARK   10  A    between atoms: C_27  and  C_28
REMARK   11  A    between atoms: C_29  and  C_30
REMARK                            x       y       z     vdW  Elec       q    Type
REMARK                         _______ _______ _______ _____ _____    ______ ____
ROOT
ATOM      1  C   UNL     1      -0.408  12.047  22.088  0.00  0.00    +0.000 A 
ATOM      2  C   UNL     1      -0.182  12.972  21.063  0.00  0.00    +0.000 A 
ATOM      3  C   UNL     1       0.302  12.558  19.827  0.00  0.00    +0.000 A 
ATOM      4  C   UNL     1       0.635  11.212  19.652  0.00  0.00    +0.000 A 
ATOM      5  N   UNL     1       1.111  10.619  18.521  0.00  0.00    +0.000 NA
ATOM      6  C   UNL     1       1.309   9.358  18.835  0.00  0.00    +0.000 A 
ATOM      7  N   UNL     1       0.978   9.121  20.152  0.00  0.00    +0.000 N 
ATOM      8  C   UNL     1       1.095   7.850  20.827  0.00  0.00    +0.000 C 
ATOM      9  C   UNL     1       0.501  10.300  20.702  0.00  0.00    +0.000 A 
ATOM     10  C   UNL     1      -0.022  10.681  21.963  0.00  0.00    +0.000 A 
ATOM     11  C   UNL     1      -0.185   9.781  23.159  0.00  0.00    +0.000 C 
ENDROOT
BRANCH   1  12
ATOM     12  O   UNL     1      -0.962  12.407  23.307  0.00  0.00    +0.000 OA
BRANCH  12  17
ATOM     13  C   UNL     1      -5.889  15.107  23.532  0.00  0.00    +0.000 C 
ATOM     14  C   UNL     1      -4.614  14.324  23.491  0.00  0.00    +0.000 A 
ATOM     15  C   UNL     1      -4.605  12.994  23.095  0.00  0.00    +0.000 A 
ATOM     16  C   UNL     1      -3.391  12.313  23.064  0.00  0.00    +0.000 A 
ATOM     17  C   UNL     1      -2.207  12.987  23.370  0.00  0.00    +0.000 A 
ATOM     18  C   UNL     1      -2.305  14.304  23.821  0.00  0.00    +0.000 A 
ATOM     19  C   UNL     1      -1.113  15.076  24.306  0.00  0.00    +0.000 C 
ATOM     20  N   UNL     1      -3.489  14.974  23.875  0.00  0.00    +0.000 NA
ENDBRANCH  12  17
ENDBRANCH   1  12
BRANCH   6  21
ATOM     21  C   UNL     1       1.769   8.329  17.861  0.00  0.00    +0.000 C 
BRANCH  21  22
ATOM     22  O   UNL     1       3.069   7.895  18.268  0.00  0.00    +0.000 OA
BRANCH  22  23
ATOM     23  C   UNL     1       3.376   6.604  17.926  0.00  0.00    +0.000 A 
ATOM     24  C   UNL     1       4.654   6.403  17.402  0.00  0.00    +0.000 A 
ATOM     25  C   UNL     1       5.090   5.117  17.076  0.00  0.00    +0.000 A 
ATOM     26  C   UNL     1       4.228   4.031  17.234  0.00  0.00    +0.000 A 
ATOM     27  C   UNL     1       2.927   4.236  17.700  0.00  0.00    +0.000 A 
ATOM     28  C   UNL     1       2.505   5.521  18.058  0.00  0.00    +0.000 A 
BRANCH  27  29
ATOM     29  C   UNL     1       2.031   3.065  17.861  0.00  0.00    +0.000 C 
ATOM     30  O   UNL     1       0.855   3.179  18.178  0.00  0.00    +0.000 OA
BRANCH  29  31
ATOM     31  O   UNL     1       2.622   1.873  17.643  0.00  0.00    +0.000 OA
ATOM     32  H   UNL     1       3.537   1.911  17.311  0.00  0.00    +0.000 HD
ENDBRANCH  29  31
ENDBRANCH  27  29
ENDBRANCH  22  23
ENDBRANCH  21  22
ENDBRANCH   6  21
TORSDOF 7
ENDMDL
MODEL 9
REMARK VINA RESULT:      -8.3      3.300      4.694
REMARK  Name = 
REMARK  11 active torsions:
REMARK  status: ('A' for Active; 'I' for Inactive)
REMARK    1  A    between atoms: C_1  and  C_2
REMARK    2  A    between atoms: C_5  and  O_6
REMARK    3  A    between atoms: O_6  and  C_7
REMARK    4  A    between atoms: C_12  and  C_13
REMARK    5  A    between atoms: C_13  and  O_14
REMARK    6  A    between atoms: O_14  and  C_15
REMARK    7  A    between atoms: C_19  and  C_20
REMARK    8  A    between atoms: C_20  and  O_22
REMARK    9  A    between atoms: N_24  and  C_25
REMARK   10  A    between atoms: C_27  and  C_28
REMARK   11  A    between atoms: C_29  and  C_30
REMARK                            x       y       z     vdW  Elec       q    Type
REMARK                         _______ _______ _______ _____ _____    ______ ____
ROOT
ATOM      1  C   UNL     1      -1.137  11.881  21.274  0.00  0.00    +0.000 A 
ATOM      2  C   UNL     1      -1.132  11.179  22.484  0.00  0.00    +0.000 A 
ATOM      3  C   UNL     1      -0.393  10.009  22.623  0.00  0.00    +0.000 A 
ATOM      4  C   UNL     1       0.281   9.504  21.509  0.00  0.00    +0.000 A 
ATOM      5  N   UNL     1       1.058   8.386  21.450  0.00  0.00    +0.000 NA
ATOM      6  C   UNL     1       1.453   8.290  20.200  0.00  0.00    +0.000 A 
ATOM      7  N   UNL     1       0.941   9.321  19.441  0.00  0.00    +0.000 N 
ATOM      8  C   UNL     1       1.159   9.506  18.026  0.00  0.00    +0.000 C 
ATOM      9  C   UNL     1       0.203  10.150  20.272  0.00  0.00    +0.000 A 
ATOM     10  C   UNL     1      -0.512  11.363  20.104  0.00  0.00    +0.000 A 
ATOM     11  C   UNL     1      -0.672  12.121  18.813  0.00  0.00    +0.000 C 
ENDROOT
BRANCH   1  12
ATOM     12  O   UNL     1      -1.797  13.091  21.119  0.00  0.00    +0.000 OA
BRANCH  12  17
ATOM     13  C   UNL     1      -7.350  13.685  21.777  0.00  0.00    +0.000 C 
ATOM     14  C   UNL     1      -5.885  13.460  21.568  0.00  0.00    +0.000 A 
ATOM     15  C   UNL     1      -5.420  12.776  20.454  0.00  0.00    +0.000 A 
ATOM     16  C   UNL     1      -4.047  12.602  20.300  0.00  0.00    +0.000 A 
ATOM     17  C   UNL     1      -3.166  13.164  21.226  0.00  0.00    +0.000 A 
ATOM     18  C   UNL     1      -3.712  13.782  22.352  0.00  0.00    +0.000 A 
ATOM     19  C   UNL     1      -2.861  14.298  23.475  0.00  0.00    +0.000 C 
ATOM     20  N   UNL     1      -5.053  13.940  22.523  0.00  0.00    +0.000 NA
ENDBRANCH  12  17
ENDBRANCH   1  12
BRANCH   6  21
ATOM     21  C   UNL     1       2.382   7.235  19.707  0.00  0.00    +0.000 C 
BRANCH  21  22
ATOM     22  O   UNL     1       1.946   5.985  20.246  0.00  0.00    +0.000 OA
BRANCH  22  23
ATOM     23  C   UNL     1       2.303   4.887  19.508  0.00  0.00    +0.000 A 
ATOM     24  C   UNL     1       1.752   4.811  18.228  0.00  0.00    +0.000 A 
ATOM     25  C   UNL     1       2.096   3.763  17.371  0.00  0.00    +0.000 A 
ATOM     26  C   UNL     1       2.962   2.762  17.812  0.00  0.00    +0.000 A 
ATOM     27  C   UNL     1       3.467   2.800  19.114  0.00  0.00    +0.000 A 
ATOM     28  C   UNL     1       3.147   3.870  19.958  0.00  0.00    +0.000 A 
BRANCH  27  29
ATOM     29  C   UNL     1       4.386   1.725  19.559  0.00  0.00    +0.000 C 
ATOM     30  O   UNL     1       5.061   1.819  20.574  0.00  0.00    +0.000 OA
BRANCH  29  31
ATOM     31  O   UNL     1       4.424   0.649  18.747  0.00  0.00    +0.000 OA
ATOM     32  H   UNL     1       3.874  -0.107  19.024  0.00  0.00    +0.000 HD
ENDBRANCH  29  31
ENDBRANCH  27  29
ENDBRANCH  22  23
ENDBRANCH  21  22
ENDBRANCH   6  21
TORSDOF 7
ENDMDL
