MODEL 1
REMARK VINA RESULT:      -7.4      0.000      0.000
REMARK  Name = 
REMARK  2 active torsions:
REMARK  status: ('A' for Active; 'I' for Inactive)
REMARK    1  A    between atoms: C_1  and  N_2
REMARK    2  A    between atoms: C_7  and  C_8
REMARK                            x       y       z     vdW  Elec       q    Type
REMARK                         _______ _______ _______ _____ _____    ______ ____
ROOT
ATOM      1  C   UNL     1       2.199   2.534  20.917  0.00  0.00    +0.000 C 
ATOM      2  N   UNL     1       2.738   3.331  19.832  0.00  0.00    +0.000 N 
ATOM      3  C   UNL     1       1.801   4.134  19.045  0.00  0.00    +0.000 C 
ATOM      4  C   UNL     1       2.364   4.978  17.907  0.00  0.00    +0.000 C 
ATOM      5  N   UNL     1       3.777   4.794  17.710  0.00  0.00    +0.000 N 
ATOM      6  N   UNL     1       4.413   5.454  16.732  0.00  0.00    +0.000 NA
ATOM      7  C   UNL     1       5.686   5.009  16.811  0.00  0.00    +0.000 A 
ATOM      8  C   UNL     1       5.829   4.119  17.910  0.00  0.00    +0.000 A 
ATOM      9  C   UNL     1       4.568   3.983  18.453  0.00  0.00    +0.000 A 
ATOM     10  C   UNL     1       4.095   3.197  19.551  0.00  0.00    +0.000 C 
ATOM     11  O   UNL     1       4.827   2.454  20.200  0.00  0.00    +0.000 OA
ENDROOT
BRANCH   7  12
ATOM     12  C   UNL     1       6.763   5.446  15.898  0.00  0.00    +0.000 C 
ATOM     13  O   UNL     1       7.624   6.232  16.297  0.00  0.00    +0.000 OA
ATOM     14  N   UNL     1       6.784   4.931  14.586  0.00  0.00    +0.000 N 
ATOM     15  C   UNL     1       7.857   5.395  13.713  0.00  0.00    +0.000 C 
ATOM     16  C   UNL     1       7.487   5.281  12.236  0.00  0.00    +0.000 C 
ATOM     17  C   UNL     1       6.979   3.884  11.888  0.00  0.00    +0.000 C 
ATOM     18  C   UNL     1       5.836   3.489  12.813  0.00  0.00    +0.000 C 
ATOM     19  C   UNL     1       6.257   3.600  14.272  0.00  0.00    +0.000 C 
ENDBRANCH   7  12
TORSDOF 1
ENDMDL
MODEL 2
REMARK VINA RESULT:      -7.1      1.482      1.858
REMARK  Name = 
REMARK  2 active torsions:
REMARK  status: ('A' for Active; 'I' for Inactive)
REMARK    1  A    between atoms: C_1  and  N_2
REMARK    2  A    between atoms: C_7  and  C_8
REMARK                            x       y       z     vdW  Elec       q    Type
REMARK                         _______ _______ _______ _____ _____    ______ ____
ROOT
ATOM      1  C   UNL     1       0.755   2.937  19.504  0.00  0.00    +0.000 C 
ATOM      2  N   UNL     1       2.128   3.211  19.124  0.00  0.00    +0.000 N 
ATOM      3  C   UNL     1       3.177   2.907  20.097  0.00  0.00    +0.000 C 
ATOM      4  C   UNL     1       4.623   3.188  19.700  0.00  0.00    +0.000 C 
ATOM      5  N   UNL     1       4.744   3.813  18.410  0.00  0.00    +0.000 N 
ATOM      6  N   UNL     1       5.953   4.141  17.932  0.00  0.00    +0.000 NA
ATOM      7  C   UNL     1       5.687   4.737  16.750  0.00  0.00    +0.000 A 
ATOM      8  C   UNL     1       4.291   4.696  16.481  0.00  0.00    +0.000 A 
ATOM      9  C   UNL     1       3.710   4.114  17.590  0.00  0.00    +0.000 A 
ATOM     10  C   UNL     1       2.340   3.840  17.901  0.00  0.00    +0.000 C 
ATOM     11  O   UNL     1       1.416   4.139  17.149  0.00  0.00    +0.000 OA
ENDROOT
BRANCH   7  12
ATOM     12  C   UNL     1       6.728   5.296  15.862  0.00  0.00    +0.000 C 
ATOM     13  O   UNL     1       7.529   6.122  16.302  0.00  0.00    +0.000 OA
ATOM     14  N   UNL     1       6.786   4.847  14.528  0.00  0.00    +0.000 N 
ATOM     15  C   UNL     1       7.822   5.431  13.681  0.00  0.00    +0.000 C 
ATOM     16  C   UNL     1       7.461   5.361  12.199  0.00  0.00    +0.000 C 
ATOM     17  C   UNL     1       7.056   3.950  11.782  0.00  0.00    +0.000 C 
ATOM     18  C   UNL     1       5.946   3.427  12.684  0.00  0.00    +0.000 C 
ATOM     19  C   UNL     1       6.358   3.498  14.148  0.00  0.00    +0.000 C 
ENDBRANCH   7  12
TORSDOF 1
ENDMDL
MODEL 3
REMARK VINA RESULT:      -6.7      1.222      1.233
REMARK  Name = 
REMARK  2 active torsions:
REMARK  status: ('A' for Active; 'I' for Inactive)
REMARK    1  A    between atoms: C_1  and  N_2
REMARK    2  A    between atoms: C_7  and  C_8
REMARK                            x       y       z     vdW  Elec       q    Type
REMARK                         _______ _______ _______ _____ _____    ______ ____
ROOT
ATOM      1  C   UNL     1       0.874   3.182  19.713  0.00  0.00    +0.000 C 
ATOM      2  N   UNL     1       1.925   4.007  19.148  0.00  0.00    +0.000 N 
ATOM      3  C   UNL     1       1.913   5.436  19.464  0.00  0.00    +0.000 C 
ATOM      4  C   UNL     1       3.020   6.306  18.878  0.00  0.00    +0.000 C 
ATOM      5  N   UNL     1       3.900   5.586  17.998  0.00  0.00    +0.000 N 
ATOM      6  N   UNL     1       4.911   6.221  17.388  0.00  0.00    +0.000 NA
ATOM      7  C   UNL     1       5.483   5.267  16.622  0.00  0.00    +0.000 A 
ATOM      8  C   UNL     1       4.844   4.015  16.836  0.00  0.00    +0.000 A 
ATOM      9  C   UNL     1       3.808   4.265  17.713  0.00  0.00    +0.000 A 
ATOM     10  C   UNL     1       2.810   3.399  18.263  0.00  0.00    +0.000 C 
ATOM     11  O   UNL     1       2.734   2.207  17.977  0.00  0.00    +0.000 OA
ENDROOT
BRANCH   7  12
ATOM     12  C   UNL     1       6.639   5.515  15.736  0.00  0.00    +0.000 C 
ATOM     13  O   UNL     1       7.571   6.219  16.126  0.00  0.00    +0.000 OA
ATOM     14  N   UNL     1       6.650   4.914  14.460  0.00  0.00    +0.000 N 
ATOM     15  C   UNL     1       7.804   5.192  13.612  0.00  0.00    +0.000 C 
ATOM     16  C   UNL     1       7.482   5.024  12.129  0.00  0.00    +0.000 C 
ATOM     17  C   UNL     1       6.825   3.676  11.843  0.00  0.00    +0.000 C 
ATOM     18  C   UNL     1       5.607   3.479  12.736  0.00  0.00    +0.000 C 
ATOM     19  C   UNL     1       5.981   3.636  14.204  0.00  0.00    +0.000 C 
ENDBRANCH   7  12
TORSDOF 1
ENDMDL
MODEL 4
REMARK VINA RESULT:      -6.6      1.448      1.609
REMARK  Name = 
REMARK  2 active torsions:
REMARK  status: ('A' for Active; 'I' for Inactive)
REMARK    1  A    between atoms: C_1  and  N_2
REMARK    2  A    between atoms: C_7  and  C_8
REMARK                            x       y       z     vdW  Elec       q    Type
REMARK                         _______ _______ _______ _____ _____    ______ ____
ROOT
ATOM      1  C   UNL     1       1.073   3.711  20.453  0.00  0.00    +0.000 C 
ATOM      2  N   UNL     1       2.102   3.592  19.438  0.00  0.00    +0.000 N 
ATOM      3  C   UNL     1       2.389   2.258  18.911  0.00  0.00    +0.000 C 
ATOM      4  C   UNL     1       3.467   2.129  17.839  0.00  0.00    +0.000 C 
ATOM      5  N   UNL     1       4.129   3.373  17.549  0.00  0.00    +0.000 N 
ATOM      6  N   UNL     1       5.115   3.416  16.643  0.00  0.00    +0.000 NA
ATOM      7  C   UNL     1       5.525   4.702  16.666  0.00  0.00    +0.000 A 
ATOM      8  C   UNL     1       4.714   5.462  17.553  0.00  0.00    +0.000 A 
ATOM      9  C   UNL     1       3.838   4.563  18.127  0.00  0.00    +0.000 A 
ATOM     10  C   UNL     1       2.815   4.743  19.111  0.00  0.00    +0.000 C 
ATOM     11  O   UNL     1       2.581   5.828  19.635  0.00  0.00    +0.000 OA
ENDROOT
BRANCH   7  12
ATOM     12  C   UNL     1       6.631   5.223  15.835  0.00  0.00    +0.000 C 
ATOM     13  O   UNL     1       7.465   5.982  16.331  0.00  0.00    +0.000 OA
ATOM     14  N   UNL     1       6.710   4.815  14.488  0.00  0.00    +0.000 N 
ATOM     15  C   UNL     1       7.810   5.360  13.699  0.00  0.00    +0.000 C 
ATOM     16  C   UNL     1       7.501   5.362  12.204  0.00  0.00    +0.000 C 
ATOM     17  C   UNL     1       7.025   3.994  11.724  0.00  0.00    +0.000 C 
ATOM     18  C   UNL     1       5.852   3.513  12.568  0.00  0.00    +0.000 C 
ATOM     19  C   UNL     1       6.214   3.510  14.047  0.00  0.00    +0.000 C 
ENDBRANCH   7  12
TORSDOF 1
ENDMDL
MODEL 5
REMARK VINA RESULT:      -6.4      4.543      6.687
REMARK  Name = 
REMARK  2 active torsions:
REMARK  status: ('A' for Active; 'I' for Inactive)
REMARK    1  A    between atoms: C_1  and  N_2
REMARK    2  A    between atoms: C_7  and  C_8
REMARK                            x       y       z     vdW  Elec       q    Type
REMARK                         _______ _______ _______ _____ _____    ______ ____
ROOT
ATOM      1  C   UNL     1      -0.613  11.474  20.646  0.00  0.00    +0.000 C 
ATOM      2  N   UNL     1       0.241  10.484  20.020  0.00  0.00    +0.000 N 
ATOM      3  C   UNL     1       0.492  10.611  18.584  0.00  0.00    +0.000 C 
ATOM      4  C   UNL     1       1.394   9.576  17.921  0.00  0.00    +0.000 C 
ATOM      5  N   UNL     1       1.819   8.536  18.820  0.00  0.00    +0.000 N 
ATOM      6  N   UNL     1       2.601   7.541  18.378  0.00  0.00    +0.000 NA
ATOM      7  C   UNL     1       2.755   6.742  19.456  0.00  0.00    +0.000 A 
ATOM      8  C   UNL     1       2.112   7.314  20.588  0.00  0.00    +0.000 A 
ATOM      9  C   UNL     1       1.494   8.461  20.133  0.00  0.00    +0.000 A 
ATOM     10  C   UNL     1       0.680   9.424  20.809  0.00  0.00    +0.000 C 
ATOM     11  O   UNL     1       0.383   9.327  21.996  0.00  0.00    +0.000 OA
ENDROOT
BRANCH   7  12
ATOM     12  C   UNL     1       3.532   5.486  19.439  0.00  0.00    +0.000 C 
ATOM     13  O   UNL     1       4.752   5.517  19.604  0.00  0.00    +0.000 OA
ATOM     14  N   UNL     1       2.842   4.271  19.249  0.00  0.00    +0.000 N 
ATOM     15  C   UNL     1       3.646   3.054  19.227  0.00  0.00    +0.000 C 
ATOM     16  C   UNL     1       2.961   1.925  18.461  0.00  0.00    +0.000 C 
ATOM     17  C   UNL     1       1.530   1.702  18.943  0.00  0.00    +0.000 C 
ATOM     18  C   UNL     1       0.745   3.006  18.897  0.00  0.00    +0.000 C 
ATOM     19  C   UNL     1       1.456   4.094  19.690  0.00  0.00    +0.000 C 
ENDBRANCH   7  12
TORSDOF 1
ENDMDL
MODEL 6
REMARK VINA RESULT:      -6.4      1.075      1.089
REMARK  Name = 
REMARK  2 active torsions:
REMARK  status: ('A' for Active; 'I' for Inactive)
REMARK    1  A    between atoms: C_1  and  N_2
REMARK    2  A    between atoms: C_7  and  C_8
REMARK                            x       y       z     vdW  Elec       q    Type
REMARK                         _______ _______ _______ _____ _____    ______ ____
ROOT
ATOM      1  C   UNL     1       1.381   3.260  21.515  0.00  0.00    +0.000 C 
ATOM      2  N   UNL     1       2.178   4.019  20.571  0.00  0.00    +0.000 N 
ATOM      3  C   UNL     1       1.619   5.272  20.062  0.00  0.00    +0.000 C 
ATOM      4  C   UNL     1       2.456   6.078  19.073  0.00  0.00    +0.000 C 
ATOM      5  N   UNL     1       3.684   5.424  18.706  0.00  0.00    +0.000 N 
ATOM      6  N   UNL     1       4.517   6.000  17.828  0.00  0.00    +0.000 NA
ATOM      7  C   UNL     1       5.517   5.103  17.689  0.00  0.00    +0.000 A 
ATOM      8  C   UNL     1       5.313   3.999  18.562  0.00  0.00    +0.000 A 
ATOM      9  C   UNL     1       4.104   4.229  19.185  0.00  0.00    +0.000 A 
ATOM     10  C   UNL     1       3.373   3.451  20.138  0.00  0.00    +0.000 C 
ATOM     11  O   UNL     1       3.764   2.361  20.545  0.00  0.00    +0.000 OA
ENDROOT
BRANCH   7  12
ATOM     12  C   UNL     1       6.670   5.298  16.786  0.00  0.00    +0.000 C 
ATOM     13  O   UNL     1       7.692   5.844  17.204  0.00  0.00    +0.000 OA
ATOM     14  N   UNL     1       6.573   4.829  15.460  0.00  0.00    +0.000 N 
ATOM     15  C   UNL     1       7.729   5.050  14.597  0.00  0.00    +0.000 C 
ATOM     16  C   UNL     1       7.348   5.068  13.118  0.00  0.00    +0.000 C 
ATOM     17  C   UNL     1       6.524   3.843  12.732  0.00  0.00    +0.000 C 
ATOM     18  C   UNL     1       5.316   3.705  13.649  0.00  0.00    +0.000 C 
ATOM     19  C   UNL     1       5.746   3.671  15.110  0.00  0.00    +0.000 C 
ENDBRANCH   7  12
TORSDOF 1
ENDMDL
MODEL 7
REMARK VINA RESULT:      -6.2      4.316      7.049
REMARK  Name = 
REMARK  2 active torsions:
REMARK  status: ('A' for Active; 'I' for Inactive)
REMARK    1  A    between atoms: C_1  and  N_2
REMARK    2  A    between atoms: C_7  and  C_8
REMARK                            x       y       z     vdW  Elec       q    Type
REMARK                         _______ _______ _______ _____ _____    ______ ____
ROOT
ATOM      1  C   UNL     1       3.638   1.437  18.255  0.00  0.00    +0.000 C 
ATOM      2  N   UNL     1       3.706   2.875  18.437  0.00  0.00    +0.000 N 
ATOM      3  C   UNL     1       4.870   3.419  19.135  0.00  0.00    +0.000 C 
ATOM      4  C   UNL     1       4.948   4.931  19.323  0.00  0.00    +0.000 C 
ATOM      5  N   UNL     1       3.782   5.622  18.842  0.00  0.00    +0.000 N 
ATOM      6  N   UNL     1       3.694   6.955  18.956  0.00  0.00    +0.000 NA
ATOM      7  C   UNL     1       2.474   7.247  18.455  0.00  0.00    +0.000 A 
ATOM      8  C   UNL     1       1.850   6.069  17.962  0.00  0.00    +0.000 A 
ATOM      9  C   UNL     1       2.715   5.033  18.252  0.00  0.00    +0.000 A 
ATOM     10  C   UNL     1       2.608   3.625  18.023  0.00  0.00    +0.000 C 
ATOM     11  O   UNL     1       1.622   3.109  17.503  0.00  0.00    +0.000 OA
ENDROOT
BRANCH   7  12
ATOM     12  C   UNL     1       1.920   8.616  18.399  0.00  0.00    +0.000 C 
ATOM     13  O   UNL     1       1.898   9.224  17.328  0.00  0.00    +0.000 OA
ATOM     14  N   UNL     1       1.408   9.184  19.583  0.00  0.00    +0.000 N 
ATOM     15  C   UNL     1       0.879  10.540  19.487  0.00  0.00    +0.000 C 
ATOM     16  C   UNL     1       0.907  11.265  20.830  0.00  0.00    +0.000 C 
ATOM     17  C   UNL     1       0.258  10.434  21.934  0.00  0.00    +0.000 C 
ATOM     18  C   UNL     1       0.890   9.050  21.998  0.00  0.00    +0.000 C 
ATOM     19  C   UNL     1       0.821   8.360  20.643  0.00  0.00    +0.000 C 
ENDBRANCH   7  12
TORSDOF 1
ENDMDL
MODEL 8
REMARK VINA RESULT:      -6.2      4.410      6.732
REMARK  Name = 
REMARK  2 active torsions:
REMARK  status: ('A' for Active; 'I' for Inactive)
REMARK    1  A    between atoms: C_1  and  N_2
REMARK    2  A    between atoms: C_7  and  C_8
REMARK                            x       y       z     vdW  Elec       q    Type
REMARK                         _______ _______ _______ _____ _____    ______ ____
ROOT
ATOM      1  C   UNL     1      -0.193  11.771  19.345  0.00  0.00    +0.000 C 
ATOM      2  N   UNL     1       0.334  10.478  19.739  0.00  0.00    +0.000 N 
ATOM      3  C   UNL     1       0.048  10.012  21.096  0.00  0.00    +0.000 C 
ATOM      4  C   UNL     1       0.595   8.650  21.514  0.00  0.00    +0.000 C 
ATOM      5  N   UNL     1       1.414   8.035  20.504  0.00  0.00    +0.000 N 
ATOM      6  N   UNL     1       1.984   6.843  20.732  0.00  0.00    +0.000 NA
ATOM      7  C   UNL     1       2.701   6.603  19.613  0.00  0.00    +0.000 A 
ATOM      8  C   UNL     1       2.494   7.642  18.664  0.00  0.00    +0.000 A 
ATOM      9  C   UNL     1       1.676   8.564  19.284  0.00  0.00    +0.000 A 
ATOM     10  C   UNL     1       1.161   9.820  18.833  0.00  0.00    +0.000 C 
ATOM     11  O   UNL     1       1.426  10.289  17.730  0.00  0.00    +0.000 OA
ENDROOT
BRANCH   7  12
ATOM     12  C   UNL     1       3.531   5.397  19.417  0.00  0.00    +0.000 C 
ATOM     13  O   UNL     1       4.757   5.476  19.508  0.00  0.00    +0.000 OA
ATOM     14  N   UNL     1       2.887   4.173  19.148  0.00  0.00    +0.000 N 
ATOM     15  C   UNL     1       3.743   3.007  18.951  0.00  0.00    +0.000 C 
ATOM     16  C   UNL     1       3.060   1.926  18.117  0.00  0.00    +0.000 C 
ATOM     17  C   UNL     1       1.676   1.581  18.663  0.00  0.00    +0.000 C 
ATOM     18  C   UNL     1       0.831   2.841  18.801  0.00  0.00    +0.000 C 
ATOM     19  C   UNL     1       1.543   3.880  19.655  0.00  0.00    +0.000 C 
ENDBRANCH   7  12
TORSDOF 1
ENDMDL
MODEL 9
REMARK VINA RESULT:      -6.2      4.938      7.058
REMARK  Name = 
REMARK  2 active torsions:
REMARK  status: ('A' for Active; 'I' for Inactive)
REMARK    1  A    between atoms: C_1  and  N_2
REMARK    2  A    between atoms: C_7  and  C_8
REMARK                            x       y       z     vdW  Elec       q    Type
REMARK                         _______ _______ _______ _____ _____    ______ ____
ROOT
ATOM      1  C   UNL     1      -0.857  11.542  22.322  0.00  0.00    +0.000 C 
ATOM      2  N   UNL     1      -0.165  10.801  21.285  0.00  0.00    +0.000 N 
ATOM      3  C   UNL     1      -0.267  11.294  19.912  0.00  0.00    +0.000 C 
ATOM      4  C   UNL     1       0.465  10.521  18.819  0.00  0.00    +0.000 C 
ATOM      5  N   UNL     1       1.105   9.327  19.301  0.00  0.00    +0.000 N 
ATOM      6  N   UNL     1       1.771   8.530  18.454  0.00  0.00    +0.000 NA
ATOM      7  C   UNL     1       2.189   7.505  19.228  0.00  0.00    +0.000 A 
ATOM      8  C   UNL     1       1.828   7.734  20.584  0.00  0.00    +0.000 A 
ATOM      9  C   UNL     1       1.105   8.909  20.590  0.00  0.00    +0.000 A 
ATOM     10  C   UNL     1       0.464   9.615  21.657  0.00  0.00    +0.000 C 
ATOM     11  O   UNL     1       0.461   9.208  22.815  0.00  0.00    +0.000 OA
ENDROOT
BRANCH   7  12
ATOM     12  C   UNL     1       2.956   6.351  18.713  0.00  0.00    +0.000 C 
ATOM     13  O   UNL     1       3.998   6.539  18.084  0.00  0.00    +0.000 OA
ATOM     14  N   UNL     1       2.474   5.053  18.977  0.00  0.00    +0.000 N 
ATOM     15  C   UNL     1       3.254   3.941  18.443  0.00  0.00    +0.000 C 
ATOM     16  C   UNL     1       2.408   2.684  18.253  0.00  0.00    +0.000 C 
ATOM     17  C   UNL     1       1.629   2.331  19.518  0.00  0.00    +0.000 C 
ATOM     18  C   UNL     1       0.811   3.526  19.988  0.00  0.00    +0.000 C 
ATOM     19  C   UNL     1       1.699   4.748  20.182  0.00  0.00    +0.000 C 
ENDBRANCH   7  12
TORSDOF 1
ENDMDL
