MODEL 1
REMARK VINA RESULT:      -7.4      0.000      0.000
REMARK  Name = 
REMARK  5 active torsions:
REMARK  status: ('A' for Active; 'I' for Inactive)
REMARK    1  A    between atoms: C_1  and  C_2
REMARK    2  A    between atoms: C_2  and  C_17
REMARK    3  A    between atoms: N_3  and  N_4
REMARK    4  A    between atoms: C_5  and  S_6
REMARK    5  A    between atoms: C_11  and  C_12
REMARK                            x       y       z     vdW  Elec       q    Type
REMARK                         _______ _______ _______ _____ _____    ______ ____
ROOT
ATOM      1  N   UNL     1       2.848   6.266  19.454  0.00  0.00    +0.000 NA
ATOM      2  C   UNL     1       2.454   5.046  19.240  0.00  0.00    +0.000 C 
ATOM      3  N   UNL     1       3.057   4.162  18.390  0.00  0.00    +0.000 N 
ATOM      4  C   UNL     1       4.214   4.322  17.726  0.00  0.00    +0.000 A 
ATOM      5  N   UNL     1       4.816   3.459  16.935  0.00  0.00    +0.000 NA
ATOM      6  C   UNL     1       5.991   4.085  16.588  0.00  0.00    +0.000 A 
ATOM      7  C   UNL     1       6.062   5.323  17.185  0.00  0.00    +0.000 A 
ATOM      8  O   UNL     1       4.913   5.486  17.902  0.00  0.00    +0.000 OA
ATOM      9  H   UNL     1       2.619   3.260  18.318  0.00  0.00    +0.000 HD
ENDROOT
BRANCH   7  10
ATOM     10  C   UNL     1       7.219   6.298  17.122  0.00  0.00    +0.000 C 
ATOM     11  C   UNL     1       6.847   7.806  17.228  0.00  0.00    +0.000 C 
ATOM     12  C   UNL     1       8.064   7.985  18.154  0.00  0.00    +0.000 C 
ATOM     13  C   UNL     1       7.907   6.498  18.511  0.00  0.00    +0.000 C 
ENDBRANCH   7  10
BRANCH   1  16
ATOM     14  C   UNL     1       1.951   8.653  18.476  0.00  0.00    +0.000 C 
ATOM     15  C   UNL     1       1.705   8.159  19.890  0.00  0.00    +0.000 C 
ATOM     16  N   UNL     1       2.119   7.017  20.363  0.00  0.00    +0.000 NA
BRANCH  15  17
ATOM     17  C   UNL     1       0.894   9.035  20.784  0.00  0.00    +0.000 A 
ATOM     18  C   UNL     1       0.904   8.782  22.161  0.00  0.00    +0.000 A 
ATOM     19  C   UNL     1       0.132   9.561  23.022  0.00  0.00    +0.000 A 
ATOM     20  C   UNL     1      -0.630  10.611  22.515  0.00  0.00    +0.000 A 
ATOM     21  C   UNL     1      -0.627  10.881  21.147  0.00  0.00    +0.000 A 
ATOM     22  C   UNL     1       0.128  10.091  20.279  0.00  0.00    +0.000 A 
ENDBRANCH  15  17
ENDBRANCH   1  16
BRANCH   2  23
ATOM     23  S   UNL     1       1.042   4.368  20.052  0.00  0.00    +0.000 S 
ATOM     24  H   UNL     1       1.699   4.222  21.215  0.00  0.00    +0.000 HD
ENDBRANCH   2  23
TORSDOF 4
ENDMDL
MODEL 2
REMARK VINA RESULT:      -7.4      0.105      1.035
REMARK  Name = 
REMARK  5 active torsions:
REMARK  status: ('A' for Active; 'I' for Inactive)
REMARK    1  A    between atoms: C_1  and  C_2
REMARK    2  A    between atoms: C_2  and  C_17
REMARK    3  A    between atoms: N_3  and  N_4
REMARK    4  A    between atoms: C_5  and  S_6
REMARK    5  A    between atoms: C_11  and  C_12
REMARK                            x       y       z     vdW  Elec       q    Type
REMARK                         _______ _______ _______ _____ _____    ______ ____
ROOT
ATOM      1  N   UNL     1       2.911   6.262  19.404  0.00  0.00    +0.000 NA
ATOM      2  C   UNL     1       2.519   5.049  19.149  0.00  0.00    +0.000 C 
ATOM      3  N   UNL     1       3.132   4.190  18.281  0.00  0.00    +0.000 N 
ATOM      4  C   UNL     1       4.297   4.368  17.636  0.00  0.00    +0.000 A 
ATOM      5  N   UNL     1       4.908   3.528  16.828  0.00  0.00    +0.000 NA
ATOM      6  C   UNL     1       6.088   4.162  16.514  0.00  0.00    +0.000 A 
ATOM      7  C   UNL     1       6.152   5.382  17.148  0.00  0.00    +0.000 A 
ATOM      8  O   UNL     1       4.995   5.525  17.855  0.00  0.00    +0.000 OA
ATOM      9  H   UNL     1       2.694   3.291  18.177  0.00  0.00    +0.000 HD
ENDROOT
BRANCH   7  10
ATOM     10  C   UNL     1       7.311   6.357  17.129  0.00  0.00    +0.000 C 
ATOM     11  C   UNL     1       6.935   7.865  17.232  0.00  0.00    +0.000 C 
ATOM     12  C   UNL     1       8.122   8.038  18.197  0.00  0.00    +0.000 C 
ATOM     13  C   UNL     1       7.953   6.549  18.540  0.00  0.00    +0.000 C 
ENDBRANCH   7  10
BRANCH   1  16
ATOM     14  C   UNL     1       1.954   8.637  18.457  0.00  0.00    +0.000 C 
ATOM     15  C   UNL     1       1.729   8.123  19.867  0.00  0.00    +0.000 C 
ATOM     16  N   UNL     1       2.172   6.986  20.326  0.00  0.00    +0.000 NA
BRANCH  15  17
ATOM     17  C   UNL     1       0.904   8.971  20.776  0.00  0.00    +0.000 A 
ATOM     18  C   UNL     1       0.104   9.974  20.216  0.00  0.00    +0.000 A 
ATOM     19  C   UNL     1      -0.655  10.806  21.039  0.00  0.00    +0.000 A 
ATOM     20  C   UNL     1      -0.639  10.621  22.420  0.00  0.00    +0.000 A 
ATOM     21  C   UNL     1       0.140   9.609  22.981  0.00  0.00    +0.000 A 
ATOM     22  C   UNL     1       0.917   8.788  22.163  0.00  0.00    +0.000 A 
ENDBRANCH  15  17
ENDBRANCH   1  16
BRANCH   2  23
ATOM     23  S   UNL     1       1.097   4.348  19.923  0.00  0.00    +0.000 S 
ATOM     24  H   UNL     1       0.942   3.428  18.955  0.00  0.00    +0.000 HD
ENDBRANCH   2  23
TORSDOF 4
ENDMDL
MODEL 3
REMARK VINA RESULT:      -7.3      4.280      6.299
REMARK  Name = 
REMARK  5 active torsions:
REMARK  status: ('A' for Active; 'I' for Inactive)
REMARK    1  A    between atoms: C_1  and  C_2
REMARK    2  A    between atoms: C_2  and  C_17
REMARK    3  A    between atoms: N_3  and  N_4
REMARK    4  A    between atoms: C_5  and  S_6
REMARK    5  A    between atoms: C_11  and  C_12
REMARK                            x       y       z     vdW  Elec       q    Type
REMARK                         _______ _______ _______ _____ _____    ______ ____
ROOT
ATOM      1  N   UNL     1       5.852   4.248  16.988  0.00  0.00    +0.000 NA
ATOM      2  C   UNL     1       6.729   5.207  16.953  0.00  0.00    +0.000 C 
ATOM      3  N   UNL     1       7.467   5.558  15.858  0.00  0.00    +0.000 N 
ATOM      4  C   UNL     1       7.348   5.091  14.604  0.00  0.00    +0.000 A 
ATOM      5  N   UNL     1       8.032   5.454  13.540  0.00  0.00    +0.000 NA
ATOM      6  C   UNL     1       7.462   4.737  12.514  0.00  0.00    +0.000 A 
ATOM      7  C   UNL     1       6.441   3.951  12.996  0.00  0.00    +0.000 A 
ATOM      8  O   UNL     1       6.377   4.163  14.342  0.00  0.00    +0.000 OA
ATOM      9  H   UNL     1       8.121   6.309  15.997  0.00  0.00    +0.000 HD
ENDROOT
BRANCH   7  10
ATOM     10  C   UNL     1       5.511   3.069  12.188  0.00  0.00    +0.000 C 
ATOM     11  C   UNL     1       3.988   3.305  12.405  0.00  0.00    +0.000 C 
ATOM     12  C   UNL     1       3.805   3.162  10.882  0.00  0.00    +0.000 C 
ATOM     13  C   UNL     1       5.266   3.623  10.748  0.00  0.00    +0.000 C 
ENDBRANCH   7  10
BRANCH   1  16
ATOM     14  C   UNL     1       3.203   3.645  16.711  0.00  0.00    +0.000 C 
ATOM     15  C   UNL     1       3.920   3.765  18.043  0.00  0.00    +0.000 C 
ATOM     16  N   UNL     1       5.186   4.041  18.186  0.00  0.00    +0.000 NA
BRANCH  15  17
ATOM     17  C   UNL     1       3.117   3.505  19.273  0.00  0.00    +0.000 A 
ATOM     18  C   UNL     1       1.853   4.097  19.386  0.00  0.00    +0.000 A 
ATOM     19  C   UNL     1       1.090   3.902  20.537  0.00  0.00    +0.000 A 
ATOM     20  C   UNL     1       1.572   3.094  21.563  0.00  0.00    +0.000 A 
ATOM     21  C   UNL     1       2.821   2.485  21.446  0.00  0.00    +0.000 A 
ATOM     22  C   UNL     1       3.598   2.694  20.306  0.00  0.00    +0.000 A 
ENDBRANCH  15  17
ENDBRANCH   1  16
BRANCH   2  23
ATOM     23  S   UNL     1       7.081   6.198  18.369  0.00  0.00    +0.000 S 
ATOM     24  H   UNL     1       7.895   5.269  18.900  0.00  0.00    +0.000 HD
ENDBRANCH   2  23
TORSDOF 4
ENDMDL
MODEL 4
REMARK VINA RESULT:      -7.3      4.327      6.231
REMARK  Name = 
REMARK  5 active torsions:
REMARK  status: ('A' for Active; 'I' for Inactive)
REMARK    1  A    between atoms: C_1  and  C_2
REMARK    2  A    between atoms: C_2  and  C_17
REMARK    3  A    between atoms: N_3  and  N_4
REMARK    4  A    between atoms: C_5  and  S_6
REMARK    5  A    between atoms: C_11  and  C_12
REMARK                            x       y       z     vdW  Elec       q    Type
REMARK                         _______ _______ _______ _____ _____    ______ ____
ROOT
ATOM      1  N   UNL     1       5.797   4.232  16.991  0.00  0.00    +0.000 NA
ATOM      2  C   UNL     1       6.681   5.185  16.965  0.00  0.00    +0.000 C 
ATOM      3  N   UNL     1       7.431   5.533  15.877  0.00  0.00    +0.000 N 
ATOM      4  C   UNL     1       7.320   5.067  14.622  0.00  0.00    +0.000 A 
ATOM      5  N   UNL     1       8.016   5.426  13.564  0.00  0.00    +0.000 NA
ATOM      6  C   UNL     1       7.451   4.713  12.532  0.00  0.00    +0.000 A 
ATOM      7  C   UNL     1       6.420   3.934  13.005  0.00  0.00    +0.000 A 
ATOM      8  O   UNL     1       6.346   4.145  14.350  0.00  0.00    +0.000 OA
ATOM      9  H   UNL     1       8.089   6.280  16.022  0.00  0.00    +0.000 HD
ENDROOT
BRANCH   7  10
ATOM     10  C   UNL     1       5.493   3.058  12.188  0.00  0.00    +0.000 C 
ATOM     11  C   UNL     1       3.969   3.314  12.379  0.00  0.00    +0.000 C 
ATOM     12  C   UNL     1       3.809   3.163  10.855  0.00  0.00    +0.000 C 
ATOM     13  C   UNL     1       5.277   3.605  10.741  0.00  0.00    +0.000 C 
ENDBRANCH   7  10
BRANCH   1  16
ATOM     14  C   UNL     1       3.144   3.662  16.691  0.00  0.00    +0.000 C 
ATOM     15  C   UNL     1       3.852   3.768  18.029  0.00  0.00    +0.000 C 
ATOM     16  N   UNL     1       5.120   4.029  18.183  0.00  0.00    +0.000 NA
BRANCH  15  17
ATOM     17  C   UNL     1       3.035   3.514  19.251  0.00  0.00    +0.000 A 
ATOM     18  C   UNL     1       3.589   2.742  20.280  0.00  0.00    +0.000 A 
ATOM     19  C   UNL     1       2.842   2.458  21.422  0.00  0.00    +0.000 A 
ATOM     20  C   UNL     1       1.552   2.966  21.553  0.00  0.00    +0.000 A 
ATOM     21  C   UNL     1       1.003   3.753  20.542  0.00  0.00    +0.000 A 
ATOM     22  C   UNL     1       1.739   4.023  19.387  0.00  0.00    +0.000 A 
ENDBRANCH  15  17
ENDBRANCH   1  16
BRANCH   2  23
ATOM     23  S   UNL     1       7.027   6.174  18.385  0.00  0.00    +0.000 S 
ATOM     24  H   UNL     1       7.301   7.261  17.643  0.00  0.00    +0.000 HD
ENDBRANCH   2  23
TORSDOF 4
ENDMDL
MODEL 5
REMARK VINA RESULT:      -7.1      2.462      7.771
REMARK  Name = 
REMARK  5 active torsions:
REMARK  status: ('A' for Active; 'I' for Inactive)
REMARK    1  A    between atoms: C_1  and  C_2
REMARK    2  A    between atoms: C_2  and  C_17
REMARK    3  A    between atoms: N_3  and  N_4
REMARK    4  A    between atoms: C_5  and  S_6
REMARK    5  A    between atoms: C_11  and  C_12
REMARK                            x       y       z     vdW  Elec       q    Type
REMARK                         _______ _______ _______ _____ _____    ______ ____
ROOT
ATOM      1  N   UNL     1       3.933   4.547  17.418  0.00  0.00    +0.000 NA
ATOM      2  C   UNL     1       3.443   3.668  18.241  0.00  0.00    +0.000 C 
ATOM      3  N   UNL     1       2.783   3.959  19.402  0.00  0.00    +0.000 N 
ATOM      4  C   UNL     1       2.403   5.167  19.849  0.00  0.00    +0.000 A 
ATOM      5  N   UNL     1       1.736   5.448  20.948  0.00  0.00    +0.000 NA
ATOM      6  C   UNL     1       1.539   6.808  20.883  0.00  0.00    +0.000 A 
ATOM      7  C   UNL     1       2.103   7.314  19.734  0.00  0.00    +0.000 A 
ATOM      8  O   UNL     1       2.675   6.265  19.077  0.00  0.00    +0.000 OA
ATOM      9  H   UNL     1       2.483   3.166  19.942  0.00  0.00    +0.000 HD
ENDROOT
BRANCH   7  10
ATOM     10  C   UNL     1       2.046   8.746  19.247  0.00  0.00    +0.000 C 
ATOM     11  C   UNL     1       1.455   8.959  17.822  0.00  0.00    +0.000 C 
ATOM     12  C   UNL     1       0.702  10.183  18.377  0.00  0.00    +0.000 C 
ATOM     13  C   UNL     1       0.773   9.498  19.752  0.00  0.00    +0.000 C 
ENDBRANCH   7  10
BRANCH   1  16
ATOM     14  C   UNL     1       5.118   6.478  15.893  0.00  0.00    +0.000 C 
ATOM     15  C   UNL     1       5.114   4.999  15.553  0.00  0.00    +0.000 C 
ATOM     16  N   UNL     1       4.561   4.068  16.279  0.00  0.00    +0.000 NA
BRANCH  15  17
ATOM     17  C   UNL     1       5.834   4.585  14.314  0.00  0.00    +0.000 A 
ATOM     18  C   UNL     1       7.077   5.164  14.034  0.00  0.00    +0.000 A 
ATOM     19  C   UNL     1       7.762   4.824  12.868  0.00  0.00    +0.000 A 
ATOM     20  C   UNL     1       7.222   3.885  11.993  0.00  0.00    +0.000 A 
ATOM     21  C   UNL     1       5.994   3.288  12.278  0.00  0.00    +0.000 A 
ATOM     22  C   UNL     1       5.295   3.641  13.433  0.00  0.00    +0.000 A 
ENDBRANCH  15  17
ENDBRANCH   1  16
BRANCH   2  23
ATOM     23  S   UNL     1       3.581   1.934  17.943  0.00  0.00    +0.000 S 
ATOM     24  H   UNL     1       4.416   1.755  18.981  0.00  0.00    +0.000 HD
ENDBRANCH   2  23
TORSDOF 4
ENDMDL
MODEL 6
REMARK VINA RESULT:      -7.1      2.457      7.771
REMARK  Name = 
REMARK  5 active torsions:
REMARK  status: ('A' for Active; 'I' for Inactive)
REMARK    1  A    between atoms: C_1  and  C_2
REMARK    2  A    between atoms: C_2  and  C_17
REMARK    3  A    between atoms: N_3  and  N_4
REMARK    4  A    between atoms: C_5  and  S_6
REMARK    5  A    between atoms: C_11  and  C_12
REMARK                            x       y       z     vdW  Elec       q    Type
REMARK                         _______ _______ _______ _____ _____    ______ ____
ROOT
ATOM      1  N   UNL     1       3.922   4.569  17.417  0.00  0.00    +0.000 NA
ATOM      2  C   UNL     1       3.434   3.678  18.228  0.00  0.00    +0.000 C 
ATOM      3  N   UNL     1       2.771   3.952  19.392  0.00  0.00    +0.000 N 
ATOM      4  C   UNL     1       2.387   5.154  19.853  0.00  0.00    +0.000 A 
ATOM      5  N   UNL     1       1.717   5.419  20.954  0.00  0.00    +0.000 NA
ATOM      6  C   UNL     1       1.516   6.779  20.906  0.00  0.00    +0.000 A 
ATOM      7  C   UNL     1       2.079   7.301  19.764  0.00  0.00    +0.000 A 
ATOM      8  O   UNL     1       2.656   6.262  19.095  0.00  0.00    +0.000 OA
ATOM      9  H   UNL     1       2.473   3.152  19.922  0.00  0.00    +0.000 HD
ENDROOT
BRANCH   7  10
ATOM     10  C   UNL     1       2.018   8.739  19.294  0.00  0.00    +0.000 C 
ATOM     11  C   UNL     1       1.468   8.963  17.855  0.00  0.00    +0.000 C 
ATOM     12  C   UNL     1       0.682  10.169  18.402  0.00  0.00    +0.000 C 
ATOM     13  C   UNL     1       0.720   9.467  19.770  0.00  0.00    +0.000 C 
ENDBRANCH   7  10
BRANCH   1  16
ATOM     14  C   UNL     1       5.160   6.513  15.953  0.00  0.00    +0.000 C 
ATOM     15  C   UNL     1       5.132   5.043  15.576  0.00  0.00    +0.000 C 
ATOM     16  N   UNL     1       4.553   4.106  16.273  0.00  0.00    +0.000 NA
BRANCH  15  17
ATOM     17  C   UNL     1       5.857   4.646  14.334  0.00  0.00    +0.000 A 
ATOM     18  C   UNL     1       5.257   3.718  13.474  0.00  0.00    +0.000 A 
ATOM     19  C   UNL     1       5.921   3.301  12.322  0.00  0.00    +0.000 A 
ATOM     20  C   UNL     1       7.173   3.827  12.011  0.00  0.00    +0.000 A 
ATOM     21  C   UNL     1       7.765   4.767  12.853  0.00  0.00    +0.000 A 
ATOM     22  C   UNL     1       7.114   5.173  14.018  0.00  0.00    +0.000 A 
ENDBRANCH  15  17
ENDBRANCH   1  16
BRANCH   2  23
ATOM     23  S   UNL     1       3.578   1.949  17.909  0.00  0.00    +0.000 S 
ATOM     24  H   UNL     1       2.580   1.642  18.756  0.00  0.00    +0.000 HD
ENDBRANCH   2  23
TORSDOF 4
ENDMDL
MODEL 7
REMARK VINA RESULT:      -6.8      0.967      1.475
REMARK  Name = 
REMARK  5 active torsions:
REMARK  status: ('A' for Active; 'I' for Inactive)
REMARK    1  A    between atoms: C_1  and  C_2
REMARK    2  A    between atoms: C_2  and  C_17
REMARK    3  A    between atoms: N_3  and  N_4
REMARK    4  A    between atoms: C_5  and  S_6
REMARK    5  A    between atoms: C_11  and  C_12
REMARK                            x       y       z     vdW  Elec       q    Type
REMARK                         _______ _______ _______ _____ _____    ______ ____
ROOT
ATOM      1  N   UNL     1       2.923   6.829  19.401  0.00  0.00    +0.000 NA
ATOM      2  C   UNL     1       2.723   5.553  19.554  0.00  0.00    +0.000 C 
ATOM      3  N   UNL     1       3.512   4.566  19.033  0.00  0.00    +0.000 N 
ATOM      4  C   UNL     1       4.684   4.705  18.392  0.00  0.00    +0.000 A 
ATOM      5  N   UNL     1       5.463   3.754  17.922  0.00  0.00    +0.000 NA
ATOM      6  C   UNL     1       6.563   4.428  17.442  0.00  0.00    +0.000 A 
ATOM      7  C   UNL     1       6.410   5.782  17.637  0.00  0.00    +0.000 A 
ATOM      8  O   UNL     1       5.196   5.964  18.231  0.00  0.00    +0.000 OA
ATOM      9  H   UNL     1       3.212   3.625  19.222  0.00  0.00    +0.000 HD
ENDROOT
BRANCH   7  10
ATOM     10  C   UNL     1       7.419   6.866  17.322  0.00  0.00    +0.000 C 
ATOM     11  C   UNL     1       6.880   8.327  17.342  0.00  0.00    +0.000 C 
ATOM     12  C   UNL     1       8.177   8.737  18.065  0.00  0.00    +0.000 C 
ATOM     13  C   UNL     1       8.252   7.288  18.574  0.00  0.00    +0.000 C 
ENDBRANCH   7  10
BRANCH   1  16
ATOM     14  C   UNL     1       2.151   8.939  17.849  0.00  0.00    +0.000 C 
ATOM     15  C   UNL     1       1.671   8.698  19.268  0.00  0.00    +0.000 C 
ATOM     16  N   UNL     1       2.025   7.688  20.014  0.00  0.00    +0.000 NA
BRANCH  15  17
ATOM     17  C   UNL     1       0.691   9.673  19.829  0.00  0.00    +0.000 A 
ATOM     18  C   UNL     1      -0.295  10.196  18.983  0.00  0.00    +0.000 A 
ATOM     19  C   UNL     1      -1.206  11.134  19.467  0.00  0.00    +0.000 A 
ATOM     20  C   UNL     1      -1.155  11.530  20.801  0.00  0.00    +0.000 A 
ATOM     21  C   UNL     1      -0.189  10.996  21.653  0.00  0.00    +0.000 A 
ATOM     22  C   UNL     1       0.738  10.073  21.169  0.00  0.00    +0.000 A 
ENDBRANCH  15  17
ENDBRANCH   1  16
BRANCH   2  23
ATOM     23  S   UNL     1       1.360   4.929  20.483  0.00  0.00    +0.000 S 
ATOM     24  H   UNL     1       1.258   3.828  19.719  0.00  0.00    +0.000 HD
ENDBRANCH   2  23
TORSDOF 4
ENDMDL
MODEL 8
REMARK VINA RESULT:      -6.6      3.228      4.949
REMARK  Name = 
REMARK  5 active torsions:
REMARK  status: ('A' for Active; 'I' for Inactive)
REMARK    1  A    between atoms: C_1  and  C_2
REMARK    2  A    between atoms: C_2  and  C_17
REMARK    3  A    between atoms: N_3  and  N_4
REMARK    4  A    between atoms: C_5  and  S_6
REMARK    5  A    between atoms: C_11  and  C_12
REMARK                            x       y       z     vdW  Elec       q    Type
REMARK                         _______ _______ _______ _____ _____    ______ ____
ROOT
ATOM      1  N   UNL     1       1.135   9.305  19.904  0.00  0.00    +0.000 NA
ATOM      2  C   UNL     1       1.820   9.420  18.805  0.00  0.00    +0.000 C 
ATOM      3  N   UNL     1       2.550   8.420  18.224  0.00  0.00    +0.000 N 
ATOM      4  C   UNL     1       2.602   7.127  18.585  0.00  0.00    +0.000 A 
ATOM      5  N   UNL     1       3.275   6.156  18.006  0.00  0.00    +0.000 NA
ATOM      6  C   UNL     1       2.917   5.031  18.714  0.00  0.00    +0.000 A 
ATOM      7  C   UNL     1       2.029   5.364  19.712  0.00  0.00    +0.000 A 
ATOM      8  O   UNL     1       1.839   6.712  19.643  0.00  0.00    +0.000 OA
ATOM      9  H   UNL     1       3.043   8.673  17.385  0.00  0.00    +0.000 HD
ENDROOT
BRANCH   7  10
ATOM     10  C   UNL     1       1.335   4.414  20.666  0.00  0.00    +0.000 C 
ATOM     11  C   UNL     1       1.093   2.970  20.135  0.00  0.00    +0.000 C 
ATOM     12  C   UNL     1       1.513   2.449  21.521  0.00  0.00    +0.000 C 
ATOM     13  C   UNL     1       2.328   3.744  21.669  0.00  0.00    +0.000 C 
ENDBRANCH   7  10
BRANCH   1  16
ATOM     14  C   UNL     1       0.542   9.292  22.569  0.00  0.00    +0.000 C 
ATOM     15  C   UNL     1       0.155  10.402  21.610  0.00  0.00    +0.000 C 
ATOM     16  N   UNL     1       0.443  10.424  20.339  0.00  0.00    +0.000 NA
BRANCH  15  17
ATOM     17  C   UNL     1      -0.574  11.572  22.182  0.00  0.00    +0.000 A 
ATOM     18  C   UNL     1      -1.685  11.335  23.001  0.00  0.00    +0.000 A 
ATOM     19  C   UNL     1      -2.408  12.405  23.526  0.00  0.00    +0.000 A 
ATOM     20  C   UNL     1      -2.009  13.713  23.259  0.00  0.00    +0.000 A 
ATOM     21  C   UNL     1      -0.890  13.954  22.462  0.00  0.00    +0.000 A 
ATOM     22  C   UNL     1      -0.175  12.887  21.917  0.00  0.00    +0.000 A 
ENDBRANCH  15  17
ENDBRANCH   1  16
BRANCH   2  23
ATOM     23  S   UNL     1       1.888  10.935  17.904  0.00  0.00    +0.000 S 
ATOM     24  H   UNL     1       0.582  10.883  17.589  0.00  0.00    +0.000 HD
ENDBRANCH   2  23
TORSDOF 4
ENDMDL
MODEL 9
REMARK VINA RESULT:      -6.6      2.849      4.574
REMARK  Name = 
REMARK  5 active torsions:
REMARK  status: ('A' for Active; 'I' for Inactive)
REMARK    1  A    between atoms: C_1  and  C_2
REMARK    2  A    between atoms: C_2  and  C_17
REMARK    3  A    between atoms: N_3  and  N_4
REMARK    4  A    between atoms: C_5  and  S_6
REMARK    5  A    between atoms: C_11  and  C_12
REMARK                            x       y       z     vdW  Elec       q    Type
REMARK                         _______ _______ _______ _____ _____    ______ ____
ROOT
ATOM      1  N   UNL     1       1.187   8.722  19.271  0.00  0.00    +0.000 NA
ATOM      2  C   UNL     1       2.079   9.102  18.405  0.00  0.00    +0.000 C 
ATOM      3  N   UNL     1       3.036   8.295  17.857  0.00  0.00    +0.000 N 
ATOM      4  C   UNL     1       3.165   6.964  17.994  0.00  0.00    +0.000 A 
ATOM      5  N   UNL     1       4.063   6.179  17.438  0.00  0.00    +0.000 NA
ATOM      6  C   UNL     1       3.696   4.915  17.837  0.00  0.00    +0.000 A 
ATOM      7  C   UNL     1       2.576   4.976  18.633  0.00  0.00    +0.000 A 
ATOM      8  O   UNL     1       2.242   6.293  18.751  0.00  0.00    +0.000 OA
ATOM      9  H   UNL     1       3.668   8.743  17.216  0.00  0.00    +0.000 HD
ENDROOT
BRANCH   7  10
ATOM     10  C   UNL     1       1.808   3.807  19.216  0.00  0.00    +0.000 C 
ATOM     11  C   UNL     1       2.606   2.880  20.179  0.00  0.00    +0.000 C 
ATOM     12  C   UNL     1       1.362   2.843  21.085  0.00  0.00    +0.000 C 
ATOM     13  C   UNL     1       0.985   4.206  20.482  0.00  0.00    +0.000 C 
ENDBRANCH   7  10
BRANCH   1  16
ATOM     14  C   UNL     1       1.036   8.960  21.987  0.00  0.00    +0.000 C 
ATOM     15  C   UNL     1       0.212   9.775  21.008  0.00  0.00    +0.000 C 
ATOM     16  N   UNL     1       0.283   9.677  19.710  0.00  0.00    +0.000 NA
BRANCH  15  17
ATOM     17  C   UNL     1      -0.719  10.790  21.582  0.00  0.00    +0.000 A 
ATOM     18  C   UNL     1      -1.257  11.765  20.733  0.00  0.00    +0.000 A 
ATOM     19  C   UNL     1      -2.104  12.748  21.244  0.00  0.00    +0.000 A 
ATOM     20  C   UNL     1      -2.439  12.744  22.596  0.00  0.00    +0.000 A 
ATOM     21  C   UNL     1      -1.923  11.763  23.441  0.00  0.00    +0.000 A 
ATOM     22  C   UNL     1      -1.058  10.789  22.940  0.00  0.00    +0.000 A 
ENDBRANCH  15  17
ENDBRANCH   1  16
BRANCH   2  23
ATOM     23  S   UNL     1       2.160  10.763  17.818  0.00  0.00    +0.000 S 
ATOM     24  H   UNL     1       1.812  10.409  16.569  0.00  0.00    +0.000 HD
ENDBRANCH   2  23
TORSDOF 4
ENDMDL
