MODEL 1
REMARK VINA RESULT:      -7.8      0.000      0.000
REMARK  Name = 
REMARK  11 active torsions:
REMARK  status: ('A' for Active; 'I' for Inactive)
REMARK    1  A    between atoms: C_1  and  C_2
REMARK    2  A    between atoms: C_2  and  C_4
REMARK    3  A    between atoms: C_6  and  C_7
REMARK    4  A    between atoms: C_8  and  O_9
REMARK    5  A    between atoms: C_10  and  C_11
REMARK    6  A    between atoms: C_11  and  C_12
REMARK    7  A    between atoms: C_13  and  O_14
REMARK    8  A    between atoms: C_15  and  C_16
REMARK    9  A    between atoms: C_16  and  C_17
REMARK   10  A    between atoms: C_17  and  O_19
REMARK   11  A    between atoms: C_23  and  O_24
REMARK                            x       y       z     vdW  Elec       q    Type
REMARK                         _______ _______ _______ _____ _____    ______ ____
ROOT
ATOM      1  C   UNL     1       2.858   3.863  19.452  0.00  0.00    +0.000 A 
ATOM      2  C   UNL     1       2.267   5.136  19.354  0.00  0.00    +0.000 A 
ATOM      3  C   UNL     1       2.951   6.231  18.803  0.00  0.00    +0.000 A 
ATOM      4  C   UNL     1       2.263   7.568  18.747  0.00  0.00    +0.000 C 
ATOM      5  C   UNL     1       4.262   6.033  18.348  0.00  0.00    +0.000 A 
ATOM      6  C   UNL     1       4.897   4.780  18.457  0.00  0.00    +0.000 A 
ATOM      7  C   UNL     1       4.172   3.695  18.991  0.00  0.00    +0.000 A 
ENDROOT
BRANCH   1   9
ATOM      8  C   UNL     1       1.495   2.886  21.457  0.00  0.00    +0.000 C 
ATOM      9  C   UNL     1       2.022   2.769  20.051  0.00  0.00    +0.000 C 
ATOM     10  O   UNL     1       1.778   1.764  19.379  0.00  0.00    +0.000 OA
ENDBRANCH   1   9
BRANCH   5  11
ATOM     11  O   UNL     1       4.985   7.057  17.786  0.00  0.00    +0.000 OA
ATOM     12  H   UNL     1       5.917   6.787  17.728  0.00  0.00    +0.000 HD
ENDBRANCH   5  11
BRANCH   7  13
ATOM     13  O   UNL     1       4.776   2.473  19.111  0.00  0.00    +0.000 OA
ATOM     14  H   UNL     1       5.707   2.500  18.802  0.00  0.00    +0.000 HD
ENDBRANCH   7  13
BRANCH   6  15
ATOM     15  C   UNL     1       6.338   4.628  18.018  0.00  0.00    +0.000 C 
BRANCH  15  16
ATOM     16  C   UNL     1       6.468   4.547  16.544  0.00  0.00    +0.000 C 
ATOM     17  C   UNL     1       6.076   3.637  15.655  0.00  0.00    +0.000 C 
ATOM     18  C   UNL     1       6.510   3.971  14.278  0.00  0.00    +0.000 C 
ATOM     19  O   UNL     1       7.064   5.293  14.439  0.00  0.00    +0.000 OA
ATOM     20  C   UNL     1       7.114   5.598  15.760  0.00  0.00    +0.000 C 
ATOM     21  O   UNL     1       7.616   6.601  16.243  0.00  0.00    +0.000 OA
BRANCH  17  22
ATOM     22  O   UNL     1       5.436   2.459  15.920  0.00  0.00    +0.000 OA
ATOM     23  H   UNL     1       6.082   1.724  15.846  0.00  0.00    +0.000 HD
ENDBRANCH  17  22
BRANCH  18  24
ATOM     24  C   UNL     1       5.406   4.020  13.238  0.00  0.00    +0.000 C 
BRANCH  24  25
ATOM     25  C   UNL     1       5.714   3.051  12.129  0.00  0.00    +0.000 C 
ATOM     26  O   UNL     1       4.860   2.529  11.428  0.00  0.00    +0.000 OA
BRANCH  25  27
ATOM     27  O   UNL     1       7.034   2.824  11.943  0.00  0.00    +0.000 OA
ATOM     28  H   UNL     1       7.268   1.881  11.815  0.00  0.00    +0.000 HD
ENDBRANCH  25  27
ENDBRANCH  24  25
ENDBRANCH  18  24
ENDBRANCH  15  16
ENDBRANCH   6  15
TORSDOF 9
ENDMDL
MODEL 2
REMARK VINA RESULT:      -7.3      0.767      2.902
REMARK  Name = 
REMARK  11 active torsions:
REMARK  status: ('A' for Active; 'I' for Inactive)
REMARK    1  A    between atoms: C_1  and  C_2
REMARK    2  A    between atoms: C_2  and  C_4
REMARK    3  A    between atoms: C_6  and  C_7
REMARK    4  A    between atoms: C_8  and  O_9
REMARK    5  A    between atoms: C_10  and  C_11
REMARK    6  A    between atoms: C_11  and  C_12
REMARK    7  A    between atoms: C_13  and  O_14
REMARK    8  A    between atoms: C_15  and  C_16
REMARK    9  A    between atoms: C_16  and  C_17
REMARK   10  A    between atoms: C_17  and  O_19
REMARK   11  A    between atoms: C_23  and  O_24
REMARK                            x       y       z     vdW  Elec       q    Type
REMARK                         _______ _______ _______ _____ _____    ______ ____
ROOT
ATOM      1  C   UNL     1       3.069   6.235  18.919  0.00  0.00    +0.000 A 
ATOM      2  C   UNL     1       2.385   5.119  19.435  0.00  0.00    +0.000 A 
ATOM      3  C   UNL     1       2.998   3.862  19.553  0.00  0.00    +0.000 A 
ATOM      4  C   UNL     1       2.201   2.709  20.097  0.00  0.00    +0.000 C 
ATOM      5  C   UNL     1       4.330   3.733  19.134  0.00  0.00    +0.000 A 
ATOM      6  C   UNL     1       5.037   4.820  18.585  0.00  0.00    +0.000 A 
ATOM      7  C   UNL     1       4.400   6.075  18.505  0.00  0.00    +0.000 A 
ENDROOT
BRANCH   1   9
ATOM      8  C   UNL     1       1.674   8.112  20.087  0.00  0.00    +0.000 C 
ATOM      9  C   UNL     1       2.309   7.528  18.852  0.00  0.00    +0.000 C 
ATOM     10  O   UNL     1       2.201   8.106  17.768  0.00  0.00    +0.000 OA
ENDBRANCH   1   9
BRANCH   5  11
ATOM     11  O   UNL     1       4.996   2.535  19.233  0.00  0.00    +0.000 OA
ATOM     12  H   UNL     1       4.737   1.970  18.485  0.00  0.00    +0.000 HD
ENDBRANCH   5  11
BRANCH   7  13
ATOM     13  O   UNL     1       5.069   7.140  17.968  0.00  0.00    +0.000 OA
ATOM     14  H   UNL     1       6.040   6.996  17.975  0.00  0.00    +0.000 HD
ENDBRANCH   7  13
BRANCH   6  15
ATOM     15  C   UNL     1       6.450   4.618  18.079  0.00  0.00    +0.000 C 
BRANCH  15  16
ATOM     16  C   UNL     1       6.511   4.557  16.600  0.00  0.00    +0.000 C 
ATOM     17  C   UNL     1       6.089   3.654  15.718  0.00  0.00    +0.000 C 
ATOM     18  C   UNL     1       6.453   4.011  14.326  0.00  0.00    +0.000 C 
ATOM     19  O   UNL     1       6.995   5.339  14.479  0.00  0.00    +0.000 OA
ATOM     20  C   UNL     1       7.104   5.627  15.800  0.00  0.00    +0.000 C 
ATOM     21  O   UNL     1       7.615   6.631  16.273  0.00  0.00    +0.000 OA
BRANCH  17  22
ATOM     22  O   UNL     1       5.478   2.463  15.997  0.00  0.00    +0.000 OA
ATOM     23  H   UNL     1       4.574   2.474  15.617  0.00  0.00    +0.000 HD
ENDBRANCH  17  22
BRANCH  18  24
ATOM     24  C   UNL     1       5.300   4.058  13.341  0.00  0.00    +0.000 C 
BRANCH  24  25
ATOM     25  C   UNL     1       5.641   3.241  12.125  0.00  0.00    +0.000 C 
ATOM     26  O   UNL     1       6.782   2.927  11.817  0.00  0.00    +0.000 OA
BRANCH  25  27
ATOM     27  O   UNL     1       4.568   2.846  11.404  0.00  0.00    +0.000 OA
ATOM     28  H   UNL     1       4.051   3.581  11.012  0.00  0.00    +0.000 HD
ENDBRANCH  25  27
ENDBRANCH  24  25
ENDBRANCH  18  24
ENDBRANCH  15  16
ENDBRANCH   6  15
TORSDOF 9
ENDMDL
MODEL 3
REMARK VINA RESULT:      -6.8      1.801      6.303
REMARK  Name = 
REMARK  11 active torsions:
REMARK  status: ('A' for Active; 'I' for Inactive)
REMARK    1  A    between atoms: C_1  and  C_2
REMARK    2  A    between atoms: C_2  and  C_4
REMARK    3  A    between atoms: C_6  and  C_7
REMARK    4  A    between atoms: C_8  and  O_9
REMARK    5  A    between atoms: C_10  and  C_11
REMARK    6  A    between atoms: C_11  and  C_12
REMARK    7  A    between atoms: C_13  and  O_14
REMARK    8  A    between atoms: C_15  and  C_16
REMARK    9  A    between atoms: C_16  and  C_17
REMARK   10  A    between atoms: C_17  and  O_19
REMARK   11  A    between atoms: C_23  and  O_24
REMARK                            x       y       z     vdW  Elec       q    Type
REMARK                         _______ _______ _______ _____ _____    ______ ____
ROOT
ATOM      1  C   UNL     1       6.837   5.019  15.492  0.00  0.00    +0.000 A 
ATOM      2  C   UNL     1       7.369   6.236  15.958  0.00  0.00    +0.000 A 
ATOM      3  C   UNL     1       7.320   6.595  17.315  0.00  0.00    +0.000 A 
ATOM      4  C   UNL     1       7.892   7.919  17.740  0.00  0.00    +0.000 C 
ATOM      5  C   UNL     1       6.715   5.706  18.215  0.00  0.00    +0.000 A 
ATOM      6  C   UNL     1       6.146   4.493  17.780  0.00  0.00    +0.000 A 
ATOM      7  C   UNL     1       6.235   4.151  16.415  0.00  0.00    +0.000 A 
ENDROOT
BRANCH   1   9
ATOM      8  C   UNL     1       8.005   5.440  13.192  0.00  0.00    +0.000 C 
ATOM      9  C   UNL     1       6.958   4.743  14.021  0.00  0.00    +0.000 C 
ATOM     10  O   UNL     1       6.181   3.944  13.494  0.00  0.00    +0.000 OA
ENDBRANCH   1   9
BRANCH   5  11
ATOM     11  O   UNL     1       6.645   5.987  19.557  0.00  0.00    +0.000 OA
ATOM     12  H   UNL     1       5.864   6.543  19.720  0.00  0.00    +0.000 HD
ENDBRANCH   5  11
BRANCH   7  13
ATOM     13  O   UNL     1       5.681   2.980  15.974  0.00  0.00    +0.000 OA
ATOM     14  H   UNL     1       6.368   2.350  15.667  0.00  0.00    +0.000 HD
ENDBRANCH   7  13
BRANCH   6  15
ATOM     15  C   UNL     1       5.440   3.596  18.775  0.00  0.00    +0.000 C 
BRANCH  15  16
ATOM     16  C   UNL     1       3.976   3.553  18.548  0.00  0.00    +0.000 C 
ATOM     17  C   UNL     1       3.122   2.548  18.366  0.00  0.00    +0.000 C 
ATOM     18  C   UNL     1       1.743   3.020  18.100  0.00  0.00    +0.000 C 
ATOM     19  O   UNL     1       1.854   4.441  18.323  0.00  0.00    +0.000 OA
ATOM     20  C   UNL     1       3.159   4.764  18.504  0.00  0.00    +0.000 C 
ATOM     21  O   UNL     1       3.605   5.894  18.621  0.00  0.00    +0.000 OA
BRANCH  17  22
ATOM     22  O   UNL     1       3.428   1.216  18.313  0.00  0.00    +0.000 OA
ATOM     23  H   UNL     1       2.758   0.760  17.760  0.00  0.00    +0.000 HD
ENDBRANCH  17  22
BRANCH  18  24
ATOM     24  C   UNL     1       0.672   2.457  19.016  0.00  0.00    +0.000 C 
BRANCH  24  25
ATOM     25  C   UNL     1       0.875   2.982  20.412  0.00  0.00    +0.000 C 
ATOM     26  O   UNL     1       1.429   2.350  21.300  0.00  0.00    +0.000 OA
BRANCH  25  27
ATOM     27  O   UNL     1       0.419   4.240  20.602  0.00  0.00    +0.000 OA
ATOM     28  H   UNL     1       1.068   4.847  21.017  0.00  0.00    +0.000 HD
ENDBRANCH  25  27
ENDBRANCH  24  25
ENDBRANCH  18  24
ENDBRANCH  15  16
ENDBRANCH   6  15
TORSDOF 9
ENDMDL
MODEL 4
REMARK VINA RESULT:      -6.8      1.360      1.630
REMARK  Name = 
REMARK  11 active torsions:
REMARK  status: ('A' for Active; 'I' for Inactive)
REMARK    1  A    between atoms: C_1  and  C_2
REMARK    2  A    between atoms: C_2  and  C_4
REMARK    3  A    between atoms: C_6  and  C_7
REMARK    4  A    between atoms: C_8  and  O_9
REMARK    5  A    between atoms: C_10  and  C_11
REMARK    6  A    between atoms: C_11  and  C_12
REMARK    7  A    between atoms: C_13  and  O_14
REMARK    8  A    between atoms: C_15  and  C_16
REMARK    9  A    between atoms: C_16  and  C_17
REMARK   10  A    between atoms: C_17  and  O_19
REMARK   11  A    between atoms: C_23  and  O_24
REMARK                            x       y       z     vdW  Elec       q    Type
REMARK                         _______ _______ _______ _____ _____    ______ ____
ROOT
ATOM      1  C   UNL     1       2.184   4.597  19.164  0.00  0.00    +0.000 A 
ATOM      2  C   UNL     1       1.603   5.814  18.762  0.00  0.00    +0.000 A 
ATOM      3  C   UNL     1       2.380   6.894  18.313  0.00  0.00    +0.000 A 
ATOM      4  C   UNL     1       1.693   8.172  17.916  0.00  0.00    +0.000 C 
ATOM      5  C   UNL     1       3.773   6.739  18.277  0.00  0.00    +0.000 A 
ATOM      6  C   UNL     1       4.391   5.546  18.699  0.00  0.00    +0.000 A 
ATOM      7  C   UNL     1       3.580   4.472  19.119  0.00  0.00    +0.000 A 
ENDROOT
BRANCH   1   9
ATOM      8  C   UNL     1       0.815   2.427  18.665  0.00  0.00    +0.000 C 
ATOM      9  C   UNL     1       1.248   3.513  19.615  0.00  0.00    +0.000 C 
ATOM     10  O   UNL     1       0.828   3.527  20.774  0.00  0.00    +0.000 OA
ENDBRANCH   1   9
BRANCH   5  11
ATOM     11  O   UNL     1       4.592   7.749  17.836  0.00  0.00    +0.000 OA
ATOM     12  H   UNL     1       5.465   7.376  17.625  0.00  0.00    +0.000 HD
ENDBRANCH   5  11
BRANCH   7  13
ATOM     13  O   UNL     1       4.164   3.309  19.540  0.00  0.00    +0.000 OA
ATOM     14  H   UNL     1       3.959   2.563  18.935  0.00  0.00    +0.000 HD
ENDBRANCH   7  13
BRANCH   6  15
ATOM     15  C   UNL     1       5.902   5.447  18.710  0.00  0.00    +0.000 C 
BRANCH  15  16
ATOM     16  C   UNL     1       6.462   5.284  17.347  0.00  0.00    +0.000 C 
ATOM     17  C   UNL     1       6.344   4.321  16.435  0.00  0.00    +0.000 C 
ATOM     18  C   UNL     1       7.169   4.582  15.231  0.00  0.00    +0.000 C 
ATOM     19  O   UNL     1       7.657   5.918  15.473  0.00  0.00    +0.000 OA
ATOM     20  C   UNL     1       7.316   6.297  16.731  0.00  0.00    +0.000 C 
ATOM     21  O   UNL     1       7.658   7.331  17.282  0.00  0.00    +0.000 OA
BRANCH  17  22
ATOM     22  O   UNL     1       5.648   3.152  16.566  0.00  0.00    +0.000 OA
ATOM     23  H   UNL     1       6.145   2.553  17.163  0.00  0.00    +0.000 HD
ENDBRANCH  17  22
BRANCH  18  24
ATOM     24  C   UNL     1       6.421   4.560  13.911  0.00  0.00    +0.000 C 
BRANCH  24  25
ATOM     25  C   UNL     1       7.394   4.744  12.777  0.00  0.00    +0.000 C 
ATOM     26  O   UNL     1       7.311   4.154  11.711  0.00  0.00    +0.000 OA
BRANCH  25  27
ATOM     27  O   UNL     1       8.364   5.654  13.022  0.00  0.00    +0.000 OA
ATOM     28  H   UNL     1       8.285   6.105  13.889  0.00  0.00    +0.000 HD
ENDBRANCH  25  27
ENDBRANCH  24  25
ENDBRANCH  18  24
ENDBRANCH  15  16
ENDBRANCH   6  15
TORSDOF 9
ENDMDL
MODEL 5
REMARK VINA RESULT:      -6.7      2.139      3.916
REMARK  Name = 
REMARK  11 active torsions:
REMARK  status: ('A' for Active; 'I' for Inactive)
REMARK    1  A    between atoms: C_1  and  C_2
REMARK    2  A    between atoms: C_2  and  C_4
REMARK    3  A    between atoms: C_6  and  C_7
REMARK    4  A    between atoms: C_8  and  O_9
REMARK    5  A    between atoms: C_10  and  C_11
REMARK    6  A    between atoms: C_11  and  C_12
REMARK    7  A    between atoms: C_13  and  O_14
REMARK    8  A    between atoms: C_15  and  C_16
REMARK    9  A    between atoms: C_16  and  C_17
REMARK   10  A    between atoms: C_17  and  O_19
REMARK   11  A    between atoms: C_23  and  O_24
REMARK                            x       y       z     vdW  Elec       q    Type
REMARK                         _______ _______ _______ _____ _____    ______ ____
ROOT
ATOM      1  C   UNL     1       2.576   3.945  20.417  0.00  0.00    +0.000 A 
ATOM      2  C   UNL     1       2.035   5.142  20.922  0.00  0.00    +0.000 A 
ATOM      3  C   UNL     1       1.949   6.305  20.140  0.00  0.00    +0.000 A 
ATOM      4  C   UNL     1       1.376   7.555  20.750  0.00  0.00    +0.000 C 
ATOM      5  C   UNL     1       2.428   6.255  18.823  0.00  0.00    +0.000 A 
ATOM      6  C   UNL     1       3.002   5.083  18.293  0.00  0.00    +0.000 A 
ATOM      7  C   UNL     1       3.049   3.925  19.097  0.00  0.00    +0.000 A 
ENDROOT
BRANCH   1   9
ATOM      8  C   UNL     1       1.361   2.341  22.085  0.00  0.00    +0.000 C 
ATOM      9  C   UNL     1       2.603   2.767  21.347  0.00  0.00    +0.000 C 
ATOM     10  O   UNL     1       3.661   2.153  21.508  0.00  0.00    +0.000 OA
ENDBRANCH   1   9
BRANCH   5  11
ATOM     11  O   UNL     1       2.363   7.351  17.998  0.00  0.00    +0.000 OA
ATOM     12  H   UNL     1       3.202   7.840  18.060  0.00  0.00    +0.000 HD
ENDBRANCH   5  11
BRANCH   7  13
ATOM     13  O   UNL     1       3.611   2.781  18.601  0.00  0.00    +0.000 OA
ATOM     14  H   UNL     1       3.824   2.868  17.647  0.00  0.00    +0.000 HD
ENDBRANCH   7  13
BRANCH   6  15
ATOM     15  C   UNL     1       3.571   5.093  16.890  0.00  0.00    +0.000 C 
BRANCH  15  16
ATOM     16  C   UNL     1       5.007   5.462  16.871  0.00  0.00    +0.000 C 
ATOM     17  C   UNL     1       5.661   6.553  17.264  0.00  0.00    +0.000 C 
ATOM     18  C   UNL     1       7.111   6.478  16.965  0.00  0.00    +0.000 C 
ATOM     19  O   UNL     1       7.263   5.121  16.501  0.00  0.00    +0.000 OA
ATOM     20  C   UNL     1       6.036   4.555  16.369  0.00  0.00    +0.000 C 
ATOM     21  O   UNL     1       5.807   3.448  15.907  0.00  0.00    +0.000 OA
BRANCH  17  22
ATOM     22  O   UNL     1       5.113   7.688  17.792  0.00  0.00    +0.000 OA
ATOM     23  H   UNL     1       4.136   7.614  17.757  0.00  0.00    +0.000 HD
ENDBRANCH  17  22
BRANCH  18  24
ATOM     24  C   UNL     1       8.033   6.702  18.149  0.00  0.00    +0.000 C 
BRANCH  24  25
ATOM     25  C   UNL     1       7.905   5.554  19.114  0.00  0.00    +0.000 C 
ATOM     26  O   UNL     1       7.222   5.593  20.126  0.00  0.00    +0.000 OA
BRANCH  25  27
ATOM     27  O   UNL     1       8.588   4.446  18.749  0.00  0.00    +0.000 OA
ATOM     28  H   UNL     1       9.366   4.247  19.312  0.00  0.00    +0.000 HD
ENDBRANCH  25  27
ENDBRANCH  24  25
ENDBRANCH  18  24
ENDBRANCH  15  16
ENDBRANCH   6  15
TORSDOF 9
ENDMDL
MODEL 6
REMARK VINA RESULT:      -6.5      2.563      6.529
REMARK  Name = 
REMARK  11 active torsions:
REMARK  status: ('A' for Active; 'I' for Inactive)
REMARK    1  A    between atoms: C_1  and  C_2
REMARK    2  A    between atoms: C_2  and  C_4
REMARK    3  A    between atoms: C_6  and  C_7
REMARK    4  A    between atoms: C_8  and  O_9
REMARK    5  A    between atoms: C_10  and  C_11
REMARK    6  A    between atoms: C_11  and  C_12
REMARK    7  A    between atoms: C_13  and  O_14
REMARK    8  A    between atoms: C_15  and  C_16
REMARK    9  A    between atoms: C_16  and  C_17
REMARK   10  A    between atoms: C_17  and  O_19
REMARK   11  A    between atoms: C_23  and  O_24
REMARK                            x       y       z     vdW  Elec       q    Type
REMARK                         _______ _______ _______ _____ _____    ______ ____
ROOT
ATOM      1  C   UNL     1       5.731   6.382  17.102  0.00  0.00    +0.000 A 
ATOM      2  C   UNL     1       4.845   7.412  17.467  0.00  0.00    +0.000 A 
ATOM      3  C   UNL     1       3.480   7.173  17.690  0.00  0.00    +0.000 A 
ATOM      4  C   UNL     1       2.587   8.326  18.060  0.00  0.00    +0.000 C 
ATOM      5  C   UNL     1       3.002   5.864  17.534  0.00  0.00    +0.000 A 
ATOM      6  C   UNL     1       3.853   4.812  17.141  0.00  0.00    +0.000 A 
ATOM      7  C   UNL     1       5.224   5.082  16.951  0.00  0.00    +0.000 A 
ENDROOT
BRANCH   1   9
ATOM      8  C   UNL     1       7.849   7.723  17.840  0.00  0.00    +0.000 C 
ATOM      9  C   UNL     1       7.169   6.760  16.902  0.00  0.00    +0.000 C 
ATOM     10  O   UNL     1       7.790   6.280  15.950  0.00  0.00    +0.000 OA
ENDBRANCH   1   9
BRANCH   5  11
ATOM     11  O   UNL     1       1.681   5.556  17.749  0.00  0.00    +0.000 OA
ATOM     12  H   UNL     1       1.523   5.508  18.707  0.00  0.00    +0.000 HD
ENDBRANCH   5  11
BRANCH   7  13
ATOM     13  O   UNL     1       6.063   4.075  16.562  0.00  0.00    +0.000 OA
ATOM     14  H   UNL     1       5.791   3.691  15.701  0.00  0.00    +0.000 HD
ENDBRANCH   7  13
BRANCH   6  15
ATOM     15  C   UNL     1       3.282   3.429  16.916  0.00  0.00    +0.000 C 
BRANCH  15  16
ATOM     16  C   UNL     1       2.991   2.729  18.190  0.00  0.00    +0.000 C 
ATOM     17  C   UNL     1       3.766   2.341  19.201  0.00  0.00    +0.000 C 
ATOM     18  C   UNL     1       3.010   1.598  20.237  0.00  0.00    +0.000 C 
ATOM     19  O   UNL     1       1.646   1.748  19.793  0.00  0.00    +0.000 OA
ATOM     20  C   UNL     1       1.637   2.333  18.569  0.00  0.00    +0.000 C 
ATOM     21  O   UNL     1       0.651   2.516  17.872  0.00  0.00    +0.000 OA
BRANCH  17  22
ATOM     22  O   UNL     1       5.123   2.483  19.292  0.00  0.00    +0.000 OA
ATOM     23  H   UNL     1       5.322   3.254  19.866  0.00  0.00    +0.000 HD
ENDBRANCH  17  22
BRANCH  18  24
ATOM     24  C   UNL     1       3.134   2.139  21.649  0.00  0.00    +0.000 C 
BRANCH  24  25
ATOM     25  C   UNL     1       2.071   3.177  21.887  0.00  0.00    +0.000 C 
ATOM     26  O   UNL     1       2.216   4.365  21.642  0.00  0.00    +0.000 OA
BRANCH  25  27
ATOM     27  O   UNL     1       0.910   2.680  22.370  0.00  0.00    +0.000 OA
ATOM     28  H   UNL     1       0.516   1.968  21.823  0.00  0.00    +0.000 HD
ENDBRANCH  25  27
ENDBRANCH  24  25
ENDBRANCH  18  24
ENDBRANCH  15  16
ENDBRANCH   6  15
TORSDOF 9
ENDMDL
MODEL 7
REMARK VINA RESULT:      -6.5      2.742      6.163
REMARK  Name = 
REMARK  11 active torsions:
REMARK  status: ('A' for Active; 'I' for Inactive)
REMARK    1  A    between atoms: C_1  and  C_2
REMARK    2  A    between atoms: C_2  and  C_4
REMARK    3  A    between atoms: C_6  and  C_7
REMARK    4  A    between atoms: C_8  and  O_9
REMARK    5  A    between atoms: C_10  and  C_11
REMARK    6  A    between atoms: C_11  and  C_12
REMARK    7  A    between atoms: C_13  and  O_14
REMARK    8  A    between atoms: C_15  and  C_16
REMARK    9  A    between atoms: C_16  and  C_17
REMARK   10  A    between atoms: C_17  and  O_19
REMARK   11  A    between atoms: C_23  and  O_24
REMARK                            x       y       z     vdW  Elec       q    Type
REMARK                         _______ _______ _______ _____ _____    ______ ____
ROOT
ATOM      1  C   UNL     1       3.853   6.991  17.701  0.00  0.00    +0.000 A 
ATOM      2  C   UNL     1       5.173   7.472  17.629  0.00  0.00    +0.000 A 
ATOM      3  C   UNL     1       6.261   6.621  17.378  0.00  0.00    +0.000 A 
ATOM      4  C   UNL     1       7.647   7.202  17.332  0.00  0.00    +0.000 C 
ATOM      5  C   UNL     1       6.005   5.253  17.204  0.00  0.00    +0.000 A 
ATOM      6  C   UNL     1       4.701   4.730  17.299  0.00  0.00    +0.000 A 
ATOM      7  C   UNL     1       3.628   5.617  17.526  0.00  0.00    +0.000 A 
ENDROOT
BRANCH   1   9
ATOM      8  C   UNL     1       2.053   8.029  19.287  0.00  0.00    +0.000 C 
ATOM      9  C   UNL     1       2.774   8.001  17.965  0.00  0.00    +0.000 C 
ATOM     10  O   UNL     1       2.476   8.806  17.079  0.00  0.00    +0.000 OA
ENDBRANCH   1   9
BRANCH   5  11
ATOM     11  O   UNL     1       7.020   4.365  16.942  0.00  0.00    +0.000 OA
ATOM     12  H   UNL     1       7.628   4.766  16.298  0.00  0.00    +0.000 HD
ENDBRANCH   5  11
BRANCH   7  13
ATOM     13  O   UNL     1       2.355   5.126  17.628  0.00  0.00    +0.000 OA
ATOM     14  H   UNL     1       2.337   4.270  18.109  0.00  0.00    +0.000 HD
ENDBRANCH   7  13
BRANCH   6  15
ATOM     15  C   UNL     1       4.479   3.238  17.175  0.00  0.00    +0.000 C 
BRANCH  15  16
ATOM     16  C   UNL     1       3.715   2.689  18.320  0.00  0.00    +0.000 C 
ATOM     17  C   UNL     1       3.996   2.572  19.616  0.00  0.00    +0.000 C 
ATOM     18  C   UNL     1       2.923   1.876  20.365  0.00  0.00    +0.000 C 
ATOM     19  O   UNL     1       1.884   1.750  19.373  0.00  0.00    +0.000 OA
ATOM     20  C   UNL     1       2.367   2.147  18.168  0.00  0.00    +0.000 C 
ATOM     21  O   UNL     1       1.774   2.075  17.103  0.00  0.00    +0.000 OA
BRANCH  17  22
ATOM     22  O   UNL     1       5.160   2.933  20.236  0.00  0.00    +0.000 OA
ATOM     23  H   UNL     1       5.238   3.911  20.217  0.00  0.00    +0.000 HD
ENDBRANCH  17  22
BRANCH  18  24
ATOM     24  C   UNL     1       2.374   2.623  21.565  0.00  0.00    +0.000 C 
BRANCH  24  25
ATOM     25  C   UNL     1       1.728   3.904  21.110  0.00  0.00    +0.000 C 
ATOM     26  O   UNL     1       2.267   4.998  21.182  0.00  0.00    +0.000 OA
BRANCH  25  27
ATOM     27  O   UNL     1       0.497   3.743  20.575  0.00  0.00    +0.000 OA
ATOM     28  H   UNL     1      -0.189   4.334  20.952  0.00  0.00    +0.000 HD
ENDBRANCH  25  27
ENDBRANCH  24  25
ENDBRANCH  18  24
ENDBRANCH  15  16
ENDBRANCH   6  15
TORSDOF 9
ENDMDL
MODEL 8
REMARK VINA RESULT:      -6.4      6.239      9.888
REMARK  Name = 
REMARK  11 active torsions:
REMARK  status: ('A' for Active; 'I' for Inactive)
REMARK    1  A    between atoms: C_1  and  C_2
REMARK    2  A    between atoms: C_2  and  C_4
REMARK    3  A    between atoms: C_6  and  C_7
REMARK    4  A    between atoms: C_8  and  O_9
REMARK    5  A    between atoms: C_10  and  C_11
REMARK    6  A    between atoms: C_11  and  C_12
REMARK    7  A    between atoms: C_13  and  O_14
REMARK    8  A    between atoms: C_15  and  C_16
REMARK    9  A    between atoms: C_16  and  C_17
REMARK   10  A    between atoms: C_17  and  O_19
REMARK   11  A    between atoms: C_23  and  O_24
REMARK                            x       y       z     vdW  Elec       q    Type
REMARK                         _______ _______ _______ _____ _____    ______ ____
ROOT
ATOM      1  C   UNL     1       1.524   8.619  19.634  0.00  0.00    +0.000 A 
ATOM      2  C   UNL     1       1.146   8.554  20.988  0.00  0.00    +0.000 A 
ATOM      3  C   UNL     1       0.377   9.562  21.592  0.00  0.00    +0.000 A 
ATOM      4  C   UNL     1       0.024   9.436  23.049  0.00  0.00    +0.000 C 
ATOM      5  C   UNL     1      -0.010  10.659  20.810  0.00  0.00    +0.000 A 
ATOM      6  C   UNL     1       0.374  10.772  19.460  0.00  0.00    +0.000 A 
ATOM      7  C   UNL     1       1.124   9.730  18.877  0.00  0.00    +0.000 A 
ENDROOT
BRANCH   1   9
ATOM      8  C   UNL     1       2.335   6.139  19.796  0.00  0.00    +0.000 C 
ATOM      9  C   UNL     1       2.338   7.475  19.100  0.00  0.00    +0.000 C 
ATOM     10  O   UNL     1       3.018   7.645  18.086  0.00  0.00    +0.000 OA
ENDBRANCH   1   9
BRANCH   5  11
ATOM     11  O   UNL     1      -0.774  11.674  21.333  0.00  0.00    +0.000 OA
ATOM     12  H   UNL     1      -1.641  11.672  20.892  0.00  0.00    +0.000 HD
ENDBRANCH   5  11
BRANCH   7  13
ATOM     13  O   UNL     1       1.513   9.827  17.569  0.00  0.00    +0.000 OA
ATOM     14  H   UNL     1       1.152  10.635  17.145  0.00  0.00    +0.000 HD
ENDBRANCH   7  13
BRANCH   6  15
ATOM     15  C   UNL     1      -0.006  12.007  18.672  0.00  0.00    +0.000 C 
BRANCH  15  16
ATOM     16  C   UNL     1       1.031  13.064  18.753  0.00  0.00    +0.000 C 
ATOM     17  C   UNL     1       2.218  13.207  18.166  0.00  0.00    +0.000 C 
ATOM     18  C   UNL     1       2.934  14.418  18.631  0.00  0.00    +0.000 C 
ATOM     19  O   UNL     1       1.939  15.073  19.444  0.00  0.00    +0.000 OA
ATOM     20  C   UNL     1       0.866  14.255  19.582  0.00  0.00    +0.000 C 
ATOM     21  O   UNL     1      -0.109  14.468  20.286  0.00  0.00    +0.000 OA
BRANCH  17  22
ATOM     22  O   UNL     1       2.815  12.328  17.306  0.00  0.00    +0.000 OA
ATOM     23  H   UNL     1       3.669  12.037  17.693  0.00  0.00    +0.000 HD
ENDBRANCH  17  22
BRANCH  18  24
ATOM     24  C   UNL     1       3.386  15.369  17.539  0.00  0.00    +0.000 C 
BRANCH  24  25
ATOM     25  C   UNL     1       3.485  16.764  18.094  0.00  0.00    +0.000 C 
ATOM     26  O   UNL     1       4.465  17.191  18.684  0.00  0.00    +0.000 OA
BRANCH  25  27
ATOM     27  O   UNL     1       2.398  17.533  17.855  0.00  0.00    +0.000 OA
ATOM     28  H   UNL     1       2.153  18.128  18.595  0.00  0.00    +0.000 HD
ENDBRANCH  25  27
ENDBRANCH  24  25
ENDBRANCH  18  24
ENDBRANCH  15  16
ENDBRANCH   6  15
TORSDOF 9
ENDMDL
MODEL 9
REMARK VINA RESULT:      -6.4      2.021      4.491
REMARK  Name = 
REMARK  11 active torsions:
REMARK  status: ('A' for Active; 'I' for Inactive)
REMARK    1  A    between atoms: C_1  and  C_2
REMARK    2  A    between atoms: C_2  and  C_4
REMARK    3  A    between atoms: C_6  and  C_7
REMARK    4  A    between atoms: C_8  and  O_9
REMARK    5  A    between atoms: C_10  and  C_11
REMARK    6  A    between atoms: C_11  and  C_12
REMARK    7  A    between atoms: C_13  and  O_14
REMARK    8  A    between atoms: C_15  and  C_16
REMARK    9  A    between atoms: C_16  and  C_17
REMARK   10  A    between atoms: C_17  and  O_19
REMARK   11  A    between atoms: C_23  and  O_24
REMARK                            x       y       z     vdW  Elec       q    Type
REMARK                         _______ _______ _______ _____ _____    ______ ____
ROOT
ATOM      1  C   UNL     1       1.972   6.108  19.842  0.00  0.00    +0.000 A 
ATOM      2  C   UNL     1       1.545   5.188  20.816  0.00  0.00    +0.000 A 
ATOM      3  C   UNL     1       1.756   3.807  20.675  0.00  0.00    +0.000 A 
ATOM      4  C   UNL     1       1.256   2.879  21.748  0.00  0.00    +0.000 C 
ATOM      5  C   UNL     1       2.407   3.350  19.520  0.00  0.00    +0.000 A 
ATOM      6  C   UNL     1       2.822   4.239  18.510  0.00  0.00    +0.000 A 
ATOM      7  C   UNL     1       2.618   5.623  18.695  0.00  0.00    +0.000 A 
ENDROOT
BRANCH   1   9
ATOM      8  C   UNL     1       1.058   7.995  21.403  0.00  0.00    +0.000 C 
ATOM      9  C   UNL     1       1.698   7.560  20.111  0.00  0.00    +0.000 C 
ATOM     10  O   UNL     1       1.996   8.396  19.254  0.00  0.00    +0.000 OA
ENDBRANCH   1   9
BRANCH   5  11
ATOM     11  O   UNL     1       2.657   2.014  19.323  0.00  0.00    +0.000 OA
ATOM     12  H   UNL     1       3.519   1.919  18.882  0.00  0.00    +0.000 HD
ENDBRANCH   5  11
BRANCH   7  13
ATOM     13  O   UNL     1       3.008   6.499  17.721  0.00  0.00    +0.000 OA
ATOM     14  H   UNL     1       3.494   6.044  17.000  0.00  0.00    +0.000 HD
ENDBRANCH   7  13
BRANCH   6  15
ATOM     15  C   UNL     1       3.457   3.697  17.247  0.00  0.00    +0.000 C 
BRANCH  15  16
ATOM     16  C   UNL     1       4.895   4.044  17.151  0.00  0.00    +0.000 C 
ATOM     17  C   UNL     1       5.645   4.504  16.152  0.00  0.00    +0.000 C 
ATOM     18  C   UNL     1       7.073   4.628  16.529  0.00  0.00    +0.000 C 
ATOM     19  O   UNL     1       7.045   4.348  17.943  0.00  0.00    +0.000 OA
ATOM     20  C   UNL     1       5.801   3.932  18.292  0.00  0.00    +0.000 C 
ATOM     21  O   UNL     1       5.467   3.525  19.393  0.00  0.00    +0.000 OA
BRANCH  17  22
ATOM     22  O   UNL     1       5.236   4.755  14.871  0.00  0.00    +0.000 OA
ATOM     23  H   UNL     1       6.011   4.691  14.273  0.00  0.00    +0.000 HD
ENDBRANCH  17  22
BRANCH  18  24
ATOM     24  C   UNL     1       7.691   5.996  16.308  0.00  0.00    +0.000 C 
BRANCH  24  25
ATOM     25  C   UNL     1       7.262   6.928  17.409  0.00  0.00    +0.000 C 
ATOM     26  O   UNL     1       6.259   7.623  17.357  0.00  0.00    +0.000 OA
BRANCH  25  27
ATOM     27  O   UNL     1       8.070   6.910  18.494  0.00  0.00    +0.000 OA
ATOM     28  H   UNL     1       8.554   7.748  18.650  0.00  0.00    +0.000 HD
ENDBRANCH  25  27
ENDBRANCH  24  25
ENDBRANCH  18  24
ENDBRANCH  15  16
ENDBRANCH   6  15
TORSDOF 9
ENDMDL
