MODEL 1
REMARK VINA RESULT:      -8.4      0.000      0.000
REMARK  Name = 
REMARK  9 active torsions:
REMARK  status: ('A' for Active; 'I' for Inactive)
REMARK    1  A    between atoms: C_1  and  C_2
REMARK    2  A    between atoms: C_2  and  C_3
REMARK    3  A    between atoms: C_2  and  N_4
REMARK    4  A    between atoms: N_4  and  C_5
REMARK    5  A    between atoms: C_5  and  N_7
REMARK    6  A    between atoms: N_7  and  N_8
REMARK    7  A    between atoms: C_11  and  C_12
REMARK    8  A    between atoms: C_15  and  O_16
REMARK    9  A    between atoms: C_22  and  O_23
REMARK                            x       y       z     vdW  Elec       q    Type
REMARK                         _______ _______ _______ _____ _____    ______ ____
ROOT
ATOM      1  N   UNL     1       4.526   4.965  17.241  0.00  0.00    +0.000 NA
ATOM      2  C   UNL     1       3.498   5.339  17.954  0.00  0.00    +0.000 C 
ATOM      3  C   UNL     1       2.674   6.588  17.798  0.00  0.00    +0.000 C 
ATOM      4  C   UNL     1       2.562   7.187  19.202  0.00  0.00    +0.000 C 
ATOM      5  O   UNL     1       1.814   6.320  20.076  0.00  0.00    +0.000 OA
ATOM      6  C   UNL     1       2.258   5.021  20.077  0.00  0.00    +0.000 A 
ATOM      7  C   UNL     1       1.845   4.224  21.147  0.00  0.00    +0.000 A 
ATOM      8  C   UNL     1       2.253   2.893  21.205  0.00  0.00    +0.000 A 
ATOM      9  C   UNL     1       3.056   2.344  20.208  0.00  0.00    +0.000 A 
ATOM     10  C   UNL     1       3.470   3.135  19.140  0.00  0.00    +0.000 A 
ATOM     11  C   UNL     1       3.065   4.475  19.075  0.00  0.00    +0.000 A 
ENDROOT
BRANCH   4  12
ATOM     12  C   UNL     1       1.891   8.547  19.104  0.00  0.00    +0.000 A 
ATOM     13  C   UNL     1       2.119   9.404  18.015  0.00  0.00    +0.000 A 
ATOM     14  C   UNL     1       1.643  10.718  18.033  0.00  0.00    +0.000 A 
ATOM     15  C   UNL     1       0.925  11.171  19.133  0.00  0.00    +0.000 A 
ATOM     16  C   UNL     1       0.635  10.323  20.192  0.00  0.00    +0.000 A 
ATOM     17  C   UNL     1       1.118   9.013  20.181  0.00  0.00    +0.000 A 
BRANCH  15  18
ATOM     18  O   UNL     1       0.499  12.463  19.219  0.00  0.00    +0.000 OA
ATOM     19  H   UNL     1      -0.420  12.465  19.535  0.00  0.00    +0.000 HD
ENDBRANCH  15  18
ENDBRANCH   4  12
BRANCH   1  20
ATOM     20  N   UNL     1       5.037   5.733  16.251  0.00  0.00    +0.000 N 
ATOM     21  H   UNL     1       4.495   6.490  15.818  0.00  0.00    +0.000 HD
BRANCH  20  22
ATOM     22  C   UNL     1       6.305   5.493  15.754  0.00  0.00    +0.000 C 
ATOM     23  S   UNL     1       6.544   4.412  14.514  0.00  0.00    +0.000 S 
BRANCH  22  24
ATOM     24  N   UNL     1       7.289   6.232  16.382  0.00  0.00    +0.000 N 
ATOM     25  H   UNL     1       8.099   6.388  15.790  0.00  0.00    +0.000 HD
BRANCH  24  27
ATOM     26  C   UNL     1       7.766   6.060  18.792  0.00  0.00    +0.000 C 
ATOM     27  C   UNL     1       7.194   6.920  17.669  0.00  0.00    +0.000 C 
ATOM     28  C   UNL     1       7.922   8.266  17.644  0.00  0.00    +0.000 C 
ENDBRANCH  24  27
ENDBRANCH  22  24
ENDBRANCH  20  22
ENDBRANCH   1  20
BRANCH   8  29
ATOM     29  O   UNL     1       1.888   2.077  22.233  0.00  0.00    +0.000 OA
ATOM     30  H   UNL     1       1.485   1.270  21.870  0.00  0.00    +0.000 HD
ENDBRANCH   8  29
TORSDOF 7
ENDMDL
MODEL 2
REMARK VINA RESULT:      -8.3      0.387      1.017
REMARK  Name = 
REMARK  9 active torsions:
REMARK  status: ('A' for Active; 'I' for Inactive)
REMARK    1  A    between atoms: C_1  and  C_2
REMARK    2  A    between atoms: C_2  and  C_3
REMARK    3  A    between atoms: C_2  and  N_4
REMARK    4  A    between atoms: N_4  and  C_5
REMARK    5  A    between atoms: C_5  and  N_7
REMARK    6  A    between atoms: N_7  and  N_8
REMARK    7  A    between atoms: C_11  and  C_12
REMARK    8  A    between atoms: C_15  and  O_16
REMARK    9  A    between atoms: C_22  and  O_23
REMARK                            x       y       z     vdW  Elec       q    Type
REMARK                         _______ _______ _______ _____ _____    ______ ____
ROOT
ATOM      1  N   UNL     1       4.571   5.003  17.366  0.00  0.00    +0.000 NA
ATOM      2  C   UNL     1       3.528   5.333  18.079  0.00  0.00    +0.000 C 
ATOM      3  C   UNL     1       2.667   6.558  17.939  0.00  0.00    +0.000 C 
ATOM      4  C   UNL     1       2.528   7.129  19.354  0.00  0.00    +0.000 C 
ATOM      5  O   UNL     1       1.803   6.224  20.206  0.00  0.00    +0.000 OA
ATOM      6  C   UNL     1       2.286   4.939  20.187  0.00  0.00    +0.000 A 
ATOM      7  C   UNL     1       1.891   4.110  21.241  0.00  0.00    +0.000 A 
ATOM      8  C   UNL     1       2.340   2.791  21.277  0.00  0.00    +0.000 A 
ATOM      9  C   UNL     1       3.165   2.286  20.276  0.00  0.00    +0.000 A 
ATOM     10  C   UNL     1       3.561   3.108  19.225  0.00  0.00    +0.000 A 
ATOM     11  C   UNL     1       3.116   4.436  19.181  0.00  0.00    +0.000 A 
ENDROOT
BRANCH   4  12
ATOM     12  C   UNL     1       1.816   8.469  19.275  0.00  0.00    +0.000 A 
ATOM     13  C   UNL     1       1.098   8.987  20.365  0.00  0.00    +0.000 A 
ATOM     14  C   UNL     1       0.300  10.124  20.215  0.00  0.00    +0.000 A 
ATOM     15  C   UNL     1       0.231  10.753  18.977  0.00  0.00    +0.000 A 
ATOM     16  C   UNL     1       0.980  10.294  17.903  0.00  0.00    +0.000 A 
ATOM     17  C   UNL     1       1.770   9.153  18.048  0.00  0.00    +0.000 A 
BRANCH  15  18
ATOM     18  O   UNL     1      -0.585  11.826  18.771  0.00  0.00    +0.000 OA
ATOM     19  H   UNL     1      -1.016  12.052  19.612  0.00  0.00    +0.000 HD
ENDBRANCH  15  18
ENDBRANCH   4  12
BRANCH   1  20
ATOM     20  N   UNL     1       5.064   5.804  16.393  0.00  0.00    +0.000 N 
ATOM     21  H   UNL     1       4.519   6.583  16.004  0.00  0.00    +0.000 HD
BRANCH  20  22
ATOM     22  C   UNL     1       6.316   5.573  15.853  0.00  0.00    +0.000 C 
ATOM     23  S   UNL     1       6.521   4.487  14.611  0.00  0.00    +0.000 S 
BRANCH  22  24
ATOM     24  N   UNL     1       7.315   6.321  16.443  0.00  0.00    +0.000 N 
ATOM     25  H   UNL     1       8.104   6.479  15.823  0.00  0.00    +0.000 HD
BRANCH  24  27
ATOM     26  C   UNL     1       7.838   6.151  18.844  0.00  0.00    +0.000 C 
ATOM     27  C   UNL     1       7.259   7.016  17.729  0.00  0.00    +0.000 C 
ATOM     28  C   UNL     1       8.010   8.349  17.684  0.00  0.00    +0.000 C 
ENDBRANCH  24  27
ENDBRANCH  22  24
ENDBRANCH  20  22
ENDBRANCH   1  20
BRANCH   8  29
ATOM     29  O   UNL     1       1.994   1.947  22.288  0.00  0.00    +0.000 OA
ATOM     30  H   UNL     1       1.124   2.206  22.635  0.00  0.00    +0.000 HD
ENDBRANCH   8  29
TORSDOF 7
ENDMDL
MODEL 3
REMARK VINA RESULT:      -8.0      0.828      1.452
REMARK  Name = 
REMARK  9 active torsions:
REMARK  status: ('A' for Active; 'I' for Inactive)
REMARK    1  A    between atoms: C_1  and  C_2
REMARK    2  A    between atoms: C_2  and  C_3
REMARK    3  A    between atoms: C_2  and  N_4
REMARK    4  A    between atoms: N_4  and  C_5
REMARK    5  A    between atoms: C_5  and  N_7
REMARK    6  A    between atoms: N_7  and  N_8
REMARK    7  A    between atoms: C_11  and  C_12
REMARK    8  A    between atoms: C_15  and  O_16
REMARK    9  A    between atoms: C_22  and  O_23
REMARK                            x       y       z     vdW  Elec       q    Type
REMARK                         _______ _______ _______ _____ _____    ______ ____
ROOT
ATOM      1  N   UNL     1       4.204   4.152  17.352  0.00  0.00    +0.000 NA
ATOM      2  C   UNL     1       3.257   4.693  18.071  0.00  0.00    +0.000 C 
ATOM      3  C   UNL     1       2.608   6.036  17.878  0.00  0.00    +0.000 C 
ATOM      4  C   UNL     1       2.619   6.702  19.257  0.00  0.00    +0.000 C 
ATOM      5  O   UNL     1       1.785   5.982  20.185  0.00  0.00    +0.000 OA
ATOM      6  C   UNL     1       2.046   4.636  20.233  0.00  0.00    +0.000 A 
ATOM      7  C   UNL     1       1.559   3.947  21.347  0.00  0.00    +0.000 A 
ATOM      8  C   UNL     1       1.783   2.576  21.454  0.00  0.00    +0.000 A 
ATOM      9  C   UNL     1       2.474   1.882  20.465  0.00  0.00    +0.000 A 
ATOM     10  C   UNL     1       2.962   2.564  19.354  0.00  0.00    +0.000 A 
ATOM     11  C   UNL     1       2.742   3.943  19.239  0.00  0.00    +0.000 A 
ENDROOT
BRANCH   4  12
ATOM     12  C   UNL     1       2.138   8.136  19.114  0.00  0.00    +0.000 A 
ATOM     13  C   UNL     1       1.357   8.755  20.104  0.00  0.00    +0.000 A 
ATOM     14  C   UNL     1       0.771  10.001  19.873  0.00  0.00    +0.000 A 
ATOM     15  C   UNL     1       0.978  10.639  18.655  0.00  0.00    +0.000 A 
ATOM     16  C   UNL     1       1.795  10.074  17.685  0.00  0.00    +0.000 A 
ATOM     17  C   UNL     1       2.373   8.824  17.911  0.00  0.00    +0.000 A 
BRANCH  15  18
ATOM     18  O   UNL     1       0.372  11.825  18.363  0.00  0.00    +0.000 OA
ATOM     19  H   UNL     1       0.832  12.228  17.608  0.00  0.00    +0.000 HD
ENDBRANCH  15  18
ENDBRANCH   4  12
BRANCH   1  20
ATOM     20  N   UNL     1       4.786   4.801  16.318  0.00  0.00    +0.000 N 
ATOM     21  H   UNL     1       4.255   5.432  15.705  0.00  0.00    +0.000 HD
BRANCH  20  22
ATOM     22  C   UNL     1       6.122   4.602  16.021  0.00  0.00    +0.000 C 
ATOM     23  S   UNL     1       6.660   4.636  14.448  0.00  0.00    +0.000 S 
BRANCH  22  24
ATOM     24  N   UNL     1       6.907   4.388  17.137  0.00  0.00    +0.000 N 
ATOM     25  H   UNL     1       7.202   3.421  17.229  0.00  0.00    +0.000 HD
BRANCH  24  27
ATOM     26  C   UNL     1       7.397   6.787  17.402  0.00  0.00    +0.000 C 
ATOM     27  C   UNL     1       7.466   5.400  18.034  0.00  0.00    +0.000 C 
ATOM     28  C   UNL     1       6.739   5.424  19.380  0.00  0.00    +0.000 C 
ENDBRANCH  24  27
ENDBRANCH  22  24
ENDBRANCH  20  22
ENDBRANCH   1  20
BRANCH   8  29
ATOM     29  O   UNL     1       1.338   1.861  22.525  0.00  0.00    +0.000 OA
ATOM     30  H   UNL     1       1.977   1.948  23.252  0.00  0.00    +0.000 HD
ENDBRANCH   8  29
TORSDOF 7
ENDMDL
MODEL 4
REMARK VINA RESULT:      -7.9      1.390      2.264
REMARK  Name = 
REMARK  9 active torsions:
REMARK  status: ('A' for Active; 'I' for Inactive)
REMARK    1  A    between atoms: C_1  and  C_2
REMARK    2  A    between atoms: C_2  and  C_3
REMARK    3  A    between atoms: C_2  and  N_4
REMARK    4  A    between atoms: N_4  and  C_5
REMARK    5  A    between atoms: C_5  and  N_7
REMARK    6  A    between atoms: N_7  and  N_8
REMARK    7  A    between atoms: C_11  and  C_12
REMARK    8  A    between atoms: C_15  and  O_16
REMARK    9  A    between atoms: C_22  and  O_23
REMARK                            x       y       z     vdW  Elec       q    Type
REMARK                         _______ _______ _______ _____ _____    ______ ____
ROOT
ATOM      1  N   UNL     1       4.918   5.694  17.945  0.00  0.00    +0.000 NA
ATOM      2  C   UNL     1       3.745   5.836  18.502  0.00  0.00    +0.000 C 
ATOM      3  C   UNL     1       2.761   6.957  18.305  0.00  0.00    +0.000 C 
ATOM      4  C   UNL     1       2.338   7.386  19.713  0.00  0.00    +0.000 C 
ATOM      5  O   UNL     1       1.618   6.332  20.379  0.00  0.00    +0.000 OA
ATOM      6  C   UNL     1       2.262   5.120  20.355  0.00  0.00    +0.000 A 
ATOM      7  C   UNL     1       1.826   4.165  21.276  0.00  0.00    +0.000 A 
ATOM      8  C   UNL     1       2.434   2.911  21.299  0.00  0.00    +0.000 A 
ATOM      9  C   UNL     1       3.459   2.594  20.413  0.00  0.00    +0.000 A 
ATOM     10  C   UNL     1       3.897   3.543  19.493  0.00  0.00    +0.000 A 
ATOM     11  C   UNL     1       3.293   4.806  19.464  0.00  0.00    +0.000 A 
ENDROOT
BRANCH   4  12
ATOM     12  C   UNL     1       1.476   8.633  19.608  0.00  0.00    +0.000 A 
ATOM     13  C   UNL     1       0.746   9.120  20.705  0.00  0.00    +0.000 A 
ATOM     14  C   UNL     1      -0.180  10.152  20.541  0.00  0.00    +0.000 A 
ATOM     15  C   UNL     1      -0.368  10.710  19.282  0.00  0.00    +0.000 A 
ATOM     16  C   UNL     1       0.386  10.286  18.196  0.00  0.00    +0.000 A 
ATOM     17  C   UNL     1       1.306   9.248  18.356  0.00  0.00    +0.000 A 
BRANCH  15  18
ATOM     18  O   UNL     1      -1.308  11.673  19.065  0.00  0.00    +0.000 OA
ATOM     19  H   UNL     1      -2.144  11.383  19.465  0.00  0.00    +0.000 HD
ENDBRANCH  15  18
ENDBRANCH   4  12
BRANCH   1  20
ATOM     20  N   UNL     1       5.442   6.627  17.117  0.00  0.00    +0.000 N 
ATOM     21  H   UNL     1       4.848   7.283  16.594  0.00  0.00    +0.000 HD
BRANCH  20  22
ATOM     22  C   UNL     1       6.807   6.702  16.909  0.00  0.00    +0.000 C 
ATOM     23  S   UNL     1       7.722   7.864  17.667  0.00  0.00    +0.000 S 
BRANCH  22  24
ATOM     24  N   UNL     1       7.284   5.737  16.043  0.00  0.00    +0.000 N 
ATOM     25  H   UNL     1       8.186   5.368  16.326  0.00  0.00    +0.000 HD
BRANCH  24  27
ATOM     26  C   UNL     1       7.439   5.045  13.684  0.00  0.00    +0.000 C 
ATOM     27  C   UNL     1       6.565   5.111  14.933  0.00  0.00    +0.000 C 
ATOM     28  C   UNL     1       6.092   3.700  15.291  0.00  0.00    +0.000 C 
ENDBRANCH  24  27
ENDBRANCH  22  24
ENDBRANCH  20  22
ENDBRANCH   1  20
BRANCH   8  29
ATOM     29  O   UNL     1       2.053   1.949  22.186  0.00  0.00    +0.000 OA
ATOM     30  H   UNL     1       2.139   2.297  23.088  0.00  0.00    +0.000 HD
ENDBRANCH   8  29
TORSDOF 7
ENDMDL
MODEL 5
REMARK VINA RESULT:      -7.8      3.076      5.218
REMARK  Name = 
REMARK  9 active torsions:
REMARK  status: ('A' for Active; 'I' for Inactive)
REMARK    1  A    between atoms: C_1  and  C_2
REMARK    2  A    between atoms: C_2  and  C_3
REMARK    3  A    between atoms: C_2  and  N_4
REMARK    4  A    between atoms: N_4  and  C_5
REMARK    5  A    between atoms: C_5  and  N_7
REMARK    6  A    between atoms: N_7  and  N_8
REMARK    7  A    between atoms: C_11  and  C_12
REMARK    8  A    between atoms: C_15  and  O_16
REMARK    9  A    between atoms: C_22  and  O_23
REMARK                            x       y       z     vdW  Elec       q    Type
REMARK                         _______ _______ _______ _____ _____    ______ ____
ROOT
ATOM      1  N   UNL     1       4.952   3.463  19.341  0.00  0.00    +0.000 NA
ATOM      2  C   UNL     1       4.847   4.647  18.799  0.00  0.00    +0.000 C 
ATOM      3  C   UNL     1       4.103   5.840  19.330  0.00  0.00    +0.000 C 
ATOM      4  C   UNL     1       3.267   6.362  18.158  0.00  0.00    +0.000 C 
ATOM      5  O   UNL     1       4.112   6.854  17.101  0.00  0.00    +0.000 OA
ATOM      6  C   UNL     1       5.089   5.969  16.716  0.00  0.00    +0.000 A 
ATOM      7  C   UNL     1       5.691   6.207  15.478  0.00  0.00    +0.000 A 
ATOM      8  C   UNL     1       6.696   5.350  15.032  0.00  0.00    +0.000 A 
ATOM      9  C   UNL     1       7.114   4.270  15.805  0.00  0.00    +0.000 A 
ATOM     10  C   UNL     1       6.516   4.029  17.038  0.00  0.00    +0.000 A 
ATOM     11  C   UNL     1       5.504   4.885  17.494  0.00  0.00    +0.000 A 
ENDROOT
BRANCH   4  12
ATOM     12  C   UNL     1       2.351   7.465  18.661  0.00  0.00    +0.000 A 
ATOM     13  C   UNL     1       1.962   8.533  17.836  0.00  0.00    +0.000 A 
ATOM     14  C   UNL     1       1.276   9.628  18.367  0.00  0.00    +0.000 A 
ATOM     15  C   UNL     1       0.963   9.649  19.722  0.00  0.00    +0.000 A 
ATOM     16  C   UNL     1       1.284   8.577  20.543  0.00  0.00    +0.000 A 
ATOM     17  C   UNL     1       1.979   7.486  20.016  0.00  0.00    +0.000 A 
BRANCH  15  18
ATOM     18  O   UNL     1       0.353  10.725  20.293  0.00  0.00    +0.000 OA
ATOM     19  H   UNL     1       0.949  11.490  20.226  0.00  0.00    +0.000 HD
ENDBRANCH  15  18
ENDBRANCH   4  12
BRANCH   1  20
ATOM     20  N   UNL     1       4.318   3.136  20.490  0.00  0.00    +0.000 N 
ATOM     21  H   UNL     1       4.772   3.228  21.407  0.00  0.00    +0.000 HD
BRANCH  20  22
ATOM     22  C   UNL     1       3.035   2.619  20.467  0.00  0.00    +0.000 C 
ATOM     23  S   UNL     1       2.002   2.844  21.750  0.00  0.00    +0.000 S 
BRANCH  22  24
ATOM     24  N   UNL     1       2.740   1.934  19.304  0.00  0.00    +0.000 N 
ATOM     25  H   UNL     1       3.093   0.982  19.311  0.00  0.00    +0.000 HD
BRANCH  24  27
ATOM     26  C   UNL     1       1.090   3.626  18.611  0.00  0.00    +0.000 C 
ATOM     27  C   UNL     1       1.864   2.371  18.218  0.00  0.00    +0.000 C 
ATOM     28  C   UNL     1       2.651   2.646  16.934  0.00  0.00    +0.000 C 
ENDBRANCH  24  27
ENDBRANCH  22  24
ENDBRANCH  20  22
ENDBRANCH   1  20
BRANCH   8  29
ATOM     29  O   UNL     1       7.307   5.532  13.828  0.00  0.00    +0.000 OA
ATOM     30  H   UNL     1       7.970   6.237  13.912  0.00  0.00    +0.000 HD
ENDBRANCH   8  29
TORSDOF 7
ENDMDL
MODEL 6
REMARK VINA RESULT:      -7.8      1.334      2.021
REMARK  Name = 
REMARK  9 active torsions:
REMARK  status: ('A' for Active; 'I' for Inactive)
REMARK    1  A    between atoms: C_1  and  C_2
REMARK    2  A    between atoms: C_2  and  C_3
REMARK    3  A    between atoms: C_2  and  N_4
REMARK    4  A    between atoms: N_4  and  C_5
REMARK    5  A    between atoms: C_5  and  N_7
REMARK    6  A    between atoms: N_7  and  N_8
REMARK    7  A    between atoms: C_11  and  C_12
REMARK    8  A    between atoms: C_15  and  O_16
REMARK    9  A    between atoms: C_22  and  O_23
REMARK                            x       y       z     vdW  Elec       q    Type
REMARK                         _______ _______ _______ _____ _____    ______ ____
ROOT
ATOM      1  N   UNL     1       4.929   5.738  18.034  0.00  0.00    +0.000 NA
ATOM      2  C   UNL     1       3.748   5.860  18.579  0.00  0.00    +0.000 C 
ATOM      3  C   UNL     1       2.757   6.975  18.388  0.00  0.00    +0.000 C 
ATOM      4  C   UNL     1       2.312   7.379  19.796  0.00  0.00    +0.000 C 
ATOM      5  O   UNL     1       1.593   6.308  20.437  0.00  0.00    +0.000 OA
ATOM      6  C   UNL     1       2.249   5.103  20.402  0.00  0.00    +0.000 A 
ATOM      7  C   UNL     1       1.810   4.129  21.303  0.00  0.00    +0.000 A 
ATOM      8  C   UNL     1       2.429   2.881  21.314  0.00  0.00    +0.000 A 
ATOM      9  C   UNL     1       3.468   2.587  20.436  0.00  0.00    +0.000 A 
ATOM     10  C   UNL     1       3.908   3.554  19.537  0.00  0.00    +0.000 A 
ATOM     11  C   UNL     1       3.293   4.812  19.520  0.00  0.00    +0.000 A 
ENDROOT
BRANCH   4  12
ATOM     12  C   UNL     1       1.440   8.619  19.699  0.00  0.00    +0.000 A 
ATOM     13  C   UNL     1       1.419   9.417  18.544  0.00  0.00    +0.000 A 
ATOM     14  C   UNL     1       0.759  10.648  18.542  0.00  0.00    +0.000 A 
ATOM     15  C   UNL     1       0.105  11.077  19.691  0.00  0.00    +0.000 A 
ATOM     16  C   UNL     1       0.062  10.277  20.825  0.00  0.00    +0.000 A 
ATOM     17  C   UNL     1       0.729   9.051  20.832  0.00  0.00    +0.000 A 
BRANCH  15  18
ATOM     18  O   UNL     1      -0.495  12.299  19.753  0.00  0.00    +0.000 OA
ATOM     19  H   UNL     1      -0.047  12.829  20.433  0.00  0.00    +0.000 HD
ENDBRANCH  15  18
ENDBRANCH   4  12
BRANCH   1  20
ATOM     20  N   UNL     1       5.454   6.688  17.228  0.00  0.00    +0.000 N 
ATOM     21  H   UNL     1       4.865   7.378  16.746  0.00  0.00    +0.000 HD
BRANCH  20  22
ATOM     22  C   UNL     1       6.815   6.737  16.985  0.00  0.00    +0.000 C 
ATOM     23  S   UNL     1       7.760   7.923  17.665  0.00  0.00    +0.000 S 
BRANCH  22  24
ATOM     24  N   UNL     1       7.261   5.726  16.155  0.00  0.00    +0.000 N 
ATOM     25  H   UNL     1       8.135   5.318  16.471  0.00  0.00    +0.000 HD
BRANCH  24  27
ATOM     26  C   UNL     1       7.406   5.060  13.789  0.00  0.00    +0.000 C 
ATOM     27  C   UNL     1       6.538   5.111  15.042  0.00  0.00    +0.000 C 
ATOM     28  C   UNL     1       6.069   3.696  15.388  0.00  0.00    +0.000 C 
ENDBRANCH  24  27
ENDBRANCH  22  24
ENDBRANCH  20  22
ENDBRANCH   1  20
BRANCH   8  29
ATOM     29  O   UNL     1       2.046   1.902  22.181  0.00  0.00    +0.000 OA
ATOM     30  H   UNL     1       2.189   2.210  23.091  0.00  0.00    +0.000 HD
ENDBRANCH   8  29
TORSDOF 7
ENDMDL
MODEL 7
REMARK VINA RESULT:      -7.7      1.764      2.400
REMARK  Name = 
REMARK  9 active torsions:
REMARK  status: ('A' for Active; 'I' for Inactive)
REMARK    1  A    between atoms: C_1  and  C_2
REMARK    2  A    between atoms: C_2  and  C_3
REMARK    3  A    between atoms: C_2  and  N_4
REMARK    4  A    between atoms: N_4  and  C_5
REMARK    5  A    between atoms: C_5  and  N_7
REMARK    6  A    between atoms: N_7  and  N_8
REMARK    7  A    between atoms: C_11  and  C_12
REMARK    8  A    between atoms: C_15  and  O_16
REMARK    9  A    between atoms: C_22  and  O_23
REMARK                            x       y       z     vdW  Elec       q    Type
REMARK                         _______ _______ _______ _____ _____    ______ ____
ROOT
ATOM      1  N   UNL     1       5.723   4.889  18.816  0.00  0.00    +0.000 NA
ATOM      2  C   UNL     1       4.469   5.186  18.603  0.00  0.00    +0.000 C 
ATOM      3  C   UNL     1       3.879   6.539  18.315  0.00  0.00    +0.000 C 
ATOM      4  C   UNL     1       2.681   6.677  19.259  0.00  0.00    +0.000 C 
ATOM      5  O   UNL     1       1.658   5.716  18.938  0.00  0.00    +0.000 OA
ATOM      6  C   UNL     1       2.121   4.428  18.837  0.00  0.00    +0.000 A 
ATOM      7  C   UNL     1       1.161   3.415  18.902  0.00  0.00    +0.000 A 
ATOM      8  C   UNL     1       1.564   2.085  18.798  0.00  0.00    +0.000 A 
ATOM      9  C   UNL     1       2.903   1.752  18.620  0.00  0.00    +0.000 A 
ATOM     10  C   UNL     1       3.863   2.758  18.556  0.00  0.00    +0.000 A 
ATOM     11  C   UNL     1       3.468   4.098  18.661  0.00  0.00    +0.000 A 
ENDROOT
BRANCH   4  12
ATOM     12  C   UNL     1       2.134   8.090  19.154  0.00  0.00    +0.000 A 
ATOM     13  C   UNL     1       1.343   8.652  20.170  0.00  0.00    +0.000 A 
ATOM     14  C   UNL     1       0.698   9.875  19.975  0.00  0.00    +0.000 A 
ATOM     15  C   UNL     1       0.855  10.547  18.768  0.00  0.00    +0.000 A 
ATOM     16  C   UNL     1       1.680  10.041  17.774  0.00  0.00    +0.000 A 
ATOM     17  C   UNL     1       2.318   8.813  17.963  0.00  0.00    +0.000 A 
BRANCH  15  18
ATOM     18  O   UNL     1       0.191  11.710  18.511  0.00  0.00    +0.000 OA
ATOM     19  H   UNL     1      -0.171  11.666  17.611  0.00  0.00    +0.000 HD
ENDBRANCH  15  18
ENDBRANCH   4  12
BRANCH   1  20
ATOM     20  N   UNL     1       6.691   5.833  18.861  0.00  0.00    +0.000 N 
ATOM     21  H   UNL     1       6.994   6.259  19.746  0.00  0.00    +0.000 HD
BRANCH  20  22
ATOM     22  C   UNL     1       7.284   6.294  17.700  0.00  0.00    +0.000 C 
ATOM     23  S   UNL     1       7.687   7.897  17.526  0.00  0.00    +0.000 S 
BRANCH  22  24
ATOM     24  N   UNL     1       7.491   5.303  16.759  0.00  0.00    +0.000 N 
ATOM     25  H   UNL     1       8.152   4.599  17.071  0.00  0.00    +0.000 HD
BRANCH  24  27
ATOM     26  C   UNL     1       6.192   3.678  15.442  0.00  0.00    +0.000 C 
ATOM     27  C   UNL     1       6.749   5.096  15.515  0.00  0.00    +0.000 C 
ATOM     28  C   UNL     1       5.601   6.097  15.370  0.00  0.00    +0.000 C 
ENDBRANCH  24  27
ENDBRANCH  22  24
ENDBRANCH  20  22
ENDBRANCH   1  20
BRANCH   8  29
ATOM     29  O   UNL     1       0.668   1.060  18.866  0.00  0.00    +0.000 OA
ATOM     30  H   UNL     1      -0.221   1.402  18.676  0.00  0.00    +0.000 HD
ENDBRANCH   8  29
TORSDOF 7
ENDMDL
MODEL 8
REMARK VINA RESULT:      -7.6      1.418      2.276
REMARK  Name = 
REMARK  9 active torsions:
REMARK  status: ('A' for Active; 'I' for Inactive)
REMARK    1  A    between atoms: C_1  and  C_2
REMARK    2  A    between atoms: C_2  and  C_3
REMARK    3  A    between atoms: C_2  and  N_4
REMARK    4  A    between atoms: N_4  and  C_5
REMARK    5  A    between atoms: C_5  and  N_7
REMARK    6  A    between atoms: N_7  and  N_8
REMARK    7  A    between atoms: C_11  and  C_12
REMARK    8  A    between atoms: C_15  and  O_16
REMARK    9  A    between atoms: C_22  and  O_23
REMARK                            x       y       z     vdW  Elec       q    Type
REMARK                         _______ _______ _______ _____ _____    ______ ____
ROOT
ATOM      1  N   UNL     1       4.209   4.307  17.271  0.00  0.00    +0.000 NA
ATOM      2  C   UNL     1       3.262   4.824  18.008  0.00  0.00    +0.000 C 
ATOM      3  C   UNL     1       2.588   6.158  17.839  0.00  0.00    +0.000 C 
ATOM      4  C   UNL     1       2.606   6.809  19.225  0.00  0.00    +0.000 C 
ATOM      5  O   UNL     1       1.797   6.064  20.155  0.00  0.00    +0.000 OA
ATOM      6  C   UNL     1       2.081   4.722  20.185  0.00  0.00    +0.000 A 
ATOM      7  C   UNL     1       1.620   4.013  21.297  0.00  0.00    +0.000 A 
ATOM      8  C   UNL     1       1.869   2.645  21.385  0.00  0.00    +0.000 A 
ATOM      9  C   UNL     1       2.559   1.974  20.380  0.00  0.00    +0.000 A 
ATOM     10  C   UNL     1       3.020   2.676  19.270  0.00  0.00    +0.000 A 
ATOM     11  C   UNL     1       2.776   4.052  19.174  0.00  0.00    +0.000 A 
ENDROOT
BRANCH   4  12
ATOM     12  C   UNL     1       2.099   8.236  19.104  0.00  0.00    +0.000 A 
ATOM     13  C   UNL     1       1.267   8.808  20.081  0.00  0.00    +0.000 A 
ATOM     14  C   UNL     1       0.663  10.048  19.862  0.00  0.00    +0.000 A 
ATOM     15  C   UNL     1       0.902  10.726  18.673  0.00  0.00    +0.000 A 
ATOM     16  C   UNL     1       1.768  10.208  17.720  0.00  0.00    +0.000 A 
ATOM     17  C   UNL     1       2.365   8.964  17.932  0.00  0.00    +0.000 A 
BRANCH  15  18
ATOM     18  O   UNL     1       0.281  11.907  18.391  0.00  0.00    +0.000 OA
ATOM     19  H   UNL     1       0.456  12.133  17.463  0.00  0.00    +0.000 HD
ENDBRANCH  15  18
ENDBRANCH   4  12
BRANCH   1  20
ATOM     20  N   UNL     1       4.766   4.978  16.237  0.00  0.00    +0.000 N 
ATOM     21  H   UNL     1       4.197   5.400  15.493  0.00  0.00    +0.000 HD
BRANCH  20  22
ATOM     22  C   UNL     1       6.140   5.082  16.120  0.00  0.00    +0.000 C 
ATOM     23  S   UNL     1       7.132   4.777  17.418  0.00  0.00    +0.000 S 
BRANCH  22  24
ATOM     24  N   UNL     1       6.557   5.447  14.854  0.00  0.00    +0.000 N 
ATOM     25  H   UNL     1       6.557   6.453  14.718  0.00  0.00    +0.000 HD
BRANCH  24  27
ATOM     26  C   UNL     1       6.056   3.758  13.134  0.00  0.00    +0.000 C 
ATOM     27  C   UNL     1       7.137   4.580  13.829  0.00  0.00    +0.000 C 
ATOM     28  C   UNL     1       7.908   5.385  12.780  0.00  0.00    +0.000 C 
ENDBRANCH  24  27
ENDBRANCH  22  24
ENDBRANCH  20  22
ENDBRANCH   1  20
BRANCH   8  29
ATOM     29  O   UNL     1       1.451   1.910  22.454  0.00  0.00    +0.000 OA
ATOM     30  H   UNL     1       0.601   1.492  22.239  0.00  0.00    +0.000 HD
ENDBRANCH   8  29
TORSDOF 7
ENDMDL
MODEL 9
REMARK VINA RESULT:      -7.6      3.074      5.386
REMARK  Name = 
REMARK  9 active torsions:
REMARK  status: ('A' for Active; 'I' for Inactive)
REMARK    1  A    between atoms: C_1  and  C_2
REMARK    2  A    between atoms: C_2  and  C_3
REMARK    3  A    between atoms: C_2  and  N_4
REMARK    4  A    between atoms: N_4  and  C_5
REMARK    5  A    between atoms: C_5  and  N_7
REMARK    6  A    between atoms: N_7  and  N_8
REMARK    7  A    between atoms: C_11  and  C_12
REMARK    8  A    between atoms: C_15  and  O_16
REMARK    9  A    between atoms: C_22  and  O_23
REMARK                            x       y       z     vdW  Elec       q    Type
REMARK                         _______ _______ _______ _____ _____    ______ ____
ROOT
ATOM      1  N   UNL     1       5.093   3.455  19.159  0.00  0.00    +0.000 NA
ATOM      2  C   UNL     1       4.997   4.650  18.639  0.00  0.00    +0.000 C 
ATOM      3  C   UNL     1       4.322   5.858  19.227  0.00  0.00    +0.000 C 
ATOM      4  C   UNL     1       3.440   6.423  18.109  0.00  0.00    +0.000 C 
ATOM      5  O   UNL     1       4.241   6.904  17.013  0.00  0.00    +0.000 OA
ATOM      6  C   UNL     1       5.166   5.995  16.564  0.00  0.00    +0.000 A 
ATOM      7  C   UNL     1       5.707   6.232  15.298  0.00  0.00    +0.000 A 
ATOM      8  C   UNL     1       6.658   5.351  14.786  0.00  0.00    +0.000 A 
ATOM      9  C   UNL     1       7.083   4.248  15.519  0.00  0.00    +0.000 A 
ATOM     10  C   UNL     1       6.546   4.007  16.781  0.00  0.00    +0.000 A 
ATOM     11  C   UNL     1       5.588   4.887  17.303  0.00  0.00    +0.000 A 
ENDROOT
BRANCH   4  12
ATOM     12  C   UNL     1       2.588   7.546  18.676  0.00  0.00    +0.000 A 
ATOM     13  C   UNL     1       2.119   7.520  19.999  0.00  0.00    +0.000 A 
ATOM     14  C   UNL     1       1.189   8.462  20.443  0.00  0.00    +0.000 A 
ATOM     15  C   UNL     1       0.738   9.444  19.568  0.00  0.00    +0.000 A 
ATOM     16  C   UNL     1       1.234   9.527  18.275  0.00  0.00    +0.000 A 
ATOM     17  C   UNL     1       2.156   8.579  17.826  0.00  0.00    +0.000 A 
BRANCH  15  18
ATOM     18  O   UNL     1      -0.217  10.343  19.940  0.00  0.00    +0.000 OA
ATOM     19  H   UNL     1      -0.127  10.512  20.893  0.00  0.00    +0.000 HD
ENDBRANCH  15  18
ENDBRANCH   4  12
BRANCH   1  20
ATOM     20  N   UNL     1       4.512   3.131  20.337  0.00  0.00    +0.000 N 
ATOM     21  H   UNL     1       5.034   3.147  21.222  0.00  0.00    +0.000 HD
BRANCH  20  22
ATOM     22  C   UNL     1       3.193   2.721  20.385  0.00  0.00    +0.000 C 
ATOM     23  S   UNL     1       2.170   3.273  21.574  0.00  0.00    +0.000 S 
BRANCH  22  24
ATOM     24  N   UNL     1       2.853   1.845  19.372  0.00  0.00    +0.000 N 
ATOM     25  H   UNL     1       3.270   0.927  19.491  0.00  0.00    +0.000 HD
BRANCH  24  27
ATOM     26  C   UNL     1       0.523   2.492  18.902  0.00  0.00    +0.000 C 
ATOM     27  C   UNL     1       1.863   2.055  18.316  0.00  0.00    +0.000 C 
ATOM     28  C   UNL     1       2.333   3.099  17.301  0.00  0.00    +0.000 C 
ENDBRANCH  24  27
ENDBRANCH  22  24
ENDBRANCH  20  22
ENDBRANCH   1  20
BRANCH   8  29
ATOM     29  O   UNL     1       7.207   5.532  13.552  0.00  0.00    +0.000 OA
ATOM     30  H   UNL     1       7.504   6.453  13.468  0.00  0.00    +0.000 HD
ENDBRANCH   8  29
TORSDOF 7
ENDMDL
