MODEL 1
REMARK VINA RESULT:      -7.4      0.000      0.000
REMARK  Name = 
REMARK  6 active torsions:
REMARK  status: ('A' for Active; 'I' for Inactive)
REMARK    1  A    between atoms: C_2  and  C_13
REMARK    2  A    between atoms: N_3  and  C_4
REMARK    3  A    between atoms: C_4  and  C_5
REMARK    4  A    between atoms: C_5  and  C_6
REMARK    5  A    between atoms: C_6  and  C_7
REMARK    6  A    between atoms: C_7  and  N_8
REMARK                            x       y       z     vdW  Elec       q    Type
REMARK                         _______ _______ _______ _____ _____    ______ ____
ROOT
ATOM      1  O   UNL     1       2.385   3.540  16.977  0.00  0.00    +0.000 OA
ATOM      2  C   UNL     1       3.302   3.495  17.813  0.00  0.00    +0.000 C 
ATOM      3  N   UNL     1       3.181   2.776  18.978  0.00  0.00    +0.000 N 
ATOM      4  H   UNL     1       3.966   2.755  19.616  0.00  0.00    +0.000 HD
ENDROOT
BRANCH   2   5
ATOM      5  C   UNL     1       4.562   4.148  17.630  0.00  0.00    +0.000 A 
ATOM      6  C   UNL     1       4.955   5.118  16.730  0.00  0.00    +0.000 A 
ATOM      7  C   UNL     1       6.232   5.588  17.131  0.00  0.00    +0.000 A 
ATOM      8  C   UNL     1       7.037   6.652  16.701  0.00  0.00    +0.000 A 
ATOM      9  C   UNL     1       7.735   7.300  17.711  0.00  0.00    +0.000 A 
ATOM     10 CL   UNL     1       7.787   9.021  17.678  0.00  0.00    +0.000 Cl
ATOM     11  C   UNL     1       8.108   6.616  18.861  0.00  0.00    +0.000 A 
ATOM     12  C   UNL     1       7.655   5.311  19.094  0.00  0.00    +0.000 A 
ATOM     13  C   UNL     1       6.580   4.914  18.292  0.00  0.00    +0.000 A 
ATOM     14  N   UNL     1       5.656   3.906  18.446  0.00  0.00    +0.000 N 
ATOM     15  H   UNL     1       5.642   3.245  19.205  0.00  0.00    +0.000 HD
ENDBRANCH   2   5
BRANCH   3  16
ATOM     16  C   UNL     1       1.991   2.050  19.371  0.00  0.00    +0.000 C 
BRANCH  16  17
ATOM     17  C   UNL     1       1.256   2.685  20.550  0.00  0.00    +0.000 C 
BRANCH  17  18
ATOM     18  C   UNL     1       0.917   4.171  20.338  0.00  0.00    +0.000 C 
BRANCH  18  19
ATOM     19  C   UNL     1       2.052   5.059  20.830  0.00  0.00    +0.000 C 
BRANCH  19  20
ATOM     20  N   UNL     1       1.994   6.402  20.292  0.00  0.00    +0.000 N 
ATOM     21  C   UNL     1       1.416   7.492  20.892  0.00  0.00    +0.000 A 
ATOM     22  C   UNL     1       1.567   8.512  19.984  0.00  0.00    +0.000 A 
ATOM     23  N   UNL     1       2.208   8.072  18.856  0.00  0.00    +0.000 NA
ATOM     24  C   UNL     1       2.448   6.797  19.069  0.00  0.00    +0.000 A 
ENDBRANCH  19  20
ENDBRANCH  18  19
ENDBRANCH  17  18
ENDBRANCH  16  17
ENDBRANCH   3  16
TORSDOF 6
ENDMDL
MODEL 2
REMARK VINA RESULT:      -7.4      4.721      7.674
REMARK  Name = 
REMARK  6 active torsions:
REMARK  status: ('A' for Active; 'I' for Inactive)
REMARK    1  A    between atoms: C_2  and  C_13
REMARK    2  A    between atoms: N_3  and  C_4
REMARK    3  A    between atoms: C_4  and  C_5
REMARK    4  A    between atoms: C_5  and  C_6
REMARK    5  A    between atoms: C_6  and  C_7
REMARK    6  A    between atoms: C_7  and  N_8
REMARK                            x       y       z     vdW  Elec       q    Type
REMARK                         _______ _______ _______ _____ _____    ______ ____
ROOT
ATOM      1  O   UNL     1       5.617   6.620  15.814  0.00  0.00    +0.000 OA
ATOM      2  C   UNL     1       5.913   6.150  16.925  0.00  0.00    +0.000 C 
ATOM      3  N   UNL     1       6.874   6.729  17.719  0.00  0.00    +0.000 N 
ATOM      4  H   UNL     1       7.062   6.319  18.625  0.00  0.00    +0.000 HD
ENDROOT
BRANCH   2   5
ATOM      5  C   UNL     1       5.270   5.002  17.486  0.00  0.00    +0.000 A 
ATOM      6  C   UNL     1       5.322   4.468  18.758  0.00  0.00    +0.000 A 
ATOM      7  C   UNL     1       4.316   3.474  18.852  0.00  0.00    +0.000 A 
ATOM      8  C   UNL     1       3.809   2.723  19.923  0.00  0.00    +0.000 A 
ATOM      9  C   UNL     1       2.440   2.496  19.879  0.00  0.00    +0.000 A 
ATOM     10 CL   UNL     1       1.548   2.670  21.342  0.00  0.00    +0.000 Cl
ATOM     11  C   UNL     1       1.774   2.437  18.662  0.00  0.00    +0.000 A 
ATOM     12  C   UNL     1       2.435   2.760  17.470  0.00  0.00    +0.000 A 
ATOM     13  C   UNL     1       3.644   3.443  17.639  0.00  0.00    +0.000 A 
ATOM     14  N   UNL     1       4.377   4.220  16.771  0.00  0.00    +0.000 N 
ATOM     15  H   UNL     1       4.139   4.395  15.809  0.00  0.00    +0.000 HD
ENDBRANCH   2   5
BRANCH   3  16
ATOM     16  C   UNL     1       7.656   7.888  17.343  0.00  0.00    +0.000 C 
BRANCH  16  17
ATOM     17  C   UNL     1       8.438   8.495  18.507  0.00  0.00    +0.000 C 
BRANCH  17  18
ATOM     18  C   UNL     1       8.735   9.994  18.337  0.00  0.00    +0.000 C 
BRANCH  18  19
ATOM     19  C   UNL     1       9.506  10.531  19.535  0.00  0.00    +0.000 C 
BRANCH  19  20
ATOM     20  N   UNL     1      10.425  11.595  19.186  0.00  0.00    +0.000 N 
ATOM     21  C   UNL     1      11.069  11.750  17.985  0.00  0.00    +0.000 A 
ATOM     22  C   UNL     1      11.860  12.860  18.152  0.00  0.00    +0.000 A 
ATOM     23  N   UNL     1      11.721  13.374  19.415  0.00  0.00    +0.000 NA
ATOM     24  C   UNL     1      10.855  12.588  20.016  0.00  0.00    +0.000 A 
ENDBRANCH  19  20
ENDBRANCH  18  19
ENDBRANCH  17  18
ENDBRANCH  16  17
ENDBRANCH   3  16
TORSDOF 6
ENDMDL
MODEL 3
REMARK VINA RESULT:      -7.4      4.634      7.623
REMARK  Name = 
REMARK  6 active torsions:
REMARK  status: ('A' for Active; 'I' for Inactive)
REMARK    1  A    between atoms: C_2  and  C_13
REMARK    2  A    between atoms: N_3  and  C_4
REMARK    3  A    between atoms: C_4  and  C_5
REMARK    4  A    between atoms: C_5  and  C_6
REMARK    5  A    between atoms: C_6  and  C_7
REMARK    6  A    between atoms: C_7  and  N_8
REMARK                            x       y       z     vdW  Elec       q    Type
REMARK                         _______ _______ _______ _____ _____    ______ ____
ROOT
ATOM      1  O   UNL     1       5.478   6.715  15.532  0.00  0.00    +0.000 OA
ATOM      2  C   UNL     1       5.331   6.644  16.763  0.00  0.00    +0.000 C 
ATOM      3  N   UNL     1       6.301   7.088  17.631  0.00  0.00    +0.000 N 
ATOM      4  H   UNL     1       6.121   7.028  18.625  0.00  0.00    +0.000 HD
ENDROOT
BRANCH   2   5
ATOM      5  C   UNL     1       4.147   6.135  17.383  0.00  0.00    +0.000 A 
ATOM      6  C   UNL     1       3.562   4.886  17.327  0.00  0.00    +0.000 A 
ATOM      7  C   UNL     1       2.542   4.841  18.311  0.00  0.00    +0.000 A 
ATOM      8  C   UNL     1       1.736   3.805  18.807  0.00  0.00    +0.000 A 
ATOM      9  C   UNL     1       1.479   3.870  20.170  0.00  0.00    +0.000 A 
ATOM     10 CL   UNL     1       1.573   2.408  21.076  0.00  0.00    +0.000 Cl
ATOM     11  C   UNL     1       1.456   5.093  20.826  0.00  0.00    +0.000 A 
ATOM     12  C   UNL     1       1.842   6.266  20.165  0.00  0.00    +0.000 A 
ATOM     13  C   UNL     1       2.546   6.059  18.973  0.00  0.00    +0.000 A 
ATOM     14  N   UNL     1       3.374   6.889  18.253  0.00  0.00    +0.000 N 
ATOM     15  H   UNL     1       3.583   7.845  18.489  0.00  0.00    +0.000 HD
ENDBRANCH   2   5
BRANCH   3  16
ATOM     16  C   UNL     1       7.580   7.628  17.222  0.00  0.00    +0.000 C 
BRANCH  16  17
ATOM     17  C   UNL     1       8.364   8.264  18.368  0.00  0.00    +0.000 C 
BRANCH  17  18
ATOM     18  C   UNL     1       8.644   9.763  18.168  0.00  0.00    +0.000 C 
BRANCH  18  19
ATOM     19  C   UNL     1       9.306  10.358  19.404  0.00  0.00    +0.000 C 
BRANCH  19  20
ATOM     20  N   UNL     1      10.420  11.227  19.087  0.00  0.00    +0.000 N 
ATOM     21  C   UNL     1      11.230  11.870  19.988  0.00  0.00    +0.000 A 
ATOM     22  C   UNL     1      12.096  12.607  19.217  0.00  0.00    +0.000 A 
ATOM     23  N   UNL     1      11.829  12.437  17.884  0.00  0.00    +0.000 NA
ATOM     24  C   UNL     1      10.812  11.605  17.837  0.00  0.00    +0.000 A 
ENDBRANCH  19  20
ENDBRANCH  18  19
ENDBRANCH  17  18
ENDBRANCH  16  17
ENDBRANCH   3  16
TORSDOF 6
ENDMDL
MODEL 4
REMARK VINA RESULT:      -7.0      2.781      6.047
REMARK  Name = 
REMARK  6 active torsions:
REMARK  status: ('A' for Active; 'I' for Inactive)
REMARK    1  A    between atoms: C_2  and  C_13
REMARK    2  A    between atoms: N_3  and  C_4
REMARK    3  A    between atoms: C_4  and  C_5
REMARK    4  A    between atoms: C_5  and  C_6
REMARK    5  A    between atoms: C_6  and  C_7
REMARK    6  A    between atoms: C_7  and  N_8
REMARK                            x       y       z     vdW  Elec       q    Type
REMARK                         _______ _______ _______ _____ _____    ______ ____
ROOT
ATOM      1  O   UNL     1       2.137   4.688  20.890  0.00  0.00    +0.000 OA
ATOM      2  C   UNL     1       2.722   5.466  20.119  0.00  0.00    +0.000 C 
ATOM      3  N   UNL     1       3.807   5.065  19.376  0.00  0.00    +0.000 N 
ATOM      4  H   UNL     1       4.234   5.733  18.747  0.00  0.00    +0.000 HD
ENDROOT
BRANCH   2   5
ATOM      5  C   UNL     1       2.309   6.819  19.909  0.00  0.00    +0.000 A 
ATOM      6  C   UNL     1       2.202   7.564  18.751  0.00  0.00    +0.000 A 
ATOM      7  C   UNL     1       1.520   8.765  19.070  0.00  0.00    +0.000 A 
ATOM      8  C   UNL     1       1.001   9.807  18.288  0.00  0.00    +0.000 A 
ATOM      9  C   UNL     1      -0.199  10.336  18.743  0.00  0.00    +0.000 A 
ATOM     10 CL   UNL     1      -1.426  10.664  17.581  0.00  0.00    +0.000 Cl
ATOM     11  C   UNL     1      -0.512  10.311  20.096  0.00  0.00    +0.000 A 
ATOM     12  C   UNL     1       0.297   9.617  21.004  0.00  0.00    +0.000 A 
ATOM     13  C   UNL     1       1.192   8.716  20.417  0.00  0.00    +0.000 A 
ATOM     14  N   UNL     1       1.866   7.635  20.939  0.00  0.00    +0.000 N 
ATOM     15  H   UNL     1       1.825   7.336  21.899  0.00  0.00    +0.000 HD
ENDBRANCH   2   5
BRANCH   3  16
ATOM     16  C   UNL     1       4.400   3.745  19.441  0.00  0.00    +0.000 C 
BRANCH  16  17
ATOM     17  C   UNL     1       4.135   2.900  18.197  0.00  0.00    +0.000 C 
BRANCH  17  18
ATOM     18  C   UNL     1       3.947   3.730  16.915  0.00  0.00    +0.000 C 
BRANCH  18  19
ATOM     19  C   UNL     1       5.273   3.908  16.188  0.00  0.00    +0.000 C 
BRANCH  19  20
ATOM     20  N   UNL     1       5.982   5.106  16.589  0.00  0.00    +0.000 N 
ATOM     21  C   UNL     1       7.168   5.154  17.277  0.00  0.00    +0.000 A 
ATOM     22  C   UNL     1       7.409   6.494  17.465  0.00  0.00    +0.000 A 
ATOM     23  N   UNL     1       6.405   7.251  16.921  0.00  0.00    +0.000 NA
ATOM     24  C   UNL     1       5.558   6.388  16.406  0.00  0.00    +0.000 A 
ENDBRANCH  19  20
ENDBRANCH  18  19
ENDBRANCH  17  18
ENDBRANCH  16  17
ENDBRANCH   3  16
TORSDOF 6
ENDMDL
MODEL 5
REMARK VINA RESULT:      -7.0      2.812      6.391
REMARK  Name = 
REMARK  6 active torsions:
REMARK  status: ('A' for Active; 'I' for Inactive)
REMARK    1  A    between atoms: C_2  and  C_13
REMARK    2  A    between atoms: N_3  and  C_4
REMARK    3  A    between atoms: C_4  and  C_5
REMARK    4  A    between atoms: C_5  and  C_6
REMARK    5  A    between atoms: C_6  and  C_7
REMARK    6  A    between atoms: C_7  and  N_8
REMARK                            x       y       z     vdW  Elec       q    Type
REMARK                         _______ _______ _______ _____ _____    ______ ____
ROOT
ATOM      1  O   UNL     1       3.075   4.452  19.577  0.00  0.00    +0.000 OA
ATOM      2  C   UNL     1       3.117   5.434  18.818  0.00  0.00    +0.000 C 
ATOM      3  N   UNL     1       3.631   5.340  17.547  0.00  0.00    +0.000 N 
ATOM      4  H   UNL     1       3.621   6.166  16.961  0.00  0.00    +0.000 HD
ENDROOT
BRANCH   2   5
ATOM      5  C   UNL     1       2.612   6.724  19.176  0.00  0.00    +0.000 A 
ATOM      6  C   UNL     1       2.313   7.826  18.401  0.00  0.00    +0.000 A 
ATOM      7  C   UNL     1       1.621   8.756  19.218  0.00  0.00    +0.000 A 
ATOM      8  C   UNL     1       0.951   9.957  18.944  0.00  0.00    +0.000 A 
ATOM      9  C   UNL     1      -0.201  10.164  19.690  0.00  0.00    +0.000 A 
ATOM     10 CL   UNL     1      -1.589  10.775  18.874  0.00  0.00    +0.000 Cl
ATOM     11  C   UNL     1      -0.327   9.616  20.960  0.00  0.00    +0.000 A 
ATOM     12  C   UNL     1       0.631   8.719  21.449  0.00  0.00    +0.000 A 
ATOM     13  C   UNL     1       1.482   8.186  20.474  0.00  0.00    +0.000 A 
ATOM     14  N   UNL     1       2.273   7.059  20.478  0.00  0.00    +0.000 N 
ATOM     15  H   UNL     1       2.376   6.427  21.255  0.00  0.00    +0.000 HD
ENDBRANCH   2   5
BRANCH   3  16
ATOM     16  C   UNL     1       4.205   4.137  16.983  0.00  0.00    +0.000 C 
BRANCH  16  17
ATOM     17  C   UNL     1       4.693   4.313  15.546  0.00  0.00    +0.000 C 
BRANCH  17  18
ATOM     18  C   UNL     1       6.101   3.746  15.298  0.00  0.00    +0.000 C 
BRANCH  18  19
ATOM     19  C   UNL     1       7.151   4.844  15.403  0.00  0.00    +0.000 C 
BRANCH  19  20
ATOM     20  N   UNL     1       7.374   5.287  16.764  0.00  0.00    +0.000 N 
ATOM     21  C   UNL     1       7.304   6.580  17.217  0.00  0.00    +0.000 A 
ATOM     22  C   UNL     1       7.639   6.503  18.547  0.00  0.00    +0.000 A 
ATOM     23  N   UNL     1       7.916   5.210  18.907  0.00  0.00    +0.000 NA
ATOM     24  C   UNL     1       7.753   4.502  17.811  0.00  0.00    +0.000 A 
ENDBRANCH  19  20
ENDBRANCH  18  19
ENDBRANCH  17  18
ENDBRANCH  16  17
ENDBRANCH   3  16
TORSDOF 6
ENDMDL
MODEL 6
REMARK VINA RESULT:      -6.9      4.492      7.442
REMARK  Name = 
REMARK  6 active torsions:
REMARK  status: ('A' for Active; 'I' for Inactive)
REMARK    1  A    between atoms: C_2  and  C_13
REMARK    2  A    between atoms: N_3  and  C_4
REMARK    3  A    between atoms: C_4  and  C_5
REMARK    4  A    between atoms: C_5  and  C_6
REMARK    5  A    between atoms: C_6  and  C_7
REMARK    6  A    between atoms: C_7  and  N_8
REMARK                            x       y       z     vdW  Elec       q    Type
REMARK                         _______ _______ _______ _____ _____    ______ ____
ROOT
ATOM      1  O   UNL     1       7.760   4.609  18.285  0.00  0.00    +0.000 OA
ATOM      2  C   UNL     1       6.661   5.127  18.026  0.00  0.00    +0.000 C 
ATOM      3  N   UNL     1       6.567   6.385  17.482  0.00  0.00    +0.000 N 
ATOM      4  H   UNL     1       5.648   6.751  17.270  0.00  0.00    +0.000 HD
ENDROOT
BRANCH   2   5
ATOM      5  C   UNL     1       5.413   4.459  18.235  0.00  0.00    +0.000 A 
ATOM      6  C   UNL     1       5.107   3.312  18.939  0.00  0.00    +0.000 A 
ATOM      7  C   UNL     1       3.695   3.222  19.029  0.00  0.00    +0.000 A 
ATOM      8  C   UNL     1       2.834   2.376  19.742  0.00  0.00    +0.000 A 
ATOM      9  C   UNL     1       1.694   2.991  20.242  0.00  0.00    +0.000 A 
ATOM     10 CL   UNL     1       1.211   2.606  21.850  0.00  0.00    +0.000 Cl
ATOM     11  C   UNL     1       1.148   4.093  19.598  0.00  0.00    +0.000 A 
ATOM     12  C   UNL     1       1.818   4.700  18.529  0.00  0.00    +0.000 A 
ATOM     13  C   UNL     1       3.164   4.340  18.404  0.00  0.00    +0.000 A 
ATOM     14  N   UNL     1       4.211   4.952  17.752  0.00  0.00    +0.000 N 
ATOM     15  H   UNL     1       4.140   5.797  17.209  0.00  0.00    +0.000 HD
ENDBRANCH   2   5
BRANCH   3  16
ATOM     16  C   UNL     1       7.700   7.241  17.200  0.00  0.00    +0.000 C 
BRANCH  16  17
ATOM     17  C   UNL     1       7.515   8.674  17.695  0.00  0.00    +0.000 C 
BRANCH  17  18
ATOM     18  C   UNL     1       8.668   9.174  18.582  0.00  0.00    +0.000 C 
BRANCH  18  19
ATOM     19  C   UNL     1       9.139  10.550  18.131  0.00  0.00    +0.000 C 
BRANCH  19  20
ATOM     20  N   UNL     1       9.936  11.232  19.130  0.00  0.00    +0.000 N 
ATOM     21  C   UNL     1      11.244  11.623  18.996  0.00  0.00    +0.000 A 
ATOM     22  C   UNL     1      11.571  12.174  20.211  0.00  0.00    +0.000 A 
ATOM     23  N   UNL     1      10.507  12.119  21.074  0.00  0.00    +0.000 NA
ATOM     24  C   UNL     1       9.540  11.542  20.397  0.00  0.00    +0.000 A 
ENDBRANCH  19  20
ENDBRANCH  18  19
ENDBRANCH  17  18
ENDBRANCH  16  17
ENDBRANCH   3  16
TORSDOF 6
ENDMDL
MODEL 7
REMARK VINA RESULT:      -6.9      4.644      7.525
REMARK  Name = 
REMARK  6 active torsions:
REMARK  status: ('A' for Active; 'I' for Inactive)
REMARK    1  A    between atoms: C_2  and  C_13
REMARK    2  A    between atoms: N_3  and  C_4
REMARK    3  A    between atoms: C_4  and  C_5
REMARK    4  A    between atoms: C_5  and  C_6
REMARK    5  A    between atoms: C_6  and  C_7
REMARK    6  A    between atoms: C_7  and  N_8
REMARK                            x       y       z     vdW  Elec       q    Type
REMARK                         _______ _______ _______ _____ _____    ______ ____
ROOT
ATOM      1  O   UNL     1       7.409   5.889  15.913  0.00  0.00    +0.000 OA
ATOM      2  C   UNL     1       6.908   6.033  17.040  0.00  0.00    +0.000 C 
ATOM      3  N   UNL     1       7.255   7.084  17.854  0.00  0.00    +0.000 N 
ATOM      4  H   UNL     1       6.800   7.167  18.755  0.00  0.00    +0.000 HD
ENDROOT
BRANCH   2   5
ATOM      5  C   UNL     1       5.916   5.152  17.574  0.00  0.00    +0.000 A 
ATOM      6  C   UNL     1       5.534   4.902  18.877  0.00  0.00    +0.000 A 
ATOM      7  C   UNL     1       4.348   4.126  18.840  0.00  0.00    +0.000 A 
ATOM      8  C   UNL     1       3.442   3.715  19.829  0.00  0.00    +0.000 A 
ATOM      9  C   UNL     1       2.112   3.707  19.434  0.00  0.00    +0.000 A 
ATOM     10 CL   UNL     1       0.942   4.334  20.532  0.00  0.00    +0.000 Cl
ATOM     11  C   UNL     1       1.773   3.497  18.104  0.00  0.00    +0.000 A 
ATOM     12  C   UNL     1       2.762   3.445  17.114  0.00  0.00    +0.000 A 
ATOM     13  C   UNL     1       4.008   3.944  17.508  0.00  0.00    +0.000 A 
ATOM     14  N   UNL     1       5.083   4.388  16.771  0.00  0.00    +0.000 N 
ATOM     15  H   UNL     1       5.135   4.388  15.766  0.00  0.00    +0.000 HD
ENDBRANCH   2   5
BRANCH   3  16
ATOM     16  C   UNL     1       8.245   8.087  17.520  0.00  0.00    +0.000 C 
BRANCH  16  17
ATOM     17  C   UNL     1       7.901   9.478  18.047  0.00  0.00    +0.000 C 
BRANCH  17  18
ATOM     18  C   UNL     1       9.030  10.124  18.867  0.00  0.00    +0.000 C 
BRANCH  18  19
ATOM     19  C   UNL     1       9.950  10.941  17.969  0.00  0.00    +0.000 C 
BRANCH  19  20
ATOM     20  N   UNL     1       9.789  12.370  18.144  0.00  0.00    +0.000 N 
ATOM     21  C   UNL     1      10.440  13.352  17.441  0.00  0.00    +0.000 A 
ATOM     22  C   UNL     1       9.999  14.529  17.995  0.00  0.00    +0.000 A 
ATOM     23  N   UNL     1       9.112  14.289  19.011  0.00  0.00    +0.000 NA
ATOM     24  C   UNL     1       9.010  12.981  19.081  0.00  0.00    +0.000 A 
ENDBRANCH  19  20
ENDBRANCH  18  19
ENDBRANCH  17  18
ENDBRANCH  16  17
ENDBRANCH   3  16
TORSDOF 6
ENDMDL
MODEL 8
REMARK VINA RESULT:      -6.8      2.781      6.110
REMARK  Name = 
REMARK  6 active torsions:
REMARK  status: ('A' for Active; 'I' for Inactive)
REMARK    1  A    between atoms: C_2  and  C_13
REMARK    2  A    between atoms: N_3  and  C_4
REMARK    3  A    between atoms: C_4  and  C_5
REMARK    4  A    between atoms: C_5  and  C_6
REMARK    5  A    between atoms: C_6  and  C_7
REMARK    6  A    between atoms: C_7  and  N_8
REMARK                            x       y       z     vdW  Elec       q    Type
REMARK                         _______ _______ _______ _____ _____    ______ ____
ROOT
ATOM      1  O   UNL     1       3.935   5.003  20.188  0.00  0.00    +0.000 OA
ATOM      2  C   UNL     1       2.843   5.338  19.700  0.00  0.00    +0.000 C 
ATOM      3  N   UNL     1       1.929   4.405  19.271  0.00  0.00    +0.000 N 
ATOM      4  H   UNL     1       1.045   4.731  18.901  0.00  0.00    +0.000 HD
ENDROOT
BRANCH   2   5
ATOM      5  C   UNL     1       2.427   6.701  19.572  0.00  0.00    +0.000 A 
ATOM      6  C   UNL     1       2.239   7.488  18.453  0.00  0.00    +0.000 A 
ATOM      7  C   UNL     1       1.594   8.681  18.867  0.00  0.00    +0.000 A 
ATOM      8  C   UNL     1       1.026   9.754  18.165  0.00  0.00    +0.000 A 
ATOM      9  C   UNL     1      -0.130  10.274  18.731  0.00  0.00    +0.000 A 
ATOM     10 CL   UNL     1      -1.440  10.652  17.679  0.00  0.00    +0.000 Cl
ATOM     11  C   UNL     1      -0.338  10.201  20.102  0.00  0.00    +0.000 A 
ATOM     12  C   UNL     1       0.532   9.469  20.919  0.00  0.00    +0.000 A 
ATOM     13  C   UNL     1       1.371   8.584  20.232  0.00  0.00    +0.000 A 
ATOM     14  N   UNL     1       2.072   7.481  20.662  0.00  0.00    +0.000 N 
ATOM     15  H   UNL     1       2.102   7.147  21.611  0.00  0.00    +0.000 HD
ENDBRANCH   2   5
BRANCH   3  16
ATOM     16  C   UNL     1       2.148   2.974  19.296  0.00  0.00    +0.000 C 
BRANCH  16  17
ATOM     17  C   UNL     1       2.571   2.402  17.945  0.00  0.00    +0.000 C 
BRANCH  17  18
ATOM     18  C   UNL     1       4.005   2.778  17.537  0.00  0.00    +0.000 C 
BRANCH  18  19
ATOM     19  C   UNL     1       4.006   4.013  16.646  0.00  0.00    +0.000 C 
BRANCH  19  20
ATOM     20  N   UNL     1       5.322   4.344  16.138  0.00  0.00    +0.000 N 
ATOM     21  C   UNL     1       5.669   4.490  14.819  0.00  0.00    +0.000 A 
ATOM     22  C   UNL     1       7.018   4.748  14.838  0.00  0.00    +0.000 A 
ATOM     23  N   UNL     1       7.496   4.753  16.122  0.00  0.00    +0.000 NA
ATOM     24  C   UNL     1       6.453   4.501  16.882  0.00  0.00    +0.000 A 
ENDBRANCH  19  20
ENDBRANCH  18  19
ENDBRANCH  17  18
ENDBRANCH  16  17
ENDBRANCH   3  16
TORSDOF 6
ENDMDL
MODEL 9
REMARK VINA RESULT:      -6.8      4.757      7.689
REMARK  Name = 
REMARK  6 active torsions:
REMARK  status: ('A' for Active; 'I' for Inactive)
REMARK    1  A    between atoms: C_2  and  C_13
REMARK    2  A    between atoms: N_3  and  C_4
REMARK    3  A    between atoms: C_4  and  C_5
REMARK    4  A    between atoms: C_5  and  C_6
REMARK    5  A    between atoms: C_6  and  C_7
REMARK    6  A    between atoms: C_7  and  N_8
REMARK                            x       y       z     vdW  Elec       q    Type
REMARK                         _______ _______ _______ _____ _____    ______ ____
ROOT
ATOM      1  O   UNL     1       7.265   5.881  16.084  0.00  0.00    +0.000 OA
ATOM      2  C   UNL     1       6.725   5.869  17.203  0.00  0.00    +0.000 C 
ATOM      3  N   UNL     1       7.174   6.667  18.228  0.00  0.00    +0.000 N 
ATOM      4  H   UNL     1       6.685   6.635  19.114  0.00  0.00    +0.000 HD
ENDROOT
BRANCH   2   5
ATOM      5  C   UNL     1       5.586   5.062  17.515  0.00  0.00    +0.000 A 
ATOM      6  C   UNL     1       5.447   3.981  18.361  0.00  0.00    +0.000 A 
ATOM      7  C   UNL     1       4.062   3.703  18.486  0.00  0.00    +0.000 A 
ATOM      8  C   UNL     1       3.330   2.839  19.313  0.00  0.00    +0.000 A 
ATOM      9  C   UNL     1       2.113   3.343  19.751  0.00  0.00    +0.000 A 
ATOM     10 CL   UNL     1       1.688   3.099  21.402  0.00  0.00    +0.000 Cl
ATOM     11  C   UNL     1       1.416   4.266  18.983  0.00  0.00    +0.000 A 
ATOM     12  C   UNL     1       1.993   4.822  17.835  0.00  0.00    +0.000 A 
ATOM     13  C   UNL     1       3.377   4.646  17.734  0.00  0.00    +0.000 A 
ATOM     14  N   UNL     1       4.326   5.314  16.994  0.00  0.00    +0.000 N 
ATOM     15  H   UNL     1       4.135   6.064  16.351  0.00  0.00    +0.000 HD
ENDBRANCH   2   5
BRANCH   3  16
ATOM     16  C   UNL     1       8.318   7.551  18.137  0.00  0.00    +0.000 C 
BRANCH  16  17
ATOM     17  C   UNL     1       7.937   9.015  17.927  0.00  0.00    +0.000 C 
BRANCH  17  18
ATOM     18  C   UNL     1       8.852  10.004  18.669  0.00  0.00    +0.000 C 
BRANCH  18  19
ATOM     19  C   UNL     1       8.911  11.338  17.938  0.00  0.00    +0.000 C 
BRANCH  19  20
ATOM     20  N   UNL     1      10.054  12.142  18.319  0.00  0.00    +0.000 N 
ATOM     21  C   UNL     1      11.295  12.117  17.735  0.00  0.00    +0.000 A 
ATOM     22  C   UNL     1      12.045  13.005  18.467  0.00  0.00    +0.000 A 
ATOM     23  N   UNL     1      11.300  13.557  19.477  0.00  0.00    +0.000 NA
ATOM     24  C   UNL     1      10.108  13.014  19.366  0.00  0.00    +0.000 A 
ENDBRANCH  19  20
ENDBRANCH  18  19
ENDBRANCH  17  18
ENDBRANCH  16  17
ENDBRANCH   3  16
TORSDOF 6
ENDMDL
