MODEL 1
REMARK VINA RESULT:      -6.9      0.000      0.000
REMARK  Name = 
REMARK  4 active torsions:
REMARK  status: ('A' for Active; 'I' for Inactive)
REMARK    1  A    between atoms: C_1  and  N_2
REMARK    2  A    between atoms: N_2  and  C_3
REMARK    3  A    between atoms: N_2  and  C_4
REMARK    4  A    between atoms: C_4  and  C_5
REMARK                            x       y       z     vdW  Elec       q    Type
REMARK                         _______ _______ _______ _____ _____    ______ ____
ROOT
ATOM      1  C   UNL     1       4.303   4.625  18.555  0.00  0.00    +0.000 C 
ATOM      2  C   UNL     1       3.828   4.184  17.142  0.00  0.00    +0.000 C 
ATOM      3  C   UNL     1       2.592   3.265  17.252  0.00  0.00    +0.000 C 
ATOM      4  C   UNL     1       2.949   2.023  18.096  0.00  0.00    +0.000 C 
ATOM      5  C   UNL     1       3.339   2.462  19.525  0.00  0.00    +0.000 C 
ATOM      6  C   UNL     1       2.181   3.229  20.182  0.00  0.00    +0.000 C 
ATOM      7  C   UNL     1       1.859   4.479  19.340  0.00  0.00    +0.000 C 
ATOM      8  C   UNL     1       1.427   4.024  17.925  0.00  0.00    +0.000 C 
ATOM      9  C   UNL     1       3.115   5.398  19.254  0.00  0.00    +0.000 C 
ATOM     10 BR   UNL     1       2.618   7.082  18.381  0.00  0.00    +0.000 Br
ATOM     11  C   UNL     1       4.574   3.367  19.452  0.00  0.00    +0.000 C 
ENDROOT
BRANCH   1  12
ATOM     12  C   UNL     1       5.580   5.538  18.435  0.00  0.00    +0.000 C 
BRANCH  12  14
ATOM     13  C   UNL     1       7.539   4.552  17.391  0.00  0.00    +0.000 C 
ATOM     14  N   UNL     1       6.902   4.876  18.675  0.00  0.00    +0.000 NA
ATOM     15  C   UNL     1       7.857   5.661  19.478  0.00  0.00    +0.000 C 
ENDBRANCH  12  14
ENDBRANCH   1  12
TORSDOF 2
ENDMDL
MODEL 2
REMARK VINA RESULT:      -6.5      1.359      1.759
REMARK  Name = 
REMARK  4 active torsions:
REMARK  status: ('A' for Active; 'I' for Inactive)
REMARK    1  A    between atoms: C_1  and  N_2
REMARK    2  A    between atoms: N_2  and  C_3
REMARK    3  A    between atoms: N_2  and  C_4
REMARK    4  A    between atoms: C_4  and  C_5
REMARK                            x       y       z     vdW  Elec       q    Type
REMARK                         _______ _______ _______ _____ _____    ______ ____
ROOT
ATOM      1  C   UNL     1       3.380   4.309  18.417  0.00  0.00    +0.000 C 
ATOM      2  C   UNL     1       1.985   4.077  17.773  0.00  0.00    +0.000 C 
ATOM      3  C   UNL     1       1.072   3.286  18.736  0.00  0.00    +0.000 C 
ATOM      4  C   UNL     1       1.727   1.930  19.067  0.00  0.00    +0.000 C 
ATOM      5  C   UNL     1       3.076   2.166  19.783  0.00  0.00    +0.000 C 
ATOM      6  C   UNL     1       2.861   2.974  21.072  0.00  0.00    +0.000 C 
ATOM      7  C   UNL     1       2.231   4.335  20.718  0.00  0.00    +0.000 C 
ATOM      8  C   UNL     1       0.862   4.086  20.041  0.00  0.00    +0.000 C 
ATOM      9  C   UNL     1       3.175   5.122  19.757  0.00  0.00    +0.000 C 
ATOM     10 BR   UNL     1       2.469   6.933  19.507  0.00  0.00    +0.000 Br
ATOM     11  C   UNL     1       4.012   2.939  18.847  0.00  0.00    +0.000 C 
ENDROOT
BRANCH   1  12
ATOM     12  C   UNL     1       4.313   5.089  17.419  0.00  0.00    +0.000 C 
BRANCH  12  14
ATOM     13  C   UNL     1       5.416   4.351  15.385  0.00  0.00    +0.000 C 
ATOM     14  N   UNL     1       5.474   4.331  16.853  0.00  0.00    +0.000 NA
ATOM     15  C   UNL     1       6.802   4.819  17.268  0.00  0.00    +0.000 C 
ENDBRANCH  12  14
ENDBRANCH   1  12
TORSDOF 2
ENDMDL
MODEL 3
REMARK VINA RESULT:      -6.1      1.868      4.461
REMARK  Name = 
REMARK  4 active torsions:
REMARK  status: ('A' for Active; 'I' for Inactive)
REMARK    1  A    between atoms: C_1  and  N_2
REMARK    2  A    between atoms: N_2  and  C_3
REMARK    3  A    between atoms: N_2  and  C_4
REMARK    4  A    between atoms: C_4  and  C_5
REMARK                            x       y       z     vdW  Elec       q    Type
REMARK                         _______ _______ _______ _____ _____    ______ ____
ROOT
ATOM      1  C   UNL     1       4.397   4.836  17.979  0.00  0.00    +0.000 C 
ATOM      2  C   UNL     1       5.526   5.309  18.937  0.00  0.00    +0.000 C 
ATOM      3  C   UNL     1       6.754   5.785  18.130  0.00  0.00    +0.000 C 
ATOM      4  C   UNL     1       7.267   4.628  17.248  0.00  0.00    +0.000 C 
ATOM      5  C   UNL     1       6.170   4.218  16.240  0.00  0.00    +0.000 C 
ATOM      6  C   UNL     1       5.778   5.416  15.361  0.00  0.00    +0.000 C 
ATOM      7  C   UNL     1       5.243   6.549  16.259  0.00  0.00    +0.000 C 
ATOM      8  C   UNL     1       6.365   6.980  17.233  0.00  0.00    +0.000 C 
ATOM      9  C   UNL     1       3.997   6.052  17.053  0.00  0.00    +0.000 C 
ATOM     10 BR   UNL     1       3.197   7.568  18.004  0.00  0.00    +0.000 Br
ATOM     11  C   UNL     1       4.939   3.727  17.011  0.00  0.00    +0.000 C 
ENDROOT
BRANCH   1  12
ATOM     12  C   UNL     1       3.161   4.326  18.810  0.00  0.00    +0.000 C 
BRANCH  12  14
ATOM     13  C   UNL     1       3.468   2.547  20.435  0.00  0.00    +0.000 C 
ATOM     14  N   UNL     1       3.078   2.851  19.051  0.00  0.00    +0.000 NA
ATOM     15  C   UNL     1       1.754   2.251  18.804  0.00  0.00    +0.000 C 
ENDBRANCH  12  14
ENDBRANCH   1  12
TORSDOF 2
ENDMDL
MODEL 4
REMARK VINA RESULT:      -6.1      1.842      4.384
REMARK  Name = 
REMARK  4 active torsions:
REMARK  status: ('A' for Active; 'I' for Inactive)
REMARK    1  A    between atoms: C_1  and  N_2
REMARK    2  A    between atoms: N_2  and  C_3
REMARK    3  A    between atoms: N_2  and  C_4
REMARK    4  A    between atoms: C_4  and  C_5
REMARK                            x       y       z     vdW  Elec       q    Type
REMARK                         _______ _______ _______ _____ _____    ______ ____
ROOT
ATOM      1  C   UNL     1       4.297   4.723  17.882  0.00  0.00    +0.000 C 
ATOM      2  C   UNL     1       5.402   5.118  18.901  0.00  0.00    +0.000 C 
ATOM      3  C   UNL     1       6.654   5.641  18.163  0.00  0.00    +0.000 C 
ATOM      4  C   UNL     1       7.185   4.547  17.214  0.00  0.00    +0.000 C 
ATOM      5  C   UNL     1       6.113   4.218  16.151  0.00  0.00    +0.000 C 
ATOM      6  C   UNL     1       5.752   5.477  15.350  0.00  0.00    +0.000 C 
ATOM      7  C   UNL     1       5.199   6.548  16.311  0.00  0.00    +0.000 C 
ATOM      8  C   UNL     1       6.296   6.900  17.343  0.00  0.00    +0.000 C 
ATOM      9  C   UNL     1       3.929   6.004  17.034  0.00  0.00    +0.000 C 
ATOM     10 BR   UNL     1       3.112   7.455  18.070  0.00  0.00    +0.000 Br
ATOM     11  C   UNL     1       4.859   3.682  16.852  0.00  0.00    +0.000 C 
ENDROOT
BRANCH   1  12
ATOM     12  C   UNL     1       3.037   4.164  18.641  0.00  0.00    +0.000 C 
BRANCH  12  14
ATOM     13  C   UNL     1       2.049   4.874  20.744  0.00  0.00    +0.000 C 
ATOM     14  N   UNL     1       3.131   4.088  20.134  0.00  0.00    +0.000 NA
ATOM     15  C   UNL     1       3.084   2.726  20.695  0.00  0.00    +0.000 C 
ENDBRANCH  12  14
ENDBRANCH   1  12
TORSDOF 2
ENDMDL
MODEL 5
REMARK VINA RESULT:      -6.1      0.965      1.145
REMARK  Name = 
REMARK  4 active torsions:
REMARK  status: ('A' for Active; 'I' for Inactive)
REMARK    1  A    between atoms: C_1  and  N_2
REMARK    2  A    between atoms: N_2  and  C_3
REMARK    3  A    between atoms: N_2  and  C_4
REMARK    4  A    between atoms: C_4  and  C_5
REMARK                            x       y       z     vdW  Elec       q    Type
REMARK                         _______ _______ _______ _____ _____    ______ ____
ROOT
ATOM      1  C   UNL     1       4.681   4.378  18.152  0.00  0.00    +0.000 C 
ATOM      2  C   UNL     1       3.944   3.782  16.920  0.00  0.00    +0.000 C 
ATOM      3  C   UNL     1       2.529   3.308  17.316  0.00  0.00    +0.000 C 
ATOM      4  C   UNL     1       2.637   2.243  18.426  0.00  0.00    +0.000 C 
ATOM      5  C   UNL     1       3.293   2.865  19.679  0.00  0.00    +0.000 C 
ATOM      6  C   UNL     1       2.467   4.061  20.176  0.00  0.00    +0.000 C 
ATOM      7  C   UNL     1       2.394   5.124  19.062  0.00  0.00    +0.000 C 
ATOM      8  C   UNL     1       1.696   4.502  17.830  0.00  0.00    +0.000 C 
ATOM      9  C   UNL     1       3.832   5.599  18.689  0.00  0.00    +0.000 C 
ATOM     10 BR   UNL     1       3.705   7.108  17.445  0.00  0.00    +0.000 Br
ATOM     11  C   UNL     1       4.709   3.335  19.322  0.00  0.00    +0.000 C 
ENDROOT
BRANCH   1  12
ATOM     12  C   UNL     1       6.132   4.833  17.746  0.00  0.00    +0.000 C 
BRANCH  12  14
ATOM     13  C   UNL     1       7.613   5.586  19.517  0.00  0.00    +0.000 C 
ATOM     14  N   UNL     1       6.687   6.024  18.464  0.00  0.00    +0.000 NA
ATOM     15  C   UNL     1       7.390   6.998  17.608  0.00  0.00    +0.000 C 
ENDBRANCH  12  14
ENDBRANCH   1  12
TORSDOF 2
ENDMDL
MODEL 6
REMARK VINA RESULT:      -6.1      1.875      2.762
REMARK  Name = 
REMARK  4 active torsions:
REMARK  status: ('A' for Active; 'I' for Inactive)
REMARK    1  A    between atoms: C_1  and  N_2
REMARK    2  A    between atoms: N_2  and  C_3
REMARK    3  A    between atoms: N_2  and  C_4
REMARK    4  A    between atoms: C_4  and  C_5
REMARK                            x       y       z     vdW  Elec       q    Type
REMARK                         _______ _______ _______ _____ _____    ______ ____
ROOT
ATOM      1  C   UNL     1       3.944   4.451  17.322  0.00  0.00    +0.000 C 
ATOM      2  C   UNL     1       2.963   5.497  17.922  0.00  0.00    +0.000 C 
ATOM      3  C   UNL     1       2.101   4.852  19.031  0.00  0.00    +0.000 C 
ATOM      4  C   UNL     1       1.308   3.669  18.441  0.00  0.00    +0.000 C 
ATOM      5  C   UNL     1       2.288   2.594  17.922  0.00  0.00    +0.000 C 
ATOM      6  C   UNL     1       3.195   2.103  19.061  0.00  0.00    +0.000 C 
ATOM      7  C   UNL     1       3.998   3.295  19.618  0.00  0.00    +0.000 C 
ATOM      8  C   UNL     1       3.007   4.344  20.174  0.00  0.00    +0.000 C 
ATOM      9  C   UNL     1       4.870   3.920  18.486  0.00  0.00    +0.000 C 
ATOM     10 BR   UNL     1       6.052   5.277  19.265  0.00  0.00    +0.000 Br
ATOM     11  C   UNL     1       3.151   3.199  16.808  0.00  0.00    +0.000 C 
ENDROOT
BRANCH   1  12
ATOM     12  C   UNL     1       4.797   5.108  16.173  0.00  0.00    +0.000 C 
BRANCH  12  14
ATOM     13  C   UNL     1       5.635   4.104  14.126  0.00  0.00    +0.000 C 
ATOM     14  N   UNL     1       5.872   4.260  15.568  0.00  0.00    +0.000 NA
ATOM     15  C   UNL     1       7.245   4.763  15.757  0.00  0.00    +0.000 C 
ENDBRANCH  12  14
ENDBRANCH   1  12
TORSDOF 2
ENDMDL
MODEL 7
REMARK VINA RESULT:      -6.0      2.002      2.463
REMARK  Name = 
REMARK  4 active torsions:
REMARK  status: ('A' for Active; 'I' for Inactive)
REMARK    1  A    between atoms: C_1  and  N_2
REMARK    2  A    between atoms: N_2  and  C_3
REMARK    3  A    between atoms: N_2  and  C_4
REMARK    4  A    between atoms: C_4  and  C_5
REMARK                            x       y       z     vdW  Elec       q    Type
REMARK                         _______ _______ _______ _____ _____    ______ ____
ROOT
ATOM      1  C   UNL     1       3.333   4.731  19.211  0.00  0.00    +0.000 C 
ATOM      2  C   UNL     1       2.203   4.440  18.184  0.00  0.00    +0.000 C 
ATOM      3  C   UNL     1       1.333   3.256  18.660  0.00  0.00    +0.000 C 
ATOM      4  C   UNL     1       2.220   2.005  18.830  0.00  0.00    +0.000 C 
ATOM      5  C   UNL     1       3.289   2.270  19.914  0.00  0.00    +0.000 C 
ATOM      6  C   UNL     1       2.618   2.626  21.250  0.00  0.00    +0.000 C 
ATOM      7  C   UNL     1       1.760   3.893  21.064  0.00  0.00    +0.000 C 
ATOM      8  C   UNL     1       0.667   3.600  20.010  0.00  0.00    +0.000 C 
ATOM      9  C   UNL     1       2.659   5.078  20.598  0.00  0.00    +0.000 C 
ATOM     10 BR   UNL     1       1.597   6.725  20.594  0.00  0.00    +0.000 Br
ATOM     11  C   UNL     1       4.179   3.435  19.464  0.00  0.00    +0.000 C 
ENDROOT
BRANCH   1  12
ATOM     12  C   UNL     1       4.231   5.920  18.704  0.00  0.00    +0.000 C 
BRANCH  12  14
ATOM     13  C   UNL     1       3.340   7.858  17.544  0.00  0.00    +0.000 C 
ATOM     14  N   UNL     1       3.882   6.503  17.370  0.00  0.00    +0.000 NA
ATOM     15  C   UNL     1       4.996   6.573  16.407  0.00  0.00    +0.000 C 
ENDBRANCH  12  14
ENDBRANCH   1  12
TORSDOF 2
ENDMDL
MODEL 8
REMARK VINA RESULT:      -6.0      2.440      3.935
REMARK  Name = 
REMARK  4 active torsions:
REMARK  status: ('A' for Active; 'I' for Inactive)
REMARK    1  A    between atoms: C_1  and  N_2
REMARK    2  A    between atoms: N_2  and  C_3
REMARK    3  A    between atoms: N_2  and  C_4
REMARK    4  A    between atoms: C_4  and  C_5
REMARK                            x       y       z     vdW  Elec       q    Type
REMARK                         _______ _______ _______ _____ _____    ______ ____
ROOT
ATOM      1  C   UNL     1       2.922   5.199  18.754  0.00  0.00    +0.000 C 
ATOM      2  C   UNL     1       2.762   4.901  20.271  0.00  0.00    +0.000 C 
ATOM      3  C   UNL     1       2.464   3.402  20.497  0.00  0.00    +0.000 C 
ATOM      4  C   UNL     1       1.171   3.017  19.749  0.00  0.00    +0.000 C 
ATOM      5  C   UNL     1       1.366   3.236  18.231  0.00  0.00    +0.000 C 
ATOM      6  C   UNL     1       2.541   2.392  17.717  0.00  0.00    +0.000 C 
ATOM      7  C   UNL     1       3.827   2.810  18.457  0.00  0.00    +0.000 C 
ATOM      8  C   UNL     1       3.636   2.545  19.969  0.00  0.00    +0.000 C 
ATOM      9  C   UNL     1       4.116   4.321  18.204  0.00  0.00    +0.000 C 
ATOM     10 BR   UNL     1       5.869   4.773  18.956  0.00  0.00    +0.000 Br
ATOM     11  C   UNL     1       1.650   4.720  17.971  0.00  0.00    +0.000 C 
ENDROOT
BRANCH   1  12
ATOM     12  C   UNL     1       3.197   6.732  18.530  0.00  0.00    +0.000 C 
BRANCH  12  14
ATOM     13  C   UNL     1       1.803   8.098  19.976  0.00  0.00    +0.000 C 
ATOM     14  N   UNL     1       2.009   7.642  18.595  0.00  0.00    +0.000 NA
ATOM     15  C   UNL     1       2.084   8.830  17.725  0.00  0.00    +0.000 C 
ENDBRANCH  12  14
ENDBRANCH   1  12
TORSDOF 2
ENDMDL
MODEL 9
REMARK VINA RESULT:      -6.0      1.251      2.161
REMARK  Name = 
REMARK  4 active torsions:
REMARK  status: ('A' for Active; 'I' for Inactive)
REMARK    1  A    between atoms: C_1  and  N_2
REMARK    2  A    between atoms: N_2  and  C_3
REMARK    3  A    between atoms: N_2  and  C_4
REMARK    4  A    between atoms: C_4  and  C_5
REMARK                            x       y       z     vdW  Elec       q    Type
REMARK                         _______ _______ _______ _____ _____    ______ ____
ROOT
ATOM      1  C   UNL     1       4.339   4.609  18.817  0.00  0.00    +0.000 C 
ATOM      2  C   UNL     1       4.744   3.183  19.284  0.00  0.00    +0.000 C 
ATOM      3  C   UNL     1       3.501   2.269  19.366  0.00  0.00    +0.000 C 
ATOM      4  C   UNL     1       2.485   2.874  20.356  0.00  0.00    +0.000 C 
ATOM      5  C   UNL     1       2.021   4.256  19.843  0.00  0.00    +0.000 C 
ATOM      6  C   UNL     1       1.384   4.123  18.452  0.00  0.00    +0.000 C 
ATOM      7  C   UNL     1       2.424   3.543  17.472  0.00  0.00    +0.000 C 
ATOM      8  C   UNL     1       2.847   2.142  17.973  0.00  0.00    +0.000 C 
ATOM      9  C   UNL     1       3.663   4.487  17.394  0.00  0.00    +0.000 C 
ATOM     10 BR   UNL     1       4.861   3.855  15.978  0.00  0.00    +0.000 Br
ATOM     11  C   UNL     1       3.232   5.193  19.763  0.00  0.00    +0.000 C 
ENDROOT
BRANCH   1  12
ATOM     12  C   UNL     1       5.606   5.541  18.765  0.00  0.00    +0.000 C 
BRANCH  12  14
ATOM     13  C   UNL     1       7.598   4.675  17.677  0.00  0.00    +0.000 C 
ATOM     14  N   UNL     1       6.934   4.880  18.972  0.00  0.00    +0.000 NA
ATOM     15  C   UNL     1       7.863   5.607  19.856  0.00  0.00    +0.000 C 
ENDBRANCH  12  14
ENDBRANCH   1  12
TORSDOF 2
ENDMDL
