MODEL 1
REMARK VINA RESULT:      -6.5      0.000      0.000
REMARK  Name = 
REMARK  6 active torsions:
REMARK  status: ('A' for Active; 'I' for Inactive)
REMARK    1  A    between atoms: C_1  and  N_2
REMARK    2  A    between atoms: C_8  and  N_9
REMARK    3  A    between atoms: C_10  and  C_12
REMARK    4  A    between atoms: C_12  and  C_13
REMARK    5  A    between atoms: C_12  and  C_14
REMARK    6  A    between atoms: C_12  and  C_15
REMARK                            x       y       z     vdW  Elec       q    Type
REMARK                         _______ _______ _______ _____ _____    ______ ____
ROOT
ATOM      1  C   UNL     1       0.245  11.793  18.890  0.00  0.00    +0.000 C 
ATOM      2  N   UNL     1       0.473  10.668  19.760  0.00  0.00    +0.000 N 
ATOM      3  C   UNL     1       0.007  10.645  21.067  0.00  0.00    +0.000 A 
ATOM      4  O   UNL     1      -0.631  11.516  21.643  0.00  0.00    +0.000 OA
ATOM      5  S   UNL     1       0.468   9.124  21.843  0.00  0.00    +0.000 S 
ATOM      6  C   UNL     1       1.286   8.573  20.374  0.00  0.00    +0.000 A 
ATOM      7  C   UNL     1       1.958   7.377  20.187  0.00  0.00    +0.000 A 
ATOM      8  C   UNL     1       2.553   7.113  18.952  0.00  0.00    +0.000 A 
ATOM      9  C   UNL     1       2.423   8.056  17.913  0.00  0.00    +0.000 A 
ATOM     10  C   UNL     1       1.749   9.271  18.116  0.00  0.00    +0.000 A 
ATOM     11  C   UNL     1       1.184   9.519  19.359  0.00  0.00    +0.000 A 
ENDROOT
BRANCH   8  12
ATOM     12  N   UNL     1       3.272   5.922  18.693  0.00  0.00    +0.000 N 
ATOM     13  C   UNL     1       2.736   4.759  18.156  0.00  0.00    +0.000 C 
ATOM     14  O   UNL     1       1.539   4.588  17.933  0.00  0.00    +0.000 OA
ATOM     15  H   UNL     1       4.228   5.890  19.025  0.00  0.00    +0.000 HD
BRANCH  13  16
ATOM     16  C   UNL     1       3.754   3.633  17.876  0.00  0.00    +0.000 C 
ATOM     17  C   UNL     1       4.549   3.936  16.598  0.00  0.00    +0.000 C 
ATOM     18  C   UNL     1       4.740   3.551  19.059  0.00  0.00    +0.000 C 
ATOM     19  C   UNL     1       3.032   2.285  17.749  0.00  0.00    +0.000 C 
ENDBRANCH  13  16
ENDBRANCH   8  12
TORSDOF 2
ENDMDL
MODEL 2
REMARK VINA RESULT:      -6.4      0.323      1.089
REMARK  Name = 
REMARK  6 active torsions:
REMARK  status: ('A' for Active; 'I' for Inactive)
REMARK    1  A    between atoms: C_1  and  N_2
REMARK    2  A    between atoms: C_8  and  N_9
REMARK    3  A    between atoms: C_10  and  C_12
REMARK    4  A    between atoms: C_12  and  C_13
REMARK    5  A    between atoms: C_12  and  C_14
REMARK    6  A    between atoms: C_12  and  C_15
REMARK                            x       y       z     vdW  Elec       q    Type
REMARK                         _______ _______ _______ _____ _____    ______ ____
ROOT
ATOM      1  C   UNL     1      -0.185  11.859  19.127  0.00  0.00    +0.000 C 
ATOM      2  N   UNL     1       0.191  10.756  19.972  0.00  0.00    +0.000 N 
ATOM      3  C   UNL     1      -0.159  10.707  21.314  0.00  0.00    +0.000 A 
ATOM      4  O   UNL     1      -0.805  11.535  21.943  0.00  0.00    +0.000 OA
ATOM      5  S   UNL     1       0.468   9.224  22.047  0.00  0.00    +0.000 S 
ATOM      6  C   UNL     1       1.195   8.724  20.513  0.00  0.00    +0.000 A 
ATOM      7  C   UNL     1       1.928   7.576  20.268  0.00  0.00    +0.000 A 
ATOM      8  C   UNL     1       2.433   7.347  18.987  0.00  0.00    +0.000 A 
ATOM      9  C   UNL     1       2.151   8.274  17.963  0.00  0.00    +0.000 A 
ATOM     10  C   UNL     1       1.416   9.441  18.224  0.00  0.00    +0.000 A 
ATOM     11  C   UNL     1       0.943   9.656  19.511  0.00  0.00    +0.000 A 
ENDROOT
BRANCH   8  12
ATOM     12  N   UNL     1       3.207   6.207  18.666  0.00  0.00    +0.000 N 
ATOM     13  C   UNL     1       2.707   5.003  18.188  0.00  0.00    +0.000 C 
ATOM     14  O   UNL     1       1.510   4.745  18.081  0.00  0.00    +0.000 OA
ATOM     15  H   UNL     1       4.190   6.246  18.906  0.00  0.00    +0.000 HD
BRANCH  13  16
ATOM     16  C   UNL     1       3.771   3.948  17.817  0.00  0.00    +0.000 C 
ATOM     17  C   UNL     1       4.749   3.742  18.982  0.00  0.00    +0.000 C 
ATOM     18  C   UNL     1       3.061   2.609  17.529  0.00  0.00    +0.000 C 
ATOM     19  C   UNL     1       4.528   4.379  16.554  0.00  0.00    +0.000 C 
ENDBRANCH  13  16
ENDBRANCH   8  12
TORSDOF 2
ENDMDL
MODEL 3
REMARK VINA RESULT:      -6.2      1.427      1.867
REMARK  Name = 
REMARK  6 active torsions:
REMARK  status: ('A' for Active; 'I' for Inactive)
REMARK    1  A    between atoms: C_1  and  N_2
REMARK    2  A    between atoms: C_8  and  N_9
REMARK    3  A    between atoms: C_10  and  C_12
REMARK    4  A    between atoms: C_12  and  C_13
REMARK    5  A    between atoms: C_12  and  C_14
REMARK    6  A    between atoms: C_12  and  C_15
REMARK                            x       y       z     vdW  Elec       q    Type
REMARK                         _______ _______ _______ _____ _____    ______ ____
ROOT
ATOM      1  C   UNL     1       0.110  11.744  19.235  0.00  0.00    +0.000 C 
ATOM      2  N   UNL     1       0.581  10.589  19.955  0.00  0.00    +0.000 N 
ATOM      3  C   UNL     1       0.441  10.475  21.331  0.00  0.00    +0.000 A 
ATOM      4  O   UNL     1      -0.075  11.281  22.094  0.00  0.00    +0.000 OA
ATOM      5  S   UNL     1       1.131   8.942  21.881  0.00  0.00    +0.000 S 
ATOM      6  C   UNL     1       1.597   8.511  20.229  0.00  0.00    +0.000 A 
ATOM      7  C   UNL     1       2.250   7.362  19.815  0.00  0.00    +0.000 A 
ATOM      8  C   UNL     1       2.543   7.193  18.461  0.00  0.00    +0.000 A 
ATOM      9  C   UNL     1       2.134   8.180  17.542  0.00  0.00    +0.000 A 
ATOM     10  C   UNL     1       1.481   9.346  17.973  0.00  0.00    +0.000 A 
ATOM     11  C   UNL     1       1.219   9.501  19.327  0.00  0.00    +0.000 A 
ENDROOT
BRANCH   8  12
ATOM     12  N   UNL     1       3.225   6.056  17.966  0.00  0.00    +0.000 N 
ATOM     13  C   UNL     1       4.529   6.045  17.488  0.00  0.00    +0.000 C 
ATOM     14  O   UNL     1       5.221   7.050  17.342  0.00  0.00    +0.000 OA
ATOM     15  H   UNL     1       2.677   5.212  17.857  0.00  0.00    +0.000 HD
BRANCH  13  16
ATOM     16  C   UNL     1       5.076   4.655  17.100  0.00  0.00    +0.000 C 
ATOM     17  C   UNL     1       4.102   3.553  17.539  0.00  0.00    +0.000 C 
ATOM     18  C   UNL     1       5.228   4.593  15.566  0.00  0.00    +0.000 C 
ATOM     19  C   UNL     1       6.456   4.431  17.735  0.00  0.00    +0.000 C 
ENDBRANCH  13  16
ENDBRANCH   8  12
TORSDOF 2
ENDMDL
MODEL 4
REMARK VINA RESULT:      -6.0      0.809      1.183
REMARK  Name = 
REMARK  6 active torsions:
REMARK  status: ('A' for Active; 'I' for Inactive)
REMARK    1  A    between atoms: C_1  and  N_2
REMARK    2  A    between atoms: C_8  and  N_9
REMARK    3  A    between atoms: C_10  and  C_12
REMARK    4  A    between atoms: C_12  and  C_13
REMARK    5  A    between atoms: C_12  and  C_14
REMARK    6  A    between atoms: C_12  and  C_15
REMARK                            x       y       z     vdW  Elec       q    Type
REMARK                         _______ _______ _______ _____ _____    ______ ____
ROOT
ATOM      1  C   UNL     1      -0.476  12.088  19.615  0.00  0.00    +0.000 C 
ATOM      2  N   UNL     1       0.025  10.957  20.351  0.00  0.00    +0.000 N 
ATOM      3  C   UNL     1      -0.165  10.829  21.720  0.00  0.00    +0.000 A 
ATOM      4  O   UNL     1      -0.753  11.602  22.463  0.00  0.00    +0.000 OA
ATOM      5  S   UNL     1       0.582   9.331  22.294  0.00  0.00    +0.000 S 
ATOM      6  C   UNL     1       1.137   8.933  20.661  0.00  0.00    +0.000 A 
ATOM      7  C   UNL     1       1.866   7.822  20.271  0.00  0.00    +0.000 A 
ATOM      8  C   UNL     1       2.223   7.675  18.930  0.00  0.00    +0.000 A 
ATOM      9  C   UNL     1       1.800   8.643  17.997  0.00  0.00    +0.000 A 
ATOM     10  C   UNL     1       1.070   9.772  18.404  0.00  0.00    +0.000 A 
ATOM     11  C   UNL     1       0.745   9.906  19.747  0.00  0.00    +0.000 A 
ENDROOT
BRANCH   8  12
ATOM     12  N   UNL     1       2.983   6.578  18.460  0.00  0.00    +0.000 N 
ATOM     13  C   UNL     1       2.653   5.239  18.628  0.00  0.00    +0.000 C 
ATOM     14  O   UNL     1       1.703   4.840  19.299  0.00  0.00    +0.000 OA
ATOM     15  H   UNL     1       3.890   6.793  18.065  0.00  0.00    +0.000 HD
BRANCH  13  16
ATOM     16  C   UNL     1       3.597   4.236  17.932  0.00  0.00    +0.000 C 
ATOM     17  C   UNL     1       2.789   3.204  17.135  0.00  0.00    +0.000 C 
ATOM     18  C   UNL     1       4.507   5.009  16.954  0.00  0.00    +0.000 C 
ATOM     19  C   UNL     1       4.484   3.534  18.970  0.00  0.00    +0.000 C 
ENDBRANCH  13  16
ENDBRANCH   8  12
TORSDOF 2
ENDMDL
MODEL 5
REMARK VINA RESULT:      -6.0      1.441      1.691
REMARK  Name = 
REMARK  6 active torsions:
REMARK  status: ('A' for Active; 'I' for Inactive)
REMARK    1  A    between atoms: C_1  and  N_2
REMARK    2  A    between atoms: C_8  and  N_9
REMARK    3  A    between atoms: C_10  and  C_12
REMARK    4  A    between atoms: C_12  and  C_13
REMARK    5  A    between atoms: C_12  and  C_14
REMARK    6  A    between atoms: C_12  and  C_15
REMARK                            x       y       z     vdW  Elec       q    Type
REMARK                         _______ _______ _______ _____ _____    ______ ____
ROOT
ATOM      1  C   UNL     1      -0.068  11.670  19.093  0.00  0.00    +0.000 C 
ATOM      2  N   UNL     1       0.403  10.547  19.860  0.00  0.00    +0.000 N 
ATOM      3  C   UNL     1       0.197  10.455  21.230  0.00  0.00    +0.000 A 
ATOM      4  O   UNL     1      -0.384  11.258  21.948  0.00  0.00    +0.000 OA
ATOM      5  S   UNL     1       0.908   8.957  21.847  0.00  0.00    +0.000 S 
ATOM      6  C   UNL     1       1.472   8.510  20.230  0.00  0.00    +0.000 A 
ATOM      7  C   UNL     1       2.183   7.376  19.874  0.00  0.00    +0.000 A 
ATOM      8  C   UNL     1       2.551   7.191  18.540  0.00  0.00    +0.000 A 
ATOM      9  C   UNL     1       2.156   8.145  17.581  0.00  0.00    +0.000 A 
ATOM     10  C   UNL     1       1.444   9.297  17.953  0.00  0.00    +0.000 A 
ATOM     11  C   UNL     1       1.109   9.469  19.289  0.00  0.00    +0.000 A 
ENDROOT
BRANCH   8  12
ATOM     12  N   UNL     1       3.294   6.068  18.104  0.00  0.00    +0.000 N 
ATOM     13  C   UNL     1       4.591   6.106  17.608  0.00  0.00    +0.000 C 
ATOM     14  O   UNL     1       5.218   7.140  17.390  0.00  0.00    +0.000 OA
ATOM     15  H   UNL     1       2.797   5.188  18.056  0.00  0.00    +0.000 HD
BRANCH  13  16
ATOM     16  C   UNL     1       5.216   4.730  17.297  0.00  0.00    +0.000 C 
ATOM     17  C   UNL     1       6.688   4.699  17.732  0.00  0.00    +0.000 C 
ATOM     18  C   UNL     1       4.449   3.647  18.084  0.00  0.00    +0.000 C 
ATOM     19  C   UNL     1       5.096   4.419  15.799  0.00  0.00    +0.000 C 
ENDBRANCH  13  16
ENDBRANCH   8  12
TORSDOF 2
ENDMDL
MODEL 6
REMARK VINA RESULT:      -6.0      1.944      2.801
REMARK  Name = 
REMARK  6 active torsions:
REMARK  status: ('A' for Active; 'I' for Inactive)
REMARK    1  A    between atoms: C_1  and  N_2
REMARK    2  A    between atoms: C_8  and  N_9
REMARK    3  A    between atoms: C_10  and  C_12
REMARK    4  A    between atoms: C_12  and  C_13
REMARK    5  A    between atoms: C_12  and  C_14
REMARK    6  A    between atoms: C_12  and  C_15
REMARK                            x       y       z     vdW  Elec       q    Type
REMARK                         _______ _______ _______ _____ _____    ______ ____
ROOT
ATOM      1  C   UNL     1       0.130   9.462  22.073  0.00  0.00    +0.000 C 
ATOM      2  N   UNL     1       0.619   9.616  20.727  0.00  0.00    +0.000 N 
ATOM      3  C   UNL     1       0.367  10.759  19.982  0.00  0.00    +0.000 A 
ATOM      4  O   UNL     1      -0.262  11.749  20.330  0.00  0.00    +0.000 OA
ATOM      5  S   UNL     1       1.105  10.609  18.381  0.00  0.00    +0.000 S 
ATOM      6  C   UNL     1       1.722   8.997  18.771  0.00  0.00    +0.000 A 
ATOM      7  C   UNL     1       2.457   8.158  17.949  0.00  0.00    +0.000 A 
ATOM      8  C   UNL     1       2.856   6.909  18.427  0.00  0.00    +0.000 A 
ATOM      9  C   UNL     1       2.534   6.547  19.750  0.00  0.00    +0.000 A 
ATOM     10  C   UNL     1       1.779   7.399  20.573  0.00  0.00    +0.000 A 
ATOM     11  C   UNL     1       1.376   8.627  20.067  0.00  0.00    +0.000 A 
ENDROOT
BRANCH   8  12
ATOM     12  N   UNL     1       3.591   5.992  17.640  0.00  0.00    +0.000 N 
ATOM     13  C   UNL     1       4.934   6.113  17.306  0.00  0.00    +0.000 C 
ATOM     14  O   UNL     1       5.627   7.092  17.573  0.00  0.00    +0.000 OA
ATOM     15  H   UNL     1       3.063   5.247  17.202  0.00  0.00    +0.000 HD
BRANCH  13  16
ATOM     16  C   UNL     1       5.526   4.924  16.520  0.00  0.00    +0.000 C 
ATOM     17  C   UNL     1       4.646   3.678  16.688  0.00  0.00    +0.000 C 
ATOM     18  C   UNL     1       5.573   5.294  15.023  0.00  0.00    +0.000 C 
ATOM     19  C   UNL     1       6.957   4.635  16.995  0.00  0.00    +0.000 C 
ENDBRANCH  13  16
ENDBRANCH   8  12
TORSDOF 2
ENDMDL
MODEL 7
REMARK VINA RESULT:      -5.9      1.145      1.548
REMARK  Name = 
REMARK  6 active torsions:
REMARK  status: ('A' for Active; 'I' for Inactive)
REMARK    1  A    between atoms: C_1  and  N_2
REMARK    2  A    between atoms: C_8  and  N_9
REMARK    3  A    between atoms: C_10  and  C_12
REMARK    4  A    between atoms: C_12  and  C_13
REMARK    5  A    between atoms: C_12  and  C_14
REMARK    6  A    between atoms: C_12  and  C_15
REMARK                            x       y       z     vdW  Elec       q    Type
REMARK                         _______ _______ _______ _____ _____    ______ ____
ROOT
ATOM      1  C   UNL     1       0.985  12.428  19.106  0.00  0.00    +0.000 C 
ATOM      2  N   UNL     1       1.012  11.201  19.859  0.00  0.00    +0.000 N 
ATOM      3  C   UNL     1       0.650  11.154  21.198  0.00  0.00    +0.000 A 
ATOM      4  O   UNL     1       0.272  12.084  21.898  0.00  0.00    +0.000 OA
ATOM      5  S   UNL     1       0.806   9.500  21.806  0.00  0.00    +0.000 S 
ATOM      6  C   UNL     1       1.366   8.928  20.229  0.00  0.00    +0.000 A 
ATOM      7  C   UNL     1       1.730   7.637  19.885  0.00  0.00    +0.000 A 
ATOM      8  C   UNL     1       2.156   7.369  18.583  0.00  0.00    +0.000 A 
ATOM      9  C   UNL     1       2.170   8.414  17.638  0.00  0.00    +0.000 A 
ATOM     10  C   UNL     1       1.809   9.723  17.998  0.00  0.00    +0.000 A 
ATOM     11  C   UNL     1       1.409   9.968  19.304  0.00  0.00    +0.000 A 
ENDROOT
BRANCH   8  12
ATOM     12  N   UNL     1       2.562   6.080  18.165  0.00  0.00    +0.000 N 
ATOM     13  C   UNL     1       3.734   5.441  18.550  0.00  0.00    +0.000 C 
ATOM     14  O   UNL     1       4.616   5.965  19.227  0.00  0.00    +0.000 OA
ATOM     15  H   UNL     1       2.000   5.640  17.447  0.00  0.00    +0.000 HD
BRANCH  13  16
ATOM     16  C   UNL     1       3.896   3.996  18.034  0.00  0.00    +0.000 C 
ATOM     17  C   UNL     1       4.234   3.048  19.193  0.00  0.00    +0.000 C 
ATOM     18  C   UNL     1       2.563   3.543  17.403  0.00  0.00    +0.000 C 
ATOM     19  C   UNL     1       4.988   3.936  16.958  0.00  0.00    +0.000 C 
ENDBRANCH  13  16
ENDBRANCH   8  12
TORSDOF 2
ENDMDL
MODEL 8
REMARK VINA RESULT:      -5.8      1.323      2.217
REMARK  Name = 
REMARK  6 active torsions:
REMARK  status: ('A' for Active; 'I' for Inactive)
REMARK    1  A    between atoms: C_1  and  N_2
REMARK    2  A    between atoms: C_8  and  N_9
REMARK    3  A    between atoms: C_10  and  C_12
REMARK    4  A    between atoms: C_12  and  C_13
REMARK    5  A    between atoms: C_12  and  C_14
REMARK    6  A    between atoms: C_12  and  C_15
REMARK                            x       y       z     vdW  Elec       q    Type
REMARK                         _______ _______ _______ _____ _____    ______ ____
ROOT
ATOM      1  C   UNL     1      -0.370  10.546  21.812  0.00  0.00    +0.000 C 
ATOM      2  N   UNL     1       0.352  10.276  20.596  0.00  0.00    +0.000 N 
ATOM      3  C   UNL     1       0.438  11.208  19.571  0.00  0.00    +0.000 A 
ATOM      4  O   UNL     1      -0.048  12.331  19.546  0.00  0.00    +0.000 OA
ATOM      5  S   UNL     1       1.389  10.547  18.234  0.00  0.00    +0.000 S 
ATOM      6  C   UNL     1       1.630   9.024  19.103  0.00  0.00    +0.000 A 
ATOM      7  C   UNL     1       2.324   7.909  18.664  0.00  0.00    +0.000 A 
ATOM      8  C   UNL     1       2.405   6.786  19.490  0.00  0.00    +0.000 A 
ATOM      9  C   UNL     1       1.809   6.829  20.766  0.00  0.00    +0.000 A 
ATOM     10  C   UNL     1       1.098   7.960  21.198  0.00  0.00    +0.000 A 
ATOM     11  C   UNL     1       1.014   9.056  20.350  0.00  0.00    +0.000 A 
ENDROOT
BRANCH   8  12
ATOM     12  N   UNL     1       3.079   5.604  19.102  0.00  0.00    +0.000 N 
ATOM     13  C   UNL     1       2.470   4.395  18.791  0.00  0.00    +0.000 C 
ATOM     14  O   UNL     1       1.267   4.175  18.915  0.00  0.00    +0.000 OA
ATOM     15  H   UNL     1       4.090   5.620  19.161  0.00  0.00    +0.000 HD
BRANCH  13  16
ATOM     16  C   UNL     1       3.422   3.285  18.299  0.00  0.00    +0.000 C 
ATOM     17  C   UNL     1       4.262   2.743  19.463  0.00  0.00    +0.000 C 
ATOM     18  C   UNL     1       2.579   2.129  17.722  0.00  0.00    +0.000 C 
ATOM     19  C   UNL     1       4.334   3.823  17.187  0.00  0.00    +0.000 C 
ENDBRANCH  13  16
ENDBRANCH   8  12
TORSDOF 2
ENDMDL
MODEL 9
REMARK VINA RESULT:      -5.7      1.359      1.682
REMARK  Name = 
REMARK  6 active torsions:
REMARK  status: ('A' for Active; 'I' for Inactive)
REMARK    1  A    between atoms: C_1  and  N_2
REMARK    2  A    between atoms: C_8  and  N_9
REMARK    3  A    between atoms: C_10  and  C_12
REMARK    4  A    between atoms: C_12  and  C_13
REMARK    5  A    between atoms: C_12  and  C_14
REMARK    6  A    between atoms: C_12  and  C_15
REMARK                            x       y       z     vdW  Elec       q    Type
REMARK                         _______ _______ _______ _____ _____    ______ ____
ROOT
ATOM      1  C   UNL     1       1.385  11.581  18.928  0.00  0.00    +0.000 C 
ATOM      2  N   UNL     1       1.260  10.511  19.882  0.00  0.00    +0.000 N 
ATOM      3  C   UNL     1       0.866  10.739  21.194  0.00  0.00    +0.000 A 
ATOM      4  O   UNL     1       0.579  11.813  21.706  0.00  0.00    +0.000 OA
ATOM      5  S   UNL     1       0.824   9.211  22.084  0.00  0.00    +0.000 S 
ATOM      6  C   UNL     1       1.351   8.314  20.654  0.00  0.00    +0.000 A 
ATOM      7  C   UNL     1       1.577   6.951  20.554  0.00  0.00    +0.000 A 
ATOM      8  C   UNL     1       1.998   6.415  19.336  0.00  0.00    +0.000 A 
ATOM      9  C   UNL     1       2.149   7.269  18.226  0.00  0.00    +0.000 A 
ATOM     10  C   UNL     1       1.928   8.652  18.339  0.00  0.00    +0.000 A 
ATOM     11  C   UNL     1       1.529   9.164  19.566  0.00  0.00    +0.000 A 
ENDROOT
BRANCH   8  12
ATOM     12  N   UNL     1       2.268   5.036  19.164  0.00  0.00    +0.000 N 
ATOM     13  C   UNL     1       3.505   4.430  19.342  0.00  0.00    +0.000 C 
ATOM     14  O   UNL     1       4.547   5.040  19.574  0.00  0.00    +0.000 OA
ATOM     15  H   UNL     1       1.519   4.474  18.780  0.00  0.00    +0.000 HD
BRANCH  13  16
ATOM     16  C   UNL     1       3.513   2.894  19.192  0.00  0.00    +0.000 C 
ATOM     17  C   UNL     1       4.511   2.265  20.173  0.00  0.00    +0.000 C 
ATOM     18  C   UNL     1       2.102   2.358  19.514  0.00  0.00    +0.000 C 
ATOM     19  C   UNL     1       3.864   2.504  17.750  0.00  0.00    +0.000 C 
ENDBRANCH  13  16
ENDBRANCH   8  12
TORSDOF 2
ENDMDL
