MODEL 1
REMARK VINA RESULT:      -8.5      0.000      0.000
REMARK  Name = 
REMARK  9 active torsions:
REMARK  status: ('A' for Active; 'I' for Inactive)
REMARK    1  A    between atoms: C_1  and  O_2
REMARK    2  A    between atoms: O_2  and  C_3
REMARK    3  A    between atoms: C_8  and  C_9
REMARK    4  A    between atoms: C_9  and  N_10
REMARK    5  A    between atoms: N_10  and  C_11
REMARK    6  A    between atoms: N_10  and  S_18
REMARK    7  A    between atoms: C_11  and  C_12
REMARK    8  A    between atoms: S_18  and  C_21
REMARK    9  A    between atoms: C_28  and  O_29
REMARK                            x       y       z     vdW  Elec       q    Type
REMARK                         _______ _______ _______ _____ _____    ______ ____
ROOT
ATOM      1  N   UNL     1       3.251   4.552  18.651  0.00  0.00    +0.000 NA
ENDROOT
BRANCH   1   2
ATOM      2  S   UNL     1       5.014   4.399  18.906  0.00  0.00    +0.000 S 
ATOM      3  O   UNL     1       5.440   5.528  19.706  0.00  0.00    +0.000 OA
ATOM      4  O   UNL     1       5.246   3.039  19.341  0.00  0.00    +0.000 OA
BRANCH   2   5
ATOM      5  C   UNL     1       5.741   4.595  17.301  0.00  0.00    +0.000 A 
ATOM      6  C   UNL     1       5.447   3.662  16.306  0.00  0.00    +0.000 A 
ATOM      7  C   UNL     1       5.996   3.824  15.032  0.00  0.00    +0.000 A 
ATOM      8  C   UNL     1       6.820   4.920  14.759  0.00  0.00    +0.000 A 
ATOM      9 CL   UNL     1       7.500   5.105  13.192  0.00  0.00    +0.000 Cl
ATOM     10  C   UNL     1       7.090   5.867  15.748  0.00  0.00    +0.000 A 
ATOM     11  C   UNL     1       6.546   5.710  17.025  0.00  0.00    +0.000 A 
ENDBRANCH   2   5
ENDBRANCH   1   2
BRANCH   1  12
ATOM     12  C   UNL     1       2.982   5.877  17.943  0.00  0.00    +0.000 C 
BRANCH  12  18
ATOM     13  C   UNL     1      -0.512  10.866  19.753  0.00  0.00    +0.000 A 
ATOM     14  C   UNL     1       0.066  11.185  18.528  0.00  0.00    +0.000 A 
ATOM     15  C   UNL     1       1.090  10.378  18.022  0.00  0.00    +0.000 A 
ATOM     16  C   UNL     1       1.526   9.258  18.738  0.00  0.00    +0.000 A 
ATOM     17  C   UNL     1       2.343   8.290  18.135  0.00  0.00    +0.000 A 
ATOM     18  C   UNL     1       2.576   7.066  18.780  0.00  0.00    +0.000 A 
ATOM     19  C   UNL     1       2.255   7.015  20.128  0.00  0.00    +0.000 A 
ATOM     20  N   UNL     1       1.507   7.946  20.758  0.00  0.00    +0.000 NA
ATOM     21  C   UNL     1       1.042   8.986  20.031  0.00  0.00    +0.000 A 
ATOM     22  C   UNL     1      -0.008   9.784  20.488  0.00  0.00    +0.000 A 
BRANCH  13  24
ATOM     23  C   UNL     1      -2.487  12.158  19.418  0.00  0.00    +0.000 C 
ATOM     24  O   UNL     1      -1.582  11.513  20.309  0.00  0.00    +0.000 OA
ENDBRANCH  13  24
BRANCH  19  25
ATOM     25  O   UNL     1       2.541   5.907  20.877  0.00  0.00    +0.000 OA
ATOM     26  H   UNL     1       2.440   5.143  20.281  0.00  0.00    +0.000 HD
ENDBRANCH  19  25
ENDBRANCH  12  18
ENDBRANCH   1  12
BRANCH   1  27
ATOM     27  C   UNL     1       2.860   3.273  17.833  0.00  0.00    +0.000 C 
BRANCH  27  28
ATOM     28  C   UNL     1       1.729   2.390  18.397  0.00  0.00    +0.000 C 
ATOM     29  C   UNL     1       0.501   3.184  18.891  0.00  0.00    +0.000 C 
ATOM     30  O   UNL     1       0.743   3.853  20.143  0.00  0.00    +0.000 OA
ATOM     31  C   UNL     1       1.142   2.901  21.142  0.00  0.00    +0.000 C 
ATOM     32  C   UNL     1       2.426   2.245  20.694  0.00  0.00    +0.000 C 
ATOM     33  O   UNL     1       2.177   1.564  19.471  0.00  0.00    +0.000 OA
ENDBRANCH  27  28
ENDBRANCH   1  27
TORSDOF 8
ENDMDL
MODEL 2
REMARK VINA RESULT:      -8.4      4.438      9.515
REMARK  Name = 
REMARK  9 active torsions:
REMARK  status: ('A' for Active; 'I' for Inactive)
REMARK    1  A    between atoms: C_1  and  O_2
REMARK    2  A    between atoms: O_2  and  C_3
REMARK    3  A    between atoms: C_8  and  C_9
REMARK    4  A    between atoms: C_9  and  N_10
REMARK    5  A    between atoms: N_10  and  C_11
REMARK    6  A    between atoms: N_10  and  S_18
REMARK    7  A    between atoms: C_11  and  C_12
REMARK    8  A    between atoms: S_18  and  C_21
REMARK    9  A    between atoms: C_28  and  O_29
REMARK                            x       y       z     vdW  Elec       q    Type
REMARK                         _______ _______ _______ _____ _____    ______ ____
ROOT
ATOM      1  N   UNL     1       0.060  11.337  19.076  0.00  0.00    +0.000 NA
ENDROOT
BRANCH   1   2
ATOM      2  S   UNL     1       0.345  12.639  20.269  0.00  0.00    +0.000 S 
ATOM      3  O   UNL     1       1.551  12.308  20.998  0.00  0.00    +0.000 OA
ATOM      4  O   UNL     1       0.221  13.887  19.547  0.00  0.00    +0.000 OA
BRANCH   2   5
ATOM      5  C   UNL     1      -1.002  12.530  21.415  0.00  0.00    +0.000 A 
ATOM      6  C   UNL     1      -0.918  11.627  22.477  0.00  0.00    +0.000 A 
ATOM      7  C   UNL     1      -1.965  11.554  23.397  0.00  0.00    +0.000 A 
ATOM      8  C   UNL     1      -3.078  12.388  23.260  0.00  0.00    +0.000 A 
ATOM      9 CL   UNL     1      -4.367  12.281  24.391  0.00  0.00    +0.000 Cl
ATOM     10  C   UNL     1      -3.149  13.309  22.213  0.00  0.00    +0.000 A 
ATOM     11  C   UNL     1      -2.105  13.386  21.287  0.00  0.00    +0.000 A 
ENDBRANCH   2   5
ENDBRANCH   1   2
BRANCH   1  12
ATOM     12  C   UNL     1       0.165   9.995  19.795  0.00  0.00    +0.000 C 
BRANCH  12  18
ATOM     13  C   UNL     1       3.085   4.482  18.596  0.00  0.00    +0.000 A 
ATOM     14  C   UNL     1       2.772   4.501  19.951  0.00  0.00    +0.000 A 
ATOM     15  C   UNL     1       2.360   5.699  20.543  0.00  0.00    +0.000 A 
ATOM     16  C   UNL     1       2.259   6.867  19.780  0.00  0.00    +0.000 A 
ATOM     17  C   UNL     1       1.594   7.998  20.275  0.00  0.00    +0.000 A 
ATOM     18  C   UNL     1       1.295   9.068  19.420  0.00  0.00    +0.000 A 
ATOM     19  C   UNL     1       1.971   9.090  18.209  0.00  0.00    +0.000 A 
ATOM     20  N   UNL     1       2.658   8.039  17.713  0.00  0.00    +0.000 NA
ATOM     21  C   UNL     1       2.687   6.899  18.439  0.00  0.00    +0.000 A 
ATOM     22  C   UNL     1       3.051   5.679  17.868  0.00  0.00    +0.000 A 
BRANCH  13  24
ATOM     23  C   UNL     1       2.519   2.250  17.979  0.00  0.00    +0.000 C 
ATOM     24  O   UNL     1       3.405   3.361  17.879  0.00  0.00    +0.000 OA
ENDBRANCH  13  24
BRANCH  19  25
ATOM     25  O   UNL     1       1.835  10.144  17.347  0.00  0.00    +0.000 OA
ATOM     26  H   UNL     1       1.699  10.933  17.901  0.00  0.00    +0.000 HD
ENDBRANCH  19  25
ENDBRANCH  12  18
ENDBRANCH   1  12
BRANCH   1  27
ATOM     27  C   UNL     1      -1.351  11.658  18.474  0.00  0.00    +0.000 C 
BRANCH  27  28
ATOM     28  C   UNL     1      -2.268  10.465  18.142  0.00  0.00    +0.000 C 
ATOM     29  C   UNL     1      -2.018   9.851  16.748  0.00  0.00    +0.000 C 
ATOM     30  O   UNL     1      -2.530  10.672  15.683  0.00  0.00    +0.000 OA
ATOM     31  C   UNL     1      -3.936  10.903  15.869  0.00  0.00    +0.000 C 
ATOM     32  C   UNL     1      -4.134  11.635  17.175  0.00  0.00    +0.000 C 
ATOM     33  O   UNL     1      -3.651  10.810  18.227  0.00  0.00    +0.000 OA
ENDBRANCH  27  28
ENDBRANCH   1  27
TORSDOF 8
ENDMDL
MODEL 3
REMARK VINA RESULT:      -8.2      4.245      9.160
REMARK  Name = 
REMARK  9 active torsions:
REMARK  status: ('A' for Active; 'I' for Inactive)
REMARK    1  A    between atoms: C_1  and  O_2
REMARK    2  A    between atoms: O_2  and  C_3
REMARK    3  A    between atoms: C_8  and  C_9
REMARK    4  A    between atoms: C_9  and  N_10
REMARK    5  A    between atoms: N_10  and  C_11
REMARK    6  A    between atoms: N_10  and  S_18
REMARK    7  A    between atoms: C_11  and  C_12
REMARK    8  A    between atoms: S_18  and  C_21
REMARK    9  A    between atoms: C_28  and  O_29
REMARK                            x       y       z     vdW  Elec       q    Type
REMARK                         _______ _______ _______ _____ _____    ______ ____
ROOT
ATOM      1  N   UNL     1       0.004  11.340  19.232  0.00  0.00    +0.000 NA
ENDROOT
BRANCH   1   2
ATOM      2  S   UNL     1       0.029  12.553  20.546  0.00  0.00    +0.000 S 
ATOM      3  O   UNL     1      -1.315  12.652  21.076  0.00  0.00    +0.000 OA
ATOM      4  O   UNL     1       1.149  12.210  21.396  0.00  0.00    +0.000 OA
BRANCH   2   5
ATOM      5  C   UNL     1       0.391  14.097  19.754  0.00  0.00    +0.000 A 
ATOM      6  C   UNL     1       1.664  14.302  19.220  0.00  0.00    +0.000 A 
ATOM      7  C   UNL     1       1.948  15.507  18.573  0.00  0.00    +0.000 A 
ATOM      8  C   UNL     1       0.960  16.487  18.452  0.00  0.00    +0.000 A 
ATOM      9 CL   UNL     1       1.323  17.970  17.663  0.00  0.00    +0.000 Cl
ATOM     10  C   UNL     1      -0.321  16.268  18.962  0.00  0.00    +0.000 A 
ATOM     11  C   UNL     1      -0.612  15.066  19.613  0.00  0.00    +0.000 A 
ENDBRANCH   2   5
ENDBRANCH   1   2
BRANCH   1  12
ATOM     12  C   UNL     1       0.086   9.951  19.859  0.00  0.00    +0.000 C 
BRANCH  12  18
ATOM     13  C   UNL     1       3.119   4.524  18.554  0.00  0.00    +0.000 A 
ATOM     14  C   UNL     1       2.806   4.509  19.909  0.00  0.00    +0.000 A 
ATOM     15  C   UNL     1       2.369   5.687  20.525  0.00  0.00    +0.000 A 
ATOM     16  C   UNL     1       2.245   6.867  19.784  0.00  0.00    +0.000 A 
ATOM     17  C   UNL     1       1.556   7.975  20.301  0.00  0.00    +0.000 A 
ATOM     18  C   UNL     1       1.235   9.055  19.466  0.00  0.00    +0.000 A 
ATOM     19  C   UNL     1       1.910   9.115  18.256  0.00  0.00    +0.000 A 
ATOM     20  N   UNL     1       2.619   8.087  17.741  0.00  0.00    +0.000 NA
ATOM     21  C   UNL     1       2.671   6.935  18.445  0.00  0.00    +0.000 A 
ATOM     22  C   UNL     1       3.061   5.734  17.849  0.00  0.00    +0.000 A 
BRANCH  13  24
ATOM     23  C   UNL     1       2.578   2.307  17.862  0.00  0.00    +0.000 C 
ATOM     24  O   UNL     1       3.462   3.424  17.816  0.00  0.00    +0.000 OA
ENDBRANCH  13  24
BRANCH  19  25
ATOM     25  O   UNL     1       1.752  10.181  17.415  0.00  0.00    +0.000 OA
ATOM     26  H   UNL     1       2.532  10.749  17.546  0.00  0.00    +0.000 HD
ENDBRANCH  19  25
ENDBRANCH  12  18
ENDBRANCH   1  12
BRANCH   1  27
ATOM     27  C   UNL     1      -1.322  11.637  18.449  0.00  0.00    +0.000 C 
BRANCH  27  28
ATOM     28  C   UNL     1      -2.232  10.439  18.118  0.00  0.00    +0.000 C 
ATOM     29  C   UNL     1      -1.983   9.829  16.722  0.00  0.00    +0.000 C 
ATOM     30  O   UNL     1      -2.504  10.649  15.660  0.00  0.00    +0.000 OA
ATOM     31  C   UNL     1      -3.910  10.871  15.851  0.00  0.00    +0.000 C 
ATOM     32  C   UNL     1      -4.108  11.599  17.159  0.00  0.00    +0.000 C 
ATOM     33  O   UNL     1      -3.616  10.775  18.208  0.00  0.00    +0.000 OA
ENDBRANCH  27  28
ENDBRANCH   1  27
TORSDOF 8
ENDMDL
MODEL 4
REMARK VINA RESULT:      -8.2      3.008      5.306
REMARK  Name = 
REMARK  9 active torsions:
REMARK  status: ('A' for Active; 'I' for Inactive)
REMARK    1  A    between atoms: C_1  and  O_2
REMARK    2  A    between atoms: O_2  and  C_3
REMARK    3  A    between atoms: C_8  and  C_9
REMARK    4  A    between atoms: C_9  and  N_10
REMARK    5  A    between atoms: N_10  and  C_11
REMARK    6  A    between atoms: N_10  and  S_18
REMARK    7  A    between atoms: C_11  and  C_12
REMARK    8  A    between atoms: S_18  and  C_21
REMARK    9  A    between atoms: C_28  and  O_29
REMARK                            x       y       z     vdW  Elec       q    Type
REMARK                         _______ _______ _______ _____ _____    ______ ____
ROOT
ATOM      1  N   UNL     1       3.970   5.752  18.021  0.00  0.00    +0.000 NA
ENDROOT
BRANCH   1   2
ATOM      2  S   UNL     1       3.610   4.025  17.729  0.00  0.00    +0.000 S 
ATOM      3  O   UNL     1       2.661   3.955  16.637  0.00  0.00    +0.000 OA
ATOM      4  O   UNL     1       4.887   3.349  17.660  0.00  0.00    +0.000 OA
BRANCH   2   5
ATOM      5  C   UNL     1       2.769   3.467  19.186  0.00  0.00    +0.000 A 
ATOM      6  C   UNL     1       3.515   2.932  20.237  0.00  0.00    +0.000 A 
ATOM      7  C   UNL     1       2.861   2.514  21.397  0.00  0.00    +0.000 A 
ATOM      8  C   UNL     1       1.474   2.645  21.506  0.00  0.00    +0.000 A 
ATOM      9 CL   UNL     1       0.677   2.117  22.934  0.00  0.00    +0.000 Cl
ATOM     10  C   UNL     1       0.732   3.206  20.465  0.00  0.00    +0.000 A 
ATOM     11  C   UNL     1       1.380   3.625  19.300  0.00  0.00    +0.000 A 
ENDBRANCH   2   5
ENDBRANCH   1   2
BRANCH   1  12
ATOM     12  C   UNL     1       3.404   6.137  19.385  0.00  0.00    +0.000 C 
BRANCH  12  18
ATOM     13  C   UNL     1       0.089  11.014  21.749  0.00  0.00    +0.000 A 
ATOM     14  C   UNL     1      -0.128   9.921  22.582  0.00  0.00    +0.000 A 
ATOM     15  C   UNL     1       0.268   8.648  22.160  0.00  0.00    +0.000 A 
ATOM     16  C   UNL     1       0.879   8.475  20.913  0.00  0.00    +0.000 A 
ATOM     17  C   UNL     1       1.526   7.274  20.588  0.00  0.00    +0.000 A 
ATOM     18  C   UNL     1       2.332   7.198  19.442  0.00  0.00    +0.000 A 
ATOM     19  C   UNL     1       2.175   8.218  18.516  0.00  0.00    +0.000 A 
ATOM     20  N   UNL     1       1.524   9.372  18.773  0.00  0.00    +0.000 NA
ATOM     21  C   UNL     1       0.997   9.544  20.006  0.00  0.00    +0.000 A 
ATOM     22  C   UNL     1       0.633  10.807  20.474  0.00  0.00    +0.000 A 
BRANCH  13  24
ATOM     23  C   UNL     1      -1.237  12.565  22.982  0.00  0.00    +0.000 C 
ATOM     24  O   UNL     1      -0.160  12.318  22.083  0.00  0.00    +0.000 OA
ENDBRANCH  13  24
BRANCH  19  25
ATOM     25  O   UNL     1       2.832   8.185  17.316  0.00  0.00    +0.000 OA
ATOM     26  H   UNL     1       2.148   8.270  16.629  0.00  0.00    +0.000 HD
ENDBRANCH  19  25
ENDBRANCH  12  18
ENDBRANCH   1  12
BRANCH   1  27
ATOM     27  C   UNL     1       5.530   5.854  17.898  0.00  0.00    +0.000 C 
BRANCH  27  28
ATOM     28  C   UNL     1       6.097   6.572  16.658  0.00  0.00    +0.000 C 
ATOM     29  C   UNL     1       5.209   6.450  15.401  0.00  0.00    +0.000 C 
ATOM     30  O   UNL     1       5.277   5.143  14.803  0.00  0.00    +0.000 OA
ATOM     31  C   UNL     1       6.637   4.821  14.471  0.00  0.00    +0.000 C 
ATOM     32  C   UNL     1       7.451   4.808  15.743  0.00  0.00    +0.000 C 
ATOM     33  O   UNL     1       7.403   6.107  16.319  0.00  0.00    +0.000 OA
ENDBRANCH  27  28
ENDBRANCH   1  27
TORSDOF 8
ENDMDL
MODEL 5
REMARK VINA RESULT:      -8.1      1.604      2.027
REMARK  Name = 
REMARK  9 active torsions:
REMARK  status: ('A' for Active; 'I' for Inactive)
REMARK    1  A    between atoms: C_1  and  O_2
REMARK    2  A    between atoms: O_2  and  C_3
REMARK    3  A    between atoms: C_8  and  C_9
REMARK    4  A    between atoms: C_9  and  N_10
REMARK    5  A    between atoms: N_10  and  C_11
REMARK    6  A    between atoms: N_10  and  S_18
REMARK    7  A    between atoms: C_11  and  C_12
REMARK    8  A    between atoms: S_18  and  C_21
REMARK    9  A    between atoms: C_28  and  O_29
REMARK                            x       y       z     vdW  Elec       q    Type
REMARK                         _______ _______ _______ _____ _____    ______ ____
ROOT
ATOM      1  N   UNL     1       3.563   5.218  19.207  0.00  0.00    +0.000 NA
ENDROOT
BRANCH   1   2
ATOM      2  S   UNL     1       5.221   4.546  19.177  0.00  0.00    +0.000 S 
ATOM      3  O   UNL     1       6.085   5.482  19.865  0.00  0.00    +0.000 OA
ATOM      4  O   UNL     1       5.109   3.169  19.607  0.00  0.00    +0.000 OA
BRANCH   2   5
ATOM      5  C   UNL     1       5.699   4.553  17.470  0.00  0.00    +0.000 A 
ATOM      6  C   UNL     1       4.946   3.820  16.552  0.00  0.00    +0.000 A 
ATOM      7  C   UNL     1       5.304   3.842  15.202  0.00  0.00    +0.000 A 
ATOM      8  C   UNL     1       6.396   4.603  14.779  0.00  0.00    +0.000 A 
ATOM      9 CL   UNL     1       6.834   4.614  13.117  0.00  0.00    +0.000 Cl
ATOM     10  C   UNL     1       7.131   5.358  15.695  0.00  0.00    +0.000 A 
ATOM     11  C   UNL     1       6.781   5.339  17.047  0.00  0.00    +0.000 A 
ENDBRANCH   2   5
ENDBRANCH   1   2
BRANCH   1  12
ATOM     12  C   UNL     1       3.615   6.647  18.675  0.00  0.00    +0.000 C 
BRANCH  12  18
ATOM     13  C   UNL     1       0.144  10.880  21.901  0.00  0.00    +0.000 A 
ATOM     14  C   UNL     1       0.165   9.705  22.646  0.00  0.00    +0.000 A 
ATOM     15  C   UNL     1       0.635   8.527  22.056  0.00  0.00    +0.000 A 
ATOM     16  C   UNL     1       1.084   8.531  20.731  0.00  0.00    +0.000 A 
ATOM     17  C   UNL     1       1.808   7.447  20.211  0.00  0.00    +0.000 A 
ATOM     18  C   UNL     1       2.451   7.562  18.970  0.00  0.00    +0.000 A 
ATOM     19  C   UNL     1       2.058   8.627  18.174  0.00  0.00    +0.000 A 
ATOM     20  N   UNL     1       1.326   9.670  18.622  0.00  0.00    +0.000 NA
ATOM     21  C   UNL     1       0.959   9.676  19.923  0.00  0.00    +0.000 A 
ATOM     22  C   UNL     1       0.527  10.844  20.553  0.00  0.00    +0.000 A 
BRANCH  13  24
ATOM     23  C   UNL     1      -1.520  12.267  22.895  0.00  0.00    +0.000 C 
ATOM     24  O   UNL     1      -0.198  12.112  22.388  0.00  0.00    +0.000 OA
ENDBRANCH  13  24
BRANCH  19  25
ATOM     25  O   UNL     1       2.543   8.772  16.903  0.00  0.00    +0.000 OA
ATOM     26  H   UNL     1       2.917   9.669  16.856  0.00  0.00    +0.000 HD
ENDBRANCH  19  25
ENDBRANCH  12  18
ENDBRANCH   1  12
BRANCH   1  27
ATOM     27  C   UNL     1       2.719   4.218  18.343  0.00  0.00    +0.000 C 
BRANCH  27  28
ATOM     28  C   UNL     1       1.374   3.740  18.925  0.00  0.00    +0.000 C 
ATOM     29  C   UNL     1       1.010   4.388  20.278  0.00  0.00    +0.000 C 
ATOM     30  O   UNL     1       1.787   3.861  21.369  0.00  0.00    +0.000 OA
ATOM     31  C   UNL     1       1.622   2.436  21.451  0.00  0.00    +0.000 C 
ATOM     32  C   UNL     1       2.122   1.820  20.166  0.00  0.00    +0.000 C 
ATOM     33  O   UNL     1       1.336   2.323  19.094  0.00  0.00    +0.000 OA
ENDBRANCH  27  28
ENDBRANCH   1  27
TORSDOF 8
ENDMDL
MODEL 6
REMARK VINA RESULT:      -8.1      1.637      2.295
REMARK  Name = 
REMARK  9 active torsions:
REMARK  status: ('A' for Active; 'I' for Inactive)
REMARK    1  A    between atoms: C_1  and  O_2
REMARK    2  A    between atoms: O_2  and  C_3
REMARK    3  A    between atoms: C_8  and  C_9
REMARK    4  A    between atoms: C_9  and  N_10
REMARK    5  A    between atoms: N_10  and  C_11
REMARK    6  A    between atoms: N_10  and  S_18
REMARK    7  A    between atoms: C_11  and  C_12
REMARK    8  A    between atoms: S_18  and  C_21
REMARK    9  A    between atoms: C_28  and  O_29
REMARK                            x       y       z     vdW  Elec       q    Type
REMARK                         _______ _______ _______ _____ _____    ______ ____
ROOT
ATOM      1  N   UNL     1       3.494   5.430  18.986  0.00  0.00    +0.000 NA
ENDROOT
BRANCH   1   2
ATOM      2  S   UNL     1       5.160   4.778  19.015  0.00  0.00    +0.000 S 
ATOM      3  O   UNL     1       5.993   5.737  19.710  0.00  0.00    +0.000 OA
ATOM      4  O   UNL     1       5.053   3.408  19.468  0.00  0.00    +0.000 OA
BRANCH   2   5
ATOM      5  C   UNL     1       5.687   4.759  17.323  0.00  0.00    +0.000 A 
ATOM      6  C   UNL     1       6.660   5.668  16.906  0.00  0.00    +0.000 A 
ATOM      7  C   UNL     1       7.098   5.642  15.580  0.00  0.00    +0.000 A 
ATOM      8  C   UNL     1       6.573   4.704  14.688  0.00  0.00    +0.000 A 
ATOM      9 CL   UNL     1       7.109   4.688  13.055  0.00  0.00    +0.000 Cl
ATOM     10  C   UNL     1       5.619   3.777  15.114  0.00  0.00    +0.000 A 
ATOM     11  C   UNL     1       5.175   3.799  16.438  0.00  0.00    +0.000 A 
ENDBRANCH   2   5
ENDBRANCH   1   2
BRANCH   1  12
ATOM     12  C   UNL     1       3.573   6.938  18.770  0.00  0.00    +0.000 C 
BRANCH  12  18
ATOM     13  C   UNL     1      -0.082  10.858  22.181  0.00  0.00    +0.000 A 
ATOM     14  C   UNL     1       0.019   9.664  22.888  0.00  0.00    +0.000 A 
ATOM     15  C   UNL     1       0.547   8.534  22.253  0.00  0.00    +0.000 A 
ATOM     16  C   UNL     1       0.973   8.606  20.923  0.00  0.00    +0.000 A 
ATOM     17  C   UNL     1       1.749   7.583  20.358  0.00  0.00    +0.000 A 
ATOM     18  C   UNL     1       2.364   7.774  19.111  0.00  0.00    +0.000 A 
ATOM     19  C   UNL     1       1.895   8.838  18.356  0.00  0.00    +0.000 A 
ATOM     20  N   UNL     1       1.112   9.822  18.848  0.00  0.00    +0.000 NA
ATOM     21  C   UNL     1       0.767   9.766  20.154  0.00  0.00    +0.000 A 
ATOM     22  C   UNL     1       0.279  10.886  20.827  0.00  0.00    +0.000 A 
BRANCH  13  24
ATOM     23  C   UNL     1      -0.178  13.231  21.974  0.00  0.00    +0.000 C 
ATOM     24  O   UNL     1      -0.487  12.052  22.712  0.00  0.00    +0.000 OA
ENDBRANCH  13  24
BRANCH  19  25
ATOM     25  O   UNL     1       2.350   9.050  17.083  0.00  0.00    +0.000 OA
ATOM     26  H   UNL     1       3.285   9.305  17.167  0.00  0.00    +0.000 HD
ENDBRANCH  19  25
ENDBRANCH  12  18
ENDBRANCH   1  12
BRANCH   1  27
ATOM     27  C   UNL     1       2.781   4.632  17.841  0.00  0.00    +0.000 C 
BRANCH  27  28
ATOM     28  C   UNL     1       1.455   3.926  18.189  0.00  0.00    +0.000 C 
ATOM     29  C   UNL     1       1.067   4.021  19.680  0.00  0.00    +0.000 C 
ATOM     30  O   UNL     1       1.864   3.158  20.513  0.00  0.00    +0.000 OA
ATOM     31  C   UNL     1       1.753   1.798  20.066  0.00  0.00    +0.000 C 
ATOM     32  C   UNL     1       2.275   1.713  18.652  0.00  0.00    +0.000 C 
ATOM     33  O   UNL     1       1.471   2.545  17.827  0.00  0.00    +0.000 OA
ENDBRANCH  27  28
ENDBRANCH   1  27
TORSDOF 8
ENDMDL
MODEL 7
REMARK VINA RESULT:      -8.1      0.920      1.183
REMARK  Name = 
REMARK  9 active torsions:
REMARK  status: ('A' for Active; 'I' for Inactive)
REMARK    1  A    between atoms: C_1  and  O_2
REMARK    2  A    between atoms: O_2  and  C_3
REMARK    3  A    between atoms: C_8  and  C_9
REMARK    4  A    between atoms: C_9  and  N_10
REMARK    5  A    between atoms: N_10  and  C_11
REMARK    6  A    between atoms: N_10  and  S_18
REMARK    7  A    between atoms: C_11  and  C_12
REMARK    8  A    between atoms: S_18  and  C_21
REMARK    9  A    between atoms: C_28  and  O_29
REMARK                            x       y       z     vdW  Elec       q    Type
REMARK                         _______ _______ _______ _____ _____    ______ ____
ROOT
ATOM      1  N   UNL     1       3.131   4.767  18.590  0.00  0.00    +0.000 NA
ENDROOT
BRANCH   1   2
ATOM      2  S   UNL     1       4.900   5.028  18.534  0.00  0.00    +0.000 S 
ATOM      3  O   UNL     1       5.147   6.421  18.841  0.00  0.00    +0.000 OA
ATOM      4  O   UNL     1       5.493   3.968  19.321  0.00  0.00    +0.000 OA
BRANCH   2   5
ATOM      5  C   UNL     1       5.359   4.778  16.840  0.00  0.00    +0.000 A 
ATOM      6  C   UNL     1       5.229   5.837  15.940  0.00  0.00    +0.000 A 
ATOM      7  C   UNL     1       5.611   5.654  14.609  0.00  0.00    +0.000 A 
ATOM      8  C   UNL     1       6.132   4.426  14.193  0.00  0.00    +0.000 A 
ATOM      9 CL   UNL     1       6.589   4.208  12.550  0.00  0.00    +0.000 Cl
ATOM     10  C   UNL     1       6.287   3.377  15.101  0.00  0.00    +0.000 A 
ATOM     11  C   UNL     1       5.904   3.552  16.433  0.00  0.00    +0.000 A 
ENDBRANCH   2   5
ENDBRANCH   1   2
BRANCH   1  12
ATOM     12  C   UNL     1       2.445   6.013  18.039  0.00  0.00    +0.000 C 
BRANCH  12  18
ATOM     13  C   UNL     1      -0.533  11.064  20.486  0.00  0.00    +0.000 A 
ATOM     14  C   UNL     1      -0.074  11.423  19.223  0.00  0.00    +0.000 A 
ATOM     15  C   UNL     1       0.839  10.594  18.563  0.00  0.00    +0.000 A 
ATOM     16  C   UNL     1       1.285   9.413  19.167  0.00  0.00    +0.000 A 
ATOM     17  C   UNL     1       1.973   8.441  18.427  0.00  0.00    +0.000 A 
ATOM     18  C   UNL     1       2.203   7.171  18.977  0.00  0.00    +0.000 A 
ATOM     19  C   UNL     1       2.029   7.058  20.348  0.00  0.00    +0.000 A 
ATOM     20  N   UNL     1       1.410   7.989  21.106  0.00  0.00    +0.000 NA
ATOM     21  C   UNL     1       0.930   9.093  20.490  0.00  0.00    +0.000 A 
ATOM     22  C   UNL     1      -0.015   9.916  21.103  0.00  0.00    +0.000 A 
BRANCH  13  24
ATOM     23  C   UNL     1      -1.414  11.683  22.613  0.00  0.00    +0.000 C 
ATOM     24  O   UNL     1      -1.496  11.733  21.192  0.00  0.00    +0.000 OA
ENDBRANCH  13  24
BRANCH  19  25
ATOM     25  O   UNL     1       2.329   5.895  21.001  0.00  0.00    +0.000 OA
ATOM     26  H   UNL     1       2.398   5.207  20.315  0.00  0.00    +0.000 HD
ENDBRANCH  19  25
ENDBRANCH  12  18
ENDBRANCH   1  12
BRANCH   1  27
ATOM     27  C   UNL     1       2.901   3.459  17.757  0.00  0.00    +0.000 C 
BRANCH  27  28
ATOM     28  C   UNL     1       2.049   2.349  18.402  0.00  0.00    +0.000 C 
ATOM     29  C   UNL     1       0.666   2.826  18.894  0.00  0.00    +0.000 C 
ATOM     30  O   UNL     1       0.749   3.606  20.101  0.00  0.00    +0.000 OA
ATOM     31  C   UNL     1       1.400   2.850  21.135  0.00  0.00    +0.000 C 
ATOM     32  C   UNL     1       2.802   2.522  20.679  0.00  0.00    +0.000 C 
ATOM     33  O   UNL     1       2.716   1.731  19.502  0.00  0.00    +0.000 OA
ENDBRANCH  27  28
ENDBRANCH   1  27
TORSDOF 8
ENDMDL
MODEL 8
REMARK VINA RESULT:      -8.0      4.083      8.814
REMARK  Name = 
REMARK  9 active torsions:
REMARK  status: ('A' for Active; 'I' for Inactive)
REMARK    1  A    between atoms: C_1  and  O_2
REMARK    2  A    between atoms: O_2  and  C_3
REMARK    3  A    between atoms: C_8  and  C_9
REMARK    4  A    between atoms: C_9  and  N_10
REMARK    5  A    between atoms: N_10  and  C_11
REMARK    6  A    between atoms: N_10  and  S_18
REMARK    7  A    between atoms: C_11  and  C_12
REMARK    8  A    between atoms: S_18  and  C_21
REMARK    9  A    between atoms: C_28  and  O_29
REMARK                            x       y       z     vdW  Elec       q    Type
REMARK                         _______ _______ _______ _____ _____    ______ ____
ROOT
ATOM      1  N   UNL     1      -0.093  11.413  19.181  0.00  0.00    +0.000 NA
ENDROOT
BRANCH   1   2
ATOM      2  S   UNL     1       0.020  12.700  20.419  0.00  0.00    +0.000 S 
ATOM      3  O   UNL     1      -1.233  13.425  20.411  0.00  0.00    +0.000 OA
ATOM      4  O   UNL     1       0.514  12.065  21.622  0.00  0.00    +0.000 OA
BRANCH   2   5
ATOM      5  C   UNL     1       1.268  13.811  19.829  0.00  0.00    +0.000 A 
ATOM      6  C   UNL     1       2.373  13.292  19.152  0.00  0.00    +0.000 A 
ATOM      7  C   UNL     1       3.347  14.165  18.663  0.00  0.00    +0.000 A 
ATOM      8  C   UNL     1       3.206  15.544  18.841  0.00  0.00    +0.000 A 
ATOM      9 CL   UNL     1       4.417  16.608  18.245  0.00  0.00    +0.000 Cl
ATOM     10  C   UNL     1       2.086  16.063  19.493  0.00  0.00    +0.000 A 
ATOM     11  C   UNL     1       1.108  15.196  19.987  0.00  0.00    +0.000 A 
ENDBRANCH   2   5
ENDBRANCH   1   2
BRANCH   1  12
ATOM     12  C   UNL     1       0.009  10.062  19.883  0.00  0.00    +0.000 C 
BRANCH  12  18
ATOM     13  C   UNL     1       2.964   4.570  18.669  0.00  0.00    +0.000 A 
ATOM     14  C   UNL     1       2.653   4.584  20.025  0.00  0.00    +0.000 A 
ATOM     15  C   UNL     1       2.233   5.779  20.620  0.00  0.00    +0.000 A 
ATOM     16  C   UNL     1       2.124   6.947  19.859  0.00  0.00    +0.000 A 
ATOM     17  C   UNL     1       1.452   8.073  20.358  0.00  0.00    +0.000 A 
ATOM     18  C   UNL     1       1.145   9.143  19.505  0.00  0.00    +0.000 A 
ATOM     19  C   UNL     1       1.819   9.172  18.293  0.00  0.00    +0.000 A 
ATOM     20  N   UNL     1       2.513   8.126  17.794  0.00  0.00    +0.000 NA
ATOM     21  C   UNL     1       2.550   6.985  18.518  0.00  0.00    +0.000 A 
ATOM     22  C   UNL     1       2.922   5.769  17.943  0.00  0.00    +0.000 A 
BRANCH  13  24
ATOM     23  C   UNL     1       4.476   3.510  17.161  0.00  0.00    +0.000 C 
ATOM     24  O   UNL     1       3.291   3.453  17.949  0.00  0.00    +0.000 OA
ENDBRANCH  13  24
BRANCH  19  25
ATOM     25  O   UNL     1       1.675  10.226  17.433  0.00  0.00    +0.000 OA
ATOM     26  H   UNL     1       2.306  10.906  17.729  0.00  0.00    +0.000 HD
ENDBRANCH  19  25
ENDBRANCH  12  18
ENDBRANCH   1  12
BRANCH   1  27
ATOM     27  C   UNL     1      -1.457  11.683  18.458  0.00  0.00    +0.000 C 
BRANCH  27  28
ATOM     28  C   UNL     1      -2.312  10.458  18.077  0.00  0.00    +0.000 C 
ATOM     29  C   UNL     1      -2.009   9.894  16.673  0.00  0.00    +0.000 C 
ATOM     30  O   UNL     1      -2.541  10.720  15.620  0.00  0.00    +0.000 OA
ATOM     31  C   UNL     1      -3.958  10.881  15.786  0.00  0.00    +0.000 C 
ATOM     32  C   UNL     1      -4.213  11.567  17.107  0.00  0.00    +0.000 C 
ATOM     33  O   UNL     1      -3.710  10.737  18.146  0.00  0.00    +0.000 OA
ENDBRANCH  27  28
ENDBRANCH   1  27
TORSDOF 8
ENDMDL
MODEL 9
REMARK VINA RESULT:      -7.9      2.897      5.225
REMARK  Name = 
REMARK  9 active torsions:
REMARK  status: ('A' for Active; 'I' for Inactive)
REMARK    1  A    between atoms: C_1  and  O_2
REMARK    2  A    between atoms: O_2  and  C_3
REMARK    3  A    between atoms: C_8  and  C_9
REMARK    4  A    between atoms: C_9  and  N_10
REMARK    5  A    between atoms: N_10  and  C_11
REMARK    6  A    between atoms: N_10  and  S_18
REMARK    7  A    between atoms: C_11  and  C_12
REMARK    8  A    between atoms: S_18  and  C_21
REMARK    9  A    between atoms: C_28  and  O_29
REMARK                            x       y       z     vdW  Elec       q    Type
REMARK                         _______ _______ _______ _____ _____    ______ ____
ROOT
ATOM      1  N   UNL     1       4.735   5.210  18.179  0.00  0.00    +0.000 NA
ENDROOT
BRANCH   1   2
ATOM      2  S   UNL     1       3.752   3.793  17.703  0.00  0.00    +0.000 S 
ATOM      3  O   UNL     1       2.769   4.246  16.741  0.00  0.00    +0.000 OA
ATOM      4  O   UNL     1       4.688   2.738  17.382  0.00  0.00    +0.000 OA
BRANCH   2   5
ATOM      5  C   UNL     1       2.870   3.321  19.166  0.00  0.00    +0.000 A 
ATOM      6  C   UNL     1       3.575   2.756  20.230  0.00  0.00    +0.000 A 
ATOM      7  C   UNL     1       2.890   2.405  21.395  0.00  0.00    +0.000 A 
ATOM      8  C   UNL     1       1.514   2.632  21.494  0.00  0.00    +0.000 A 
ATOM      9 CL   UNL     1       0.679   2.186  22.928  0.00  0.00    +0.000 Cl
ATOM     10  C   UNL     1       0.816   3.223  20.440  0.00  0.00    +0.000 A 
ATOM     11  C   UNL     1       1.495   3.575  19.270  0.00  0.00    +0.000 A 
ENDBRANCH   2   5
ENDBRANCH   1   2
BRANCH   1  12
ATOM     12  C   UNL     1       4.021   5.928  19.320  0.00  0.00    +0.000 C 
BRANCH  12  18
ATOM     13  C   UNL     1       0.501  11.185  19.901  0.00  0.00    +0.000 A 
ATOM     14  C   UNL     1       0.193  10.357  20.976  0.00  0.00    +0.000 A 
ATOM     15  C   UNL     1       0.625   9.027  20.963  0.00  0.00    +0.000 A 
ATOM     16  C   UNL     1       1.362   8.534  19.881  0.00  0.00    +0.000 A 
ATOM     17  C   UNL     1       2.034   7.306  19.966  0.00  0.00    +0.000 A 
ATOM     18  C   UNL     1       2.954   6.938  18.973  0.00  0.00    +0.000 A 
ATOM     19  C   UNL     1       2.900   7.661  17.791  0.00  0.00    +0.000 A 
ATOM     20  N   UNL     1       2.230   8.826  17.653  0.00  0.00    +0.000 NA
ATOM     21  C   UNL     1       1.579   9.316  18.731  0.00  0.00    +0.000 A 
ATOM     22  C   UNL     1       1.173  10.649  18.794  0.00  0.00    +0.000 A 
BRANCH  13  24
ATOM     23  C   UNL     1       0.077  13.095  18.540  0.00  0.00    +0.000 C 
ATOM     24  O   UNL     1       0.223  12.523  19.836  0.00  0.00    +0.000 OA
ENDBRANCH  13  24
BRANCH  19  25
ATOM     25  O   UNL     1       3.678   7.317  16.720  0.00  0.00    +0.000 OA
ATOM     26  H   UNL     1       4.143   8.128  16.451  0.00  0.00    +0.000 HD
ENDBRANCH  19  25
ENDBRANCH  12  18
ENDBRANCH   1  12
BRANCH   1  27
ATOM     27  C   UNL     1       6.136   4.610  18.546  0.00  0.00    +0.000 C 
BRANCH  27  28
ATOM     28  C   UNL     1       7.367   5.184  17.817  0.00  0.00    +0.000 C 
ATOM     29  C   UNL     1       7.113   6.546  17.136  0.00  0.00    +0.000 C 
ATOM     30  O   UNL     1       6.329   6.425  15.935  0.00  0.00    +0.000 OA
ATOM     31  C   UNL     1       6.972   5.532  15.012  0.00  0.00    +0.000 C 
ATOM     32  C   UNL     1       7.075   4.170  15.655  0.00  0.00    +0.000 C 
ATOM     33  O   UNL     1       7.871   4.287  16.827  0.00  0.00    +0.000 OA
ENDBRANCH  27  28
ENDBRANCH   1  27
TORSDOF 8
ENDMDL
