MODEL 1
REMARK VINA RESULT:      -6.6      0.000      0.000
REMARK  Name = 
REMARK  2 active torsions:
REMARK  status: ('A' for Active; 'I' for Inactive)
REMARK    1  A    between atoms: C_1  and  C_2
REMARK    2  A    between atoms: C_22  and  C_23
REMARK                            x       y       z     vdW  Elec       q    Type
REMARK                         _______ _______ _______ _____ _____    ______ ____
ROOT
ATOM      1  C   UNL     1       2.396   3.023  21.428  0.00  0.00    +0.000 C 
ATOM      2  C   UNL     1       1.329   3.886  20.766  0.00  0.00    +0.000 C 
ATOM      3  C   UNL     1       1.892   5.137  20.063  0.00  0.00    +0.000 C 
ATOM      4  N   UNL     1       2.363   4.831  18.715  0.00  0.00    +0.000 N 
ATOM      5  C   UNL     1       3.699   4.861  18.405  0.00  0.00    +0.000 A 
ATOM      6  N   UNL     1       4.082   4.654  17.133  0.00  0.00    +0.000 NA
ATOM      7  C   UNL     1       5.388   4.756  16.828  0.00  0.00    +0.000 A 
ATOM      8  N   UNL     1       5.791   4.562  15.509  0.00  0.00    +0.000 N 
ATOM      9  C   UNL     1       4.919   3.823  14.590  0.00  0.00    +0.000 C 
ATOM     10  C   UNL     1       5.830   3.211  13.505  0.00  0.00    +0.000 C 
ATOM     11  O   UNL     1       6.615   4.214  12.823  0.00  0.00    +0.000 OA
ATOM     12  C   UNL     1       7.397   4.984  13.757  0.00  0.00    +0.000 C 
ATOM     13  C   UNL     1       6.491   5.653  14.806  0.00  0.00    +0.000 C 
ATOM     14  C   UNL     1       6.351   4.971  17.825  0.00  0.00    +0.000 A 
ATOM     15  C   UNL     1       7.759   4.957  17.647  0.00  0.00    +0.000 A 
ATOM     16  C   UNL     1       8.609   5.195  18.710  0.00  0.00    +0.000 A 
ATOM     17  C   UNL     1       8.021   5.406  19.935  0.00  0.00    +0.000 A 
ATOM     18  N   UNL     1       6.686   5.391  20.139  0.00  0.00    +0.000 NA
ATOM     19  C   UNL     1       5.859   5.166  19.111  0.00  0.00    +0.000 A 
ATOM     20  N   UNL     1       4.566   5.129  19.380  0.00  0.00    +0.000 NA
ATOM     21  C   UNL     1       1.399   4.140  17.872  0.00  0.00    +0.000 C 
ATOM     22  C   UNL     1       0.845   2.884  18.584  0.00  0.00    +0.000 C 
ATOM     23  C   UNL     1       1.757   1.669  18.462  0.00  0.00    +0.000 C 
ATOM     24  O   UNL     1       0.433   3.116  19.943  0.00  0.00    +0.000 OA
ENDROOT
TORSDOF 0
ENDMDL
MODEL 2
REMARK VINA RESULT:      -6.3     10.284     12.776
REMARK  Name = 
REMARK  2 active torsions:
REMARK  status: ('A' for Active; 'I' for Inactive)
REMARK    1  A    between atoms: C_1  and  C_2
REMARK    2  A    between atoms: C_22  and  C_23
REMARK                            x       y       z     vdW  Elec       q    Type
REMARK                         _______ _______ _______ _____ _____    ______ ____
ROOT
ATOM      1  C   UNL     1      -7.586  14.878  18.582  0.00  0.00    +0.000 C 
ATOM      2  C   UNL     1      -7.900  14.384  19.989  0.00  0.00    +0.000 C 
ATOM      3  C   UNL     1      -7.327  12.988  20.298  0.00  0.00    +0.000 C 
ATOM      4  N   UNL     1      -5.933  13.059  20.724  0.00  0.00    +0.000 N 
ATOM      5  C   UNL     1      -4.922  12.578  19.931  0.00  0.00    +0.000 A 
ATOM      6  N   UNL     1      -3.661  12.589  20.398  0.00  0.00    +0.000 NA
ATOM      7  C   UNL     1      -2.689  12.049  19.641  0.00  0.00    +0.000 A 
ATOM      8  N   UNL     1      -1.383  12.039  20.125  0.00  0.00    +0.000 N 
ATOM      9  C   UNL     1      -0.998  12.981  21.181  0.00  0.00    +0.000 C 
ATOM     10  C   UNL     1       0.522  13.209  21.044  0.00  0.00    +0.000 C 
ATOM     11  O   UNL     1       1.267  11.973  21.118  0.00  0.00    +0.000 OA
ATOM     12  C   UNL     1       0.811  11.033  20.127  0.00  0.00    +0.000 C 
ATOM     13  C   UNL     1      -0.692  10.748  20.295  0.00  0.00    +0.000 C 
ATOM     14  C   UNL     1      -2.955  11.575  18.347  0.00  0.00    +0.000 A 
ATOM     15  C   UNL     1      -1.994  11.117  17.409  0.00  0.00    +0.000 A 
ATOM     16  C   UNL     1      -2.383  10.662  16.164  0.00  0.00    +0.000 A 
ATOM     17  C   UNL     1      -3.727  10.712  15.880  0.00  0.00    +0.000 A 
ATOM     18  N   UNL     1      -4.659  11.175  16.742  0.00  0.00    +0.000 NA
ATOM     19  C   UNL     1      -4.287  11.611  17.951  0.00  0.00    +0.000 A 
ATOM     20  N   UNL     1      -5.239  12.084  18.735  0.00  0.00    +0.000 NA
ATOM     21  C   UNL     1      -5.672  13.990  21.812  0.00  0.00    +0.000 C 
ATOM     22  C   UNL     1      -6.246  15.390  21.490  0.00  0.00    +0.000 C 
ATOM     23  C   UNL     1      -5.328  16.231  20.609  0.00  0.00    +0.000 C 
ATOM     24  O   UNL     1      -7.597  15.369  20.995  0.00  0.00    +0.000 OA
ENDROOT
TORSDOF 0
ENDMDL
MODEL 3
REMARK VINA RESULT:      -6.3      9.867     13.496
REMARK  Name = 
REMARK  2 active torsions:
REMARK  status: ('A' for Active; 'I' for Inactive)
REMARK    1  A    between atoms: C_1  and  C_2
REMARK    2  A    between atoms: C_22  and  C_23
REMARK                            x       y       z     vdW  Elec       q    Type
REMARK                         _______ _______ _______ _____ _____    ______ ____
ROOT
ATOM      1  C   UNL     1      -0.031   9.936  19.359  0.00  0.00    +0.000 C 
ATOM      2  C   UNL     1       0.626  11.184  19.937  0.00  0.00    +0.000 C 
ATOM      3  C   UNL     1      -0.205  12.467  19.746  0.00  0.00    +0.000 C 
ATOM      4  N   UNL     1      -1.213  12.616  20.791  0.00  0.00    +0.000 N 
ATOM      5  C   UNL     1      -2.551  12.493  20.511  0.00  0.00    +0.000 A 
ATOM      6  N   UNL     1      -3.449  12.720  21.486  0.00  0.00    +0.000 NA
ATOM      7  C   UNL     1      -4.758  12.666  21.182  0.00  0.00    +0.000 A 
ATOM      8  N   UNL     1      -5.694  12.918  22.182  0.00  0.00    +0.000 N 
ATOM      9  C   UNL     1      -5.302  12.782  23.589  0.00  0.00    +0.000 C 
ATOM     10  C   UNL     1      -6.587  12.465  24.382  0.00  0.00    +0.000 C 
ATOM     11  O   UNL     1      -7.605  13.473  24.195  0.00  0.00    +0.000 OA
ATOM     12  C   UNL     1      -7.910  13.650  22.799  0.00  0.00    +0.000 C 
ATOM     13  C   UNL     1      -6.646  14.030  22.007  0.00  0.00    +0.000 C 
ATOM     14  C   UNL     1      -5.191  12.281  19.904  0.00  0.00    +0.000 A 
ATOM     15  C   UNL     1      -6.534  12.054  19.509  0.00  0.00    +0.000 A 
ATOM     16  C   UNL     1      -6.837  11.687  18.211  0.00  0.00    +0.000 A 
ATOM     17  C   UNL     1      -5.776  11.524  17.352  0.00  0.00    +0.000 A 
ATOM     18  N   UNL     1      -4.486  11.701  17.712  0.00  0.00    +0.000 NA
ATOM     19  C   UNL     1      -4.189  12.061  18.966  0.00  0.00    +0.000 A 
ATOM     20  N   UNL     1      -2.908  12.185  19.266  0.00  0.00    +0.000 NA
ATOM     21  C   UNL     1      -0.705  12.513  22.151  0.00  0.00    +0.000 C 
ATOM     22  C   UNL     1       0.122  11.219  22.333  0.00  0.00    +0.000 C 
ATOM     23  C   UNL     1      -0.734   9.988  22.606  0.00  0.00    +0.000 C 
ATOM     24  O   UNL     1       1.083  10.987  21.288  0.00  0.00    +0.000 OA
ENDROOT
TORSDOF 0
ENDMDL
MODEL 4
REMARK VINA RESULT:      -6.1      9.574     11.389
REMARK  Name = 
REMARK  2 active torsions:
REMARK  status: ('A' for Active; 'I' for Inactive)
REMARK    1  A    between atoms: C_1  and  C_2
REMARK    2  A    between atoms: C_22  and  C_23
REMARK                            x       y       z     vdW  Elec       q    Type
REMARK                         _______ _______ _______ _____ _____    ______ ____
ROOT
ATOM      1  C   UNL     1       6.219  11.428  24.600  0.00  0.00    +0.000 C 
ATOM      2  C   UNL     1       7.059  12.340  25.487  0.00  0.00    +0.000 C 
ATOM      3  C   UNL     1       8.468  12.620  24.929  0.00  0.00    +0.000 C 
ATOM      4  N   UNL     1       8.457  13.712  23.960  0.00  0.00    +0.000 N 
ATOM      5  C   UNL     1       8.689  13.482  22.627  0.00  0.00    +0.000 A 
ATOM      6  N   UNL     1       8.751  14.527  21.783  0.00  0.00    +0.000 NA
ATOM      7  C   UNL     1       9.051  14.295  20.492  0.00  0.00    +0.000 A 
ATOM      8  N   UNL     1       9.135  15.374  19.615  0.00  0.00    +0.000 N 
ATOM      9  C   UNL     1       8.475  16.637  19.959  0.00  0.00    +0.000 C 
ATOM     10  C   UNL     1       8.167  17.357  18.628  0.00  0.00    +0.000 C 
ATOM     11  O   UNL     1       9.355  17.562  17.833  0.00  0.00    +0.000 OA
ATOM     12  C   UNL     1      10.034  16.317  17.582  0.00  0.00    +0.000 C 
ATOM     13  C   UNL     1      10.404  15.621  18.904  0.00  0.00    +0.000 C 
ATOM     14  C   UNL     1       9.195  12.988  20.004  0.00  0.00    +0.000 A 
ATOM     15  C   UNL     1       9.371  12.616  18.646  0.00  0.00    +0.000 A 
ATOM     16  C   UNL     1       9.514  11.289  18.289  0.00  0.00    +0.000 A 
ATOM     17  C   UNL     1       9.441  10.365  19.305  0.00  0.00    +0.000 A 
ATOM     18  N   UNL     1       9.241  10.690  20.601  0.00  0.00    +0.000 NA
ATOM     19  C   UNL     1       9.108  11.974  20.952  0.00  0.00    +0.000 A 
ATOM     20  N   UNL     1       8.879  12.226  22.228  0.00  0.00    +0.000 NA
ATOM     21  C   UNL     1       7.819  14.935  24.424  0.00  0.00    +0.000 C 
ATOM     22  C   UNL     1       6.404  14.644  24.976  0.00  0.00    +0.000 C 
ATOM     23  C   UNL     1       5.338  14.552  23.890  0.00  0.00    +0.000 C 
ATOM     24  O   UNL     1       6.348  13.527  25.882  0.00  0.00    +0.000 OA
ENDROOT
TORSDOF 0
ENDMDL
MODEL 5
REMARK VINA RESULT:      -6.0      9.996     11.236
REMARK  Name = 
REMARK  2 active torsions:
REMARK  status: ('A' for Active; 'I' for Inactive)
REMARK    1  A    between atoms: C_1  and  C_2
REMARK    2  A    between atoms: C_22  and  C_23
REMARK                            x       y       z     vdW  Elec       q    Type
REMARK                         _______ _______ _______ _____ _____    ______ ____
ROOT
ATOM      1  C   UNL     1       3.075  15.771  20.878  0.00  0.00    +0.000 C 
ATOM      2  C   UNL     1       3.786  17.043  20.435  0.00  0.00    +0.000 C 
ATOM      3  C   UNL     1       5.198  17.204  21.031  0.00  0.00    +0.000 C 
ATOM      4  N   UNL     1       6.197  16.475  20.256  0.00  0.00    +0.000 N 
ATOM      5  C   UNL     1       6.821  15.365  20.766  0.00  0.00    +0.000 A 
ATOM      6  N   UNL     1       7.794  14.773  20.051  0.00  0.00    +0.000 NA
ATOM      7  C   UNL     1       8.447  13.729  20.592  0.00  0.00    +0.000 A 
ATOM      8  N   UNL     1       9.469  13.122  19.866  0.00  0.00    +0.000 N 
ATOM      9  C   UNL     1       9.520  13.294  18.410  0.00  0.00    +0.000 C 
ATOM     10  C   UNL     1      10.262  12.066  17.841  0.00  0.00    +0.000 C 
ATOM     11  O   UNL     1      11.577  11.909  18.418  0.00  0.00    +0.000 OA
ATOM     12  C   UNL     1      11.508  11.830  19.854  0.00  0.00    +0.000 C 
ATOM     13  C   UNL     1      10.827  13.081  20.438  0.00  0.00    +0.000 C 
ATOM     14  C   UNL     1       8.062  13.195  21.831  0.00  0.00    +0.000 A 
ATOM     15  C   UNL     1       8.580  12.019  22.434  0.00  0.00    +0.000 A 
ATOM     16  C   UNL     1       8.126  11.599  23.670  0.00  0.00    +0.000 A 
ATOM     17  C   UNL     1       7.136  12.354  24.253  0.00  0.00    +0.000 A 
ATOM     18  N   UNL     1       6.602  13.458  23.686  0.00  0.00    +0.000 NA
ATOM     19  C   UNL     1       7.043  13.872  22.492  0.00  0.00    +0.000 A 
ATOM     20  N   UNL     1       6.458  14.937  21.974  0.00  0.00    +0.000 NA
ATOM     21  C   UNL     1       6.190  16.759  18.829  0.00  0.00    +0.000 C 
ATOM     22  C   UNL     1       4.771  16.589  18.239  0.00  0.00    +0.000 C 
ATOM     23  C   UNL     1       4.424  15.142  17.908  0.00  0.00    +0.000 C 
ATOM     24  O   UNL     1       3.738  17.229  19.008  0.00  0.00    +0.000 OA
ENDROOT
TORSDOF 0
ENDMDL
MODEL 6
REMARK VINA RESULT:      -6.0      9.603     12.613
REMARK  Name = 
REMARK  2 active torsions:
REMARK  status: ('A' for Active; 'I' for Inactive)
REMARK    1  A    between atoms: C_1  and  C_2
REMARK    2  A    between atoms: C_22  and  C_23
REMARK                            x       y       z     vdW  Elec       q    Type
REMARK                         _______ _______ _______ _____ _____    ______ ____
ROOT
ATOM      1  C   UNL     1      10.676  13.573  16.845  0.00  0.00    +0.000 C 
ATOM      2  C   UNL     1      11.823  13.264  17.801  0.00  0.00    +0.000 C 
ATOM      3  C   UNL     1      11.792  14.098  19.096  0.00  0.00    +0.000 C 
ATOM      4  N   UNL     1      10.909  13.507  20.097  0.00  0.00    +0.000 N 
ATOM      5  C   UNL     1       9.732  14.115  20.455  0.00  0.00    +0.000 A 
ATOM      6  N   UNL     1       8.990  13.579  21.440  0.00  0.00    +0.000 NA
ATOM      7  C   UNL     1       7.875  14.224  21.831  0.00  0.00    +0.000 A 
ATOM      8  N   UNL     1       7.111  13.685  22.863  0.00  0.00    +0.000 N 
ATOM      9  C   UNL     1       7.241  12.261  23.189  0.00  0.00    +0.000 C 
ATOM     10  C   UNL     1       5.906  11.827  23.832  0.00  0.00    +0.000 C 
ATOM     11  O   UNL     1       5.575  12.624  24.990  0.00  0.00    +0.000 OA
ATOM     12  C   UNL     1       5.539  14.026  24.663  0.00  0.00    +0.000 C 
ATOM     13  C   UNL     1       6.888  14.485  24.081  0.00  0.00    +0.000 C 
ATOM     14  C   UNL     1       7.431  15.375  21.163  0.00  0.00    +0.000 A 
ATOM     15  C   UNL     1       6.208  16.055  21.392  0.00  0.00    +0.000 A 
ATOM     16  C   UNL     1       5.885  17.192  20.674  0.00  0.00    +0.000 A 
ATOM     17  C   UNL     1       6.788  17.595  19.719  0.00  0.00    +0.000 A 
ATOM     18  N   UNL     1       7.944  16.947  19.458  0.00  0.00    +0.000 NA
ATOM     19  C   UNL     1       8.263  15.849  20.154  0.00  0.00    +0.000 A 
ATOM     20  N   UNL     1       9.389  15.240  19.830  0.00  0.00    +0.000 NA
ATOM     21  C   UNL     1      11.158  12.101  20.379  0.00  0.00    +0.000 C 
ATOM     22  C   UNL     1      11.181  11.272  19.074  0.00  0.00    +0.000 C 
ATOM     23  C   UNL     1       9.792  10.882  18.582  0.00  0.00    +0.000 C 
ATOM     24  O   UNL     1      11.981  11.851  18.027  0.00  0.00    +0.000 OA
ENDROOT
TORSDOF 0
ENDMDL
MODEL 7
REMARK VINA RESULT:      -5.9      8.941     12.183
REMARK  Name = 
REMARK  2 active torsions:
REMARK  status: ('A' for Active; 'I' for Inactive)
REMARK    1  A    between atoms: C_1  and  C_2
REMARK    2  A    between atoms: C_22  and  C_23
REMARK                            x       y       z     vdW  Elec       q    Type
REMARK                         _______ _______ _______ _____ _____    ______ ____
ROOT
ATOM      1  C   UNL     1       0.933   9.264  20.068  0.00  0.00    +0.000 C 
ATOM      2  C   UNL     1       1.297  10.538  20.821  0.00  0.00    +0.000 C 
ATOM      3  C   UNL     1       0.687  11.814  20.210  0.00  0.00    +0.000 C 
ATOM      4  N   UNL     1      -0.681  12.032  20.670  0.00  0.00    +0.000 N 
ATOM      5  C   UNL     1      -1.748  11.903  19.817  0.00  0.00    +0.000 A 
ATOM      6  N   UNL     1      -2.983  12.193  20.262  0.00  0.00    +0.000 NA
ATOM      7  C   UNL     1      -4.011  12.131  19.396  0.00  0.00    +0.000 A 
ATOM      8  N   UNL     1      -5.291  12.448  19.844  0.00  0.00    +0.000 N 
ATOM      9  C   UNL     1      -5.587  12.392  21.280  0.00  0.00    +0.000 C 
ATOM     10  C   UNL     1      -7.103  12.131  21.413  0.00  0.00    +0.000 C 
ATOM     11  O   UNL     1      -7.889  13.134  20.733  0.00  0.00    +0.000 OA
ATOM     12  C   UNL     1      -7.519  13.232  19.345  0.00  0.00    +0.000 C 
ATOM     13  C   UNL     1      -6.021  13.556  19.201  0.00  0.00    +0.000 C 
ATOM     14  C   UNL     1      -3.827  11.676  18.082  0.00  0.00    +0.000 A 
ATOM     15  C   UNL     1      -4.849  11.437  17.128  0.00  0.00    +0.000 A 
ATOM     16  C   UNL     1      -4.540  10.998  15.854  0.00  0.00    +0.000 A 
ATOM     17  C   UNL     1      -3.210  10.777  15.584  0.00  0.00    +0.000 A 
ATOM     18  N   UNL     1      -2.220  10.964  16.484  0.00  0.00    +0.000 NA
ATOM     19  C   UNL     1      -2.515  11.394  17.717  0.00  0.00    +0.000 A 
ATOM     20  N   UNL     1      -1.508  11.525  18.562  0.00  0.00    +0.000 NA
ATOM     21  C   UNL     1      -0.853  12.003  22.115  0.00  0.00    +0.000 C 
ATOM     22  C   UNL     1      -0.243  10.716  22.717  0.00  0.00    +0.000 C 
ATOM     23  C   UNL     1      -1.170   9.509  22.628  0.00  0.00    +0.000 C 
ATOM     24  O   UNL     1       1.080  10.416  22.239  0.00  0.00    +0.000 OA
ENDROOT
TORSDOF 0
ENDMDL
MODEL 8
REMARK VINA RESULT:      -5.9      9.865     12.379
REMARK  Name = 
REMARK  2 active torsions:
REMARK  status: ('A' for Active; 'I' for Inactive)
REMARK    1  A    between atoms: C_1  and  C_2
REMARK    2  A    between atoms: C_22  and  C_23
REMARK                            x       y       z     vdW  Elec       q    Type
REMARK                         _______ _______ _______ _____ _____    ______ ____
ROOT
ATOM      1  C   UNL     1      12.333  11.885  19.884  0.00  0.00    +0.000 C 
ATOM      2  C   UNL     1      11.568  11.594  18.599  0.00  0.00    +0.000 C 
ATOM      3  C   UNL     1      10.053  11.402  18.810  0.00  0.00    +0.000 C 
ATOM      4  N   UNL     1       9.347  12.679  18.843  0.00  0.00    +0.000 N 
ATOM      5  C   UNL     1       8.784  13.150  20.002  0.00  0.00    +0.000 A 
ATOM      6  N   UNL     1       8.072  14.291  19.969  0.00  0.00    +0.000 NA
ATOM      7  C   UNL     1       7.465  14.704  21.096  0.00  0.00    +0.000 A 
ATOM      8  N   UNL     1       6.711  15.874  21.066  0.00  0.00    +0.000 N 
ATOM      9  C   UNL     1       6.945  16.857  20.003  0.00  0.00    +0.000 C 
ATOM     10  C   UNL     1       6.511  18.230  20.560  0.00  0.00    +0.000 C 
ATOM     11  O   UNL     1       5.137  18.227  21.005  0.00  0.00    +0.000 OA
ATOM     12  C   UNL     1       4.912  17.196  21.985  0.00  0.00    +0.000 C 
ATOM     13  C   UNL     1       5.280  15.813  21.418  0.00  0.00    +0.000 C 
ATOM     14  C   UNL     1       7.648  14.025  22.310  0.00  0.00    +0.000 A 
ATOM     15  C   UNL     1       7.177  14.442  23.582  0.00  0.00    +0.000 A 
ATOM     16  C   UNL     1       7.412  13.677  24.709  0.00  0.00    +0.000 A 
ATOM     17  C   UNL     1       8.146  12.528  24.533  0.00  0.00    +0.000 A 
ATOM     18  N   UNL     1       8.635  12.126  23.339  0.00  0.00    +0.000 NA
ATOM     19  C   UNL     1       8.405  12.861  22.245  0.00  0.00    +0.000 A 
ATOM     20  N   UNL     1       8.938  12.434  21.114  0.00  0.00    +0.000 NA
ATOM     21  C   UNL     1       9.617  13.557  17.714  0.00  0.00    +0.000 C 
ATOM     22  C   UNL     1      11.138  13.748  17.515  0.00  0.00    +0.000 C 
ATOM     23  C   UNL     1      11.739  14.811  18.428  0.00  0.00    +0.000 C 
ATOM     24  O   UNL     1      11.891  12.523  17.547  0.00  0.00    +0.000 OA
ENDROOT
TORSDOF 0
ENDMDL
MODEL 9
REMARK VINA RESULT:      -5.9      9.250     12.208
REMARK  Name = 
REMARK  2 active torsions:
REMARK  status: ('A' for Active; 'I' for Inactive)
REMARK    1  A    between atoms: C_1  and  C_2
REMARK    2  A    between atoms: C_22  and  C_23
REMARK                            x       y       z     vdW  Elec       q    Type
REMARK                         _______ _______ _______ _____ _____    ______ ____
ROOT
ATOM      1  C   UNL     1       8.779  12.789  17.390  0.00  0.00    +0.000 C 
ATOM      2  C   UNL     1      10.115  13.125  18.044  0.00  0.00    +0.000 C 
ATOM      3  C   UNL     1      10.010  14.182  19.161  0.00  0.00    +0.000 C 
ATOM      4  N   UNL     1       9.630  13.582  20.436  0.00  0.00    +0.000 N 
ATOM      5  C   UNL     1       8.401  13.821  20.997  0.00  0.00    +0.000 A 
ATOM      6  N   UNL     1       8.124  13.316  22.212  0.00  0.00    +0.000 NA
ATOM      7  C   UNL     1       6.943  13.617  22.781  0.00  0.00    +0.000 A 
ATOM      8  N   UNL     1       6.657  13.112  24.047  0.00  0.00    +0.000 N 
ATOM      9  C   UNL     1       7.386  11.939  24.539  0.00  0.00    +0.000 C 
ATOM     10  C   UNL     1       6.470  11.243  25.569  0.00  0.00    +0.000 C 
ATOM     11  O   UNL     1       6.083  12.131  26.640  0.00  0.00    +0.000 OA
ATOM     12  C   UNL     1       5.447  13.317  26.126  0.00  0.00    +0.000 C 
ATOM     13  C   UNL     1       6.377  14.055  25.147  0.00  0.00    +0.000 C 
ATOM     14  C   UNL     1       5.971  14.354  22.090  0.00  0.00    +0.000 A 
ATOM     15  C   UNL     1       4.647  14.612  22.528  0.00  0.00    +0.000 A 
ATOM     16  C   UNL     1       3.781  15.366  21.759  0.00  0.00    +0.000 A 
ATOM     17  C   UNL     1       4.259  15.813  20.550  0.00  0.00    +0.000 A 
ATOM     18  N   UNL     1       5.504  15.553  20.093  0.00  0.00    +0.000 NA
ATOM     19  C   UNL     1       6.348  14.828  20.838  0.00  0.00    +0.000 A 
ATOM     20  N   UNL     1       7.538  14.579  20.322  0.00  0.00    +0.000 NA
ATOM     21  C   UNL     1      10.452  12.455  20.851  0.00  0.00    +0.000 C 
ATOM     22  C   UNL     1      10.546  11.398  19.726  0.00  0.00    +0.000 C 
ATOM     23  C   UNL     1       9.349  10.453  19.683  0.00  0.00    +0.000 C 
ATOM     24  O   UNL     1      10.846  11.947  18.431  0.00  0.00    +0.000 OA
ENDROOT
TORSDOF 0
ENDMDL
