MODEL 1
REMARK VINA RESULT:      -8.7      0.000      0.000
REMARK  Name = 
REMARK  1 active torsions:
REMARK  status: ('A' for Active; 'I' for Inactive)
REMARK    1  A    between atoms: N_13  and  C_14
REMARK                            x       y       z     vdW  Elec       q    Type
REMARK                         _______ _______ _______ _____ _____    ______ ____
ROOT
ATOM      1  O   UNL     1       5.832   4.790  19.453  0.00  0.00    +0.000 OA
ATOM      2  C   UNL     1       5.110   4.044  18.803  0.00  0.00    +0.000 C 
ATOM      3  N   UNL     1       5.015   2.688  19.104  0.00  0.00    +0.000 N 
ATOM      4  C   UNL     1       4.444   2.362  20.414  0.00  0.00    +0.000 C 
ATOM      5  C   UNL     1       2.926   2.155  20.351  0.00  0.00    +0.000 C 
ATOM      6  O   UNL     1       2.299   2.769  21.475  0.00  0.00    +0.000 OA
ATOM      7  C   UNL     1       1.448   3.867  21.150  0.00  0.00    +0.000 C 
ATOM      8  C   UNL     1       2.220   5.055  20.583  0.00  0.00    +0.000 C 
ATOM      9  C   UNL     1       1.942   5.260  19.089  0.00  0.00    +0.000 C 
ATOM     10  N   UNL     1       2.833   6.253  18.488  0.00  0.00    +0.000 N 
ATOM     11  C   UNL     1       2.532   7.626  18.586  0.00  0.00    +0.000 C 
ATOM     12  O   UNL     1       3.162   8.471  17.941  0.00  0.00    +0.000 OA
ATOM     13  N   UNL     1       1.483   7.985  19.403  0.00  0.00    +0.000 N 
ATOM     14  C   UNL     1       3.706   5.774  17.369  0.00  0.00    +0.000 C 
ATOM     15  C   UNL     1       4.786   6.702  16.802  0.00  0.00    +0.000 C 
ATOM     16  C   UNL     1       5.445   5.834  15.745  0.00  0.00    +0.000 C 
ATOM     17  C   UNL     1       5.607   4.490  16.432  0.00  0.00    +0.000 C 
ATOM     18  C   UNL     1       4.461   4.404  17.476  0.00  0.00    +0.000 C 
ATOM     19  H   UNL     1       5.959   2.318  19.099  0.00  0.00    +0.000 HD
ATOM     20  H   UNL     1       1.132   7.288  20.024  0.00  0.00    +0.000 HD
ENDROOT
BRANCH  13  21
ATOM     21  C   UNL     1       0.989   9.288  19.646  0.00  0.00    +0.000 A 
ATOM     22  C   UNL     1       1.058   9.943  20.877  0.00  0.00    +0.000 A 
ATOM     23  C   UNL     1       0.500  11.206  21.051  0.00  0.00    +0.000 A 
ATOM     24  C   UNL     1      -0.135  11.847  19.986  0.00  0.00    +0.000 A 
ATOM     25  C   UNL     1      -0.172  11.230  18.742  0.00  0.00    +0.000 A 
ATOM     26  C   UNL     1       0.387   9.964  18.565  0.00  0.00    +0.000 A 
ENDBRANCH  13  21
TORSDOF 1
ENDMDL
MODEL 2
REMARK VINA RESULT:      -8.5      1.084      1.563
REMARK  Name = 
REMARK  1 active torsions:
REMARK  status: ('A' for Active; 'I' for Inactive)
REMARK    1  A    between atoms: N_13  and  C_14
REMARK                            x       y       z     vdW  Elec       q    Type
REMARK                         _______ _______ _______ _____ _____    ______ ____
ROOT
ATOM      1  O   UNL     1       5.731   5.171  19.608  0.00  0.00    +0.000 OA
ATOM      2  C   UNL     1       5.039   4.438  18.913  0.00  0.00    +0.000 C 
ATOM      3  N   UNL     1       5.155   3.052  18.987  0.00  0.00    +0.000 N 
ATOM      4  C   UNL     1       4.790   2.448  20.271  0.00  0.00    +0.000 C 
ATOM      5  C   UNL     1       3.314   2.035  20.319  0.00  0.00    +0.000 C 
ATOM      6  O   UNL     1       2.749   2.370  21.585  0.00  0.00    +0.000 OA
ATOM      7  C   UNL     1       1.733   3.368  21.533  0.00  0.00    +0.000 C 
ATOM      8  C   UNL     1       2.274   4.729  21.105  0.00  0.00    +0.000 C 
ATOM      9  C   UNL     1       1.798   5.120  19.701  0.00  0.00    +0.000 C 
ATOM     10  N   UNL     1       2.478   6.314  19.195  0.00  0.00    +0.000 N 
ATOM     11  C   UNL     1       2.016   7.596  19.552  0.00  0.00    +0.000 C 
ATOM     12  O   UNL     1       2.453   8.613  19.003  0.00  0.00    +0.000 OA
ATOM     13  N   UNL     1       1.034   7.668  20.515  0.00  0.00    +0.000 N 
ATOM     14  C   UNL     1       3.266   6.145  17.933  0.00  0.00    +0.000 C 
ATOM     15  C   UNL     1       4.145   7.297  17.431  0.00  0.00    +0.000 C 
ATOM     16  C   UNL     1       4.780   6.708  16.184  0.00  0.00    +0.000 C 
ATOM     17  C   UNL     1       5.192   5.313  16.615  0.00  0.00    +0.000 C 
ATOM     18  C   UNL     1       4.198   4.901  17.734  0.00  0.00    +0.000 C 
ATOM     19  H   UNL     1       6.132   2.829  18.830  0.00  0.00    +0.000 HD
ATOM     20  H   UNL     1       0.851   6.840  21.039  0.00  0.00    +0.000 HD
ENDROOT
BRANCH  13  21
ATOM     21  C   UNL     1       0.409   8.832  21.021  0.00  0.00    +0.000 A 
ATOM     22  C   UNL     1      -0.075   9.876  20.232  0.00  0.00    +0.000 A 
ATOM     23  C   UNL     1      -0.630  11.015  20.809  0.00  0.00    +0.000 A 
ATOM     24  C   UNL     1      -0.718  11.128  22.197  0.00  0.00    +0.000 A 
ATOM     25  C   UNL     1      -0.283  10.078  22.997  0.00  0.00    +0.000 A 
ATOM     26  C   UNL     1       0.273   8.936  22.421  0.00  0.00    +0.000 A 
ENDBRANCH  13  21
TORSDOF 1
ENDMDL
MODEL 3
REMARK VINA RESULT:      -8.2      1.886      3.913
REMARK  Name = 
REMARK  1 active torsions:
REMARK  status: ('A' for Active; 'I' for Inactive)
REMARK    1  A    between atoms: N_13  and  C_14
REMARK                            x       y       z     vdW  Elec       q    Type
REMARK                         _______ _______ _______ _____ _____    ______ ____
ROOT
ATOM      1  O   UNL     1       2.849   3.452  16.631  0.00  0.00    +0.000 OA
ATOM      2  C   UNL     1       3.883   3.249  17.256  0.00  0.00    +0.000 C 
ATOM      3  N   UNL     1       5.085   2.997  16.600  0.00  0.00    +0.000 N 
ATOM      4  C   UNL     1       5.607   4.093  15.779  0.00  0.00    +0.000 C 
ATOM      5  C   UNL     1       6.561   5.002  16.562  0.00  0.00    +0.000 C 
ATOM      6  O   UNL     1       6.312   6.369  16.243  0.00  0.00    +0.000 OA
ATOM      7  C   UNL     1       5.815   7.148  17.330  0.00  0.00    +0.000 C 
ATOM      8  C   UNL     1       4.422   6.710  17.772  0.00  0.00    +0.000 C 
ATOM      9  C   UNL     1       4.444   6.026  19.144  0.00  0.00    +0.000 C 
ATOM     10  N   UNL     1       3.158   5.413  19.481  0.00  0.00    +0.000 N 
ATOM     11  C   UNL     1       2.129   6.192  20.046  0.00  0.00    +0.000 C 
ATOM     12  O   UNL     1       1.106   5.672  20.503  0.00  0.00    +0.000 OA
ATOM     13  N   UNL     1       2.325   7.554  20.098  0.00  0.00    +0.000 N 
ATOM     14  C   UNL     1       3.167   3.933  19.713  0.00  0.00    +0.000 C 
ATOM     15  C   UNL     1       1.840   3.190  19.901  0.00  0.00    +0.000 C 
ATOM     16  C   UNL     1       2.290   1.749  20.062  0.00  0.00    +0.000 C 
ATOM     17  C   UNL     1       3.335   1.574  18.976  0.00  0.00    +0.000 C 
ATOM     18  C   UNL     1       3.954   2.979  18.750  0.00  0.00    +0.000 C 
ATOM     19  H   UNL     1       4.921   2.218  15.972  0.00  0.00    +0.000 HD
ATOM     20  H   UNL     1       3.079   7.925  19.562  0.00  0.00    +0.000 HD
ENDROOT
BRANCH  13  21
ATOM     21  C   UNL     1       1.448   8.530  20.629  0.00  0.00    +0.000 A 
ATOM     22  C   UNL     1       1.186   8.701  21.989  0.00  0.00    +0.000 A 
ATOM     23  C   UNL     1       0.268   9.649  22.429  0.00  0.00    +0.000 A 
ATOM     24  C   UNL     1      -0.405  10.457  21.510  0.00  0.00    +0.000 A 
ATOM     25  C   UNL     1      -0.123  10.331  20.156  0.00  0.00    +0.000 A 
ATOM     26  C   UNL     1       0.797   9.381  19.712  0.00  0.00    +0.000 A 
ENDBRANCH  13  21
TORSDOF 1
ENDMDL
MODEL 4
REMARK VINA RESULT:      -7.9      1.736      3.801
REMARK  Name = 
REMARK  1 active torsions:
REMARK  status: ('A' for Active; 'I' for Inactive)
REMARK    1  A    between atoms: N_13  and  C_14
REMARK                            x       y       z     vdW  Elec       q    Type
REMARK                         _______ _______ _______ _____ _____    ______ ____
ROOT
ATOM      1  O   UNL     1       2.106   3.330  17.571  0.00  0.00    +0.000 OA
ATOM      2  C   UNL     1       3.193   3.280  18.134  0.00  0.00    +0.000 C 
ATOM      3  N   UNL     1       4.332   2.840  17.465  0.00  0.00    +0.000 N 
ATOM      4  C   UNL     1       4.772   3.669  16.339  0.00  0.00    +0.000 C 
ATOM      5  C   UNL     1       5.789   4.735  16.765  0.00  0.00    +0.000 C 
ATOM      6  O   UNL     1       5.504   5.974  16.118  0.00  0.00    +0.000 OA
ATOM      7  C   UNL     1       5.104   7.022  16.998  0.00  0.00    +0.000 C 
ATOM      8  C   UNL     1       3.759   6.743  17.663  0.00  0.00    +0.000 C 
ATOM      9  C   UNL     1       3.908   6.447  19.160  0.00  0.00    +0.000 C 
ATOM     10  N   UNL     1       2.661   5.970  19.760  0.00  0.00    +0.000 N 
ATOM     11  C   UNL     1       1.684   6.890  20.186  0.00  0.00    +0.000 C 
ATOM     12  O   UNL     1       0.709   6.529  20.854  0.00  0.00    +0.000 OA
ATOM     13  N   UNL     1       1.876   8.214  19.858  0.00  0.00    +0.000 N 
ATOM     14  C   UNL     1       2.699   4.604  20.375  0.00  0.00    +0.000 C 
ATOM     15  C   UNL     1       1.397   3.962  20.869  0.00  0.00    +0.000 C 
ATOM     16  C   UNL     1       1.867   2.608  21.367  0.00  0.00    +0.000 C 
ATOM     17  C   UNL     1       2.811   2.131  20.279  0.00  0.00    +0.000 C 
ATOM     18  C   UNL     1       3.400   3.414  19.634  0.00  0.00    +0.000 C 
ATOM     19  H   UNL     1       4.116   1.926  17.083  0.00  0.00    +0.000 HD
ATOM     20  H   UNL     1       2.577   8.415  19.178  0.00  0.00    +0.000 HD
ENDROOT
BRANCH  13  21
ATOM     21  C   UNL     1       1.046   9.311  20.185  0.00  0.00    +0.000 A 
ATOM     22  C   UNL     1       0.880   9.819  21.475  0.00  0.00    +0.000 A 
ATOM     23  C   UNL     1       0.002  10.869  21.725  0.00  0.00    +0.000 A 
ATOM     24  C   UNL     1      -0.726  11.442  20.680  0.00  0.00    +0.000 A 
ATOM     25  C   UNL     1      -0.538  10.979  19.384  0.00  0.00    +0.000 A 
ATOM     26  C   UNL     1       0.342   9.927  19.130  0.00  0.00    +0.000 A 
ENDBRANCH  13  21
TORSDOF 1
ENDMDL
MODEL 5
REMARK VINA RESULT:      -7.2      2.462      6.505
REMARK  Name = 
REMARK  1 active torsions:
REMARK  status: ('A' for Active; 'I' for Inactive)
REMARK    1  A    between atoms: N_13  and  C_14
REMARK                            x       y       z     vdW  Elec       q    Type
REMARK                         _______ _______ _______ _____ _____    ______ ____
ROOT
ATOM      1  O   UNL     1       1.034   5.101  18.451  0.00  0.00    +0.000 OA
ATOM      2  C   UNL     1       1.760   5.311  19.415  0.00  0.00    +0.000 C 
ATOM      3  N   UNL     1       1.530   4.691  20.640  0.00  0.00    +0.000 N 
ATOM      4  C   UNL     1       1.664   3.232  20.653  0.00  0.00    +0.000 C 
ATOM      5  C   UNL     1       3.083   2.782  21.022  0.00  0.00    +0.000 C 
ATOM      6  O   UNL     1       3.487   1.695  20.192  0.00  0.00    +0.000 OA
ATOM      7  C   UNL     1       4.573   1.991  19.317  0.00  0.00    +0.000 C 
ATOM      8  C   UNL     1       4.202   3.024  18.256  0.00  0.00    +0.000 C 
ATOM      9  C   UNL     1       4.900   4.368  18.496  0.00  0.00    +0.000 C 
ATOM     10  N   UNL     1       4.391   5.423  17.618  0.00  0.00    +0.000 N 
ATOM     11  C   UNL     1       4.893   5.559  16.309  0.00  0.00    +0.000 C 
ATOM     12  O   UNL     1       4.616   6.541  15.612  0.00  0.00    +0.000 OA
ATOM     13  N   UNL     1       5.732   4.568  15.849  0.00  0.00    +0.000 N 
ATOM     14  C   UNL     1       3.778   6.611  18.293  0.00  0.00    +0.000 C 
ATOM     15  C   UNL     1       3.069   7.677  17.450  0.00  0.00    +0.000 C 
ATOM     16  C   UNL     1       2.573   8.653  18.502  0.00  0.00    +0.000 C 
ATOM     17  C   UNL     1       1.999   7.757  19.584  0.00  0.00    +0.000 C 
ATOM     18  C   UNL     1       2.792   6.425  19.497  0.00  0.00    +0.000 C 
ATOM     19  H   UNL     1       0.572   4.895  20.899  0.00  0.00    +0.000 HD
ATOM     20  H   UNL     1       5.776   3.727  16.382  0.00  0.00    +0.000 HD
ENDROOT
BRANCH  13  21
ATOM     21  C   UNL     1       6.365   4.495  14.586  0.00  0.00    +0.000 A 
ATOM     22  C   UNL     1       7.505   5.217  14.230  0.00  0.00    +0.000 A 
ATOM     23  C   UNL     1       8.038   5.131  12.947  0.00  0.00    +0.000 A 
ATOM     24  C   UNL     1       7.441   4.308  11.991  0.00  0.00    +0.000 A 
ATOM     25  C   UNL     1       6.333   3.547  12.342  0.00  0.00    +0.000 A 
ATOM     26  C   UNL     1       5.797   3.631  13.627  0.00  0.00    +0.000 A 
ENDBRANCH  13  21
TORSDOF 1
ENDMDL
MODEL 6
REMARK VINA RESULT:      -7.1      8.122     11.606
REMARK  Name = 
REMARK  1 active torsions:
REMARK  status: ('A' for Active; 'I' for Inactive)
REMARK    1  A    between atoms: N_13  and  C_14
REMARK                            x       y       z     vdW  Elec       q    Type
REMARK                         _______ _______ _______ _____ _____    ______ ____
ROOT
ATOM      1  O   UNL     1      -4.438  12.204  24.230  0.00  0.00    +0.000 OA
ATOM      2  C   UNL     1      -4.681  13.393  24.059  0.00  0.00    +0.000 C 
ATOM      3  N   UNL     1      -4.154  14.365  24.904  0.00  0.00    +0.000 N 
ATOM      4  C   UNL     1      -2.694  14.497  24.897  0.00  0.00    +0.000 C 
ATOM      5  C   UNL     1      -2.210  15.536  23.878  0.00  0.00    +0.000 C 
ATOM      6  O   UNL     1      -1.054  15.055  23.196  0.00  0.00    +0.000 OA
ATOM      7  C   UNL     1      -1.244  14.821  21.802  0.00  0.00    +0.000 C 
ATOM      8  C   UNL     1      -2.219  13.679  21.531  0.00  0.00    +0.000 C 
ATOM      9  C   UNL     1      -3.544  14.183  20.948  0.00  0.00    +0.000 C 
ATOM     10  N   UNL     1      -4.560  13.130  20.885  0.00  0.00    +0.000 N 
ATOM     11  C   UNL     1      -4.586  12.236  19.796  0.00  0.00    +0.000 C 
ATOM     12  O   UNL     1      -5.530  11.458  19.624  0.00  0.00    +0.000 OA
ATOM     13  N   UNL     1      -3.532  12.288  18.910  0.00  0.00    +0.000 N 
ATOM     14  C   UNL     1      -5.816  13.369  21.665  0.00  0.00    +0.000 C 
ATOM     15  C   UNL     1      -6.852  12.247  21.791  0.00  0.00    +0.000 C 
ATOM     16  C   UNL     1      -7.917  12.879  22.670  0.00  0.00    +0.000 C 
ATOM     17  C   UNL     1      -7.120  13.568  23.763  0.00  0.00    +0.000 C 
ATOM     18  C   UNL     1      -5.752  13.934  23.126  0.00  0.00    +0.000 C 
ATOM     19  H   UNL     1      -4.416  14.109  25.849  0.00  0.00    +0.000 HD
ATOM     20  H   UNL     1      -2.727  12.804  19.194  0.00  0.00    +0.000 HD
ENDROOT
BRANCH  13  21
ATOM     21  C   UNL     1      -3.348  11.508  17.745  0.00  0.00    +0.000 A 
ATOM     22  C   UNL     1      -4.158  11.576  16.611  0.00  0.00    +0.000 A 
ATOM     23  C   UNL     1      -3.944  10.735  15.524  0.00  0.00    +0.000 A 
ATOM     24  C   UNL     1      -2.901   9.808  15.546  0.00  0.00    +0.000 A 
ATOM     25  C   UNL     1      -2.057   9.757  16.648  0.00  0.00    +0.000 A 
ATOM     26  C   UNL     1      -2.269  10.599  17.739  0.00  0.00    +0.000 A 
ENDBRANCH  13  21
TORSDOF 1
ENDMDL
MODEL 7
REMARK VINA RESULT:      -6.8      2.429      6.502
REMARK  Name = 
REMARK  1 active torsions:
REMARK  status: ('A' for Active; 'I' for Inactive)
REMARK    1  A    between atoms: N_13  and  C_14
REMARK                            x       y       z     vdW  Elec       q    Type
REMARK                         _______ _______ _______ _____ _____    ______ ____
ROOT
ATOM      1  O   UNL     1       1.027   4.917  18.695  0.00  0.00    +0.000 OA
ATOM      2  C   UNL     1       1.796   5.136  19.624  0.00  0.00    +0.000 C 
ATOM      3  N   UNL     1       1.637   4.506  20.855  0.00  0.00    +0.000 N 
ATOM      4  C   UNL     1       1.798   3.049  20.853  0.00  0.00    +0.000 C 
ATOM      5  C   UNL     1       3.241   2.623  21.150  0.00  0.00    +0.000 C 
ATOM      6  O   UNL     1       3.623   1.548  20.294  0.00  0.00    +0.000 OA
ATOM      7  C   UNL     1       4.660   1.868  19.369  0.00  0.00    +0.000 C 
ATOM      8  C   UNL     1       4.219   2.899  18.334  0.00  0.00    +0.000 C 
ATOM      9  C   UNL     1       4.903   4.255  18.546  0.00  0.00    +0.000 C 
ATOM     10  N   UNL     1       4.333   5.305  17.701  0.00  0.00    +0.000 N 
ATOM     11  C   UNL     1       4.767   5.456  16.370  0.00  0.00    +0.000 C 
ATOM     12  O   UNL     1       4.439   6.436  15.693  0.00  0.00    +0.000 OA
ATOM     13  N   UNL     1       5.601   4.483  15.863  0.00  0.00    +0.000 N 
ATOM     14  C   UNL     1       3.732   6.478  18.412  0.00  0.00    +0.000 C 
ATOM     15  C   UNL     1       2.963   7.535  17.611  0.00  0.00    +0.000 C 
ATOM     16  C   UNL     1       2.503   8.497  18.691  0.00  0.00    +0.000 C 
ATOM     17  C   UNL     1       1.999   7.584  19.795  0.00  0.00    +0.000 C 
ATOM     18  C   UNL     1       2.810   6.268  19.662  0.00  0.00    +0.000 C 
ATOM     19  H   UNL     1       0.689   4.691  21.162  0.00  0.00    +0.000 HD
ATOM     20  H   UNL     1       5.686   3.640  16.389  0.00  0.00    +0.000 HD
ENDROOT
BRANCH  13  21
ATOM     21  C   UNL     1       6.172   4.428  14.570  0.00  0.00    +0.000 A 
ATOM     22  C   UNL     1       5.703   3.621  13.532  0.00  0.00    +0.000 A 
ATOM     23  C   UNL     1       6.353   3.582  12.303  0.00  0.00    +0.000 A 
ATOM     24  C   UNL     1       7.490   4.362  12.084  0.00  0.00    +0.000 A 
ATOM     25  C   UNL     1       7.944   5.204  13.090  0.00  0.00    +0.000 A 
ATOM     26  C   UNL     1       7.294   5.246  14.323  0.00  0.00    +0.000 A 
ENDBRANCH  13  21
TORSDOF 1
ENDMDL
MODEL 8
REMARK VINA RESULT:      -6.8      1.782      3.812
REMARK  Name = 
REMARK  1 active torsions:
REMARK  status: ('A' for Active; 'I' for Inactive)
REMARK    1  A    between atoms: N_13  and  C_14
REMARK                            x       y       z     vdW  Elec       q    Type
REMARK                         _______ _______ _______ _____ _____    ______ ____
ROOT
ATOM      1  O   UNL     1       2.432   3.408  17.625  0.00  0.00    +0.000 OA
ATOM      2  C   UNL     1       3.531   3.516  18.156  0.00  0.00    +0.000 C 
ATOM      3  N   UNL     1       4.660   2.914  17.607  0.00  0.00    +0.000 N 
ATOM      4  C   UNL     1       5.070   3.404  16.289  0.00  0.00    +0.000 C 
ATOM      5  C   UNL     1       6.086   4.548  16.385  0.00  0.00    +0.000 C 
ATOM      6  O   UNL     1       5.778   5.562  15.430  0.00  0.00    +0.000 OA
ATOM      7  C   UNL     1       5.387   6.810  15.999  0.00  0.00    +0.000 C 
ATOM      8  C   UNL     1       4.058   6.720  16.744  0.00  0.00    +0.000 C 
ATOM      9  C   UNL     1       4.241   6.845  18.261  0.00  0.00    +0.000 C 
ATOM     10  N   UNL     1       3.010   6.547  18.996  0.00  0.00    +0.000 N 
ATOM     11  C   UNL     1       2.034   7.546  19.176  0.00  0.00    +0.000 C 
ATOM     12  O   UNL     1       1.076   7.380  19.938  0.00  0.00    +0.000 OA
ATOM     13  N   UNL     1       2.208   8.730  18.494  0.00  0.00    +0.000 N 
ATOM     14  C   UNL     1       3.072   5.402  19.960  0.00  0.00    +0.000 C 
ATOM     15  C   UNL     1       1.786   4.916  20.640  0.00  0.00    +0.000 C 
ATOM     16  C   UNL     1       2.278   3.751  21.478  0.00  0.00    +0.000 C 
ATOM     17  C   UNL     1       3.204   2.997  20.541  0.00  0.00    +0.000 C 
ATOM     18  C   UNL     1       3.768   4.057  19.557  0.00  0.00    +0.000 C 
ATOM     19  H   UNL     1       4.444   1.929  17.495  0.00  0.00    +0.000 HD
ATOM     20  H   UNL     1       2.893   8.739  17.770  0.00  0.00    +0.000 HD
ENDROOT
BRANCH  13  21
ATOM     21  C   UNL     1       1.376   9.873  18.528  0.00  0.00    +0.000 A 
ATOM     22  C   UNL     1       1.792  11.143  18.932  0.00  0.00    +0.000 A 
ATOM     23  C   UNL     1       0.898  12.207  18.989  0.00  0.00    +0.000 A 
ATOM     24  C   UNL     1      -0.439  12.023  18.632  0.00  0.00    +0.000 A 
ATOM     25  C   UNL     1      -0.860  10.778  18.183  0.00  0.00    +0.000 A 
ATOM     26  C   UNL     1       0.035   9.709  18.125  0.00  0.00    +0.000 A 
ENDBRANCH  13  21
TORSDOF 1
ENDMDL
MODEL 9
REMARK VINA RESULT:      -6.7      6.405     10.872
REMARK  Name = 
REMARK  1 active torsions:
REMARK  status: ('A' for Active; 'I' for Inactive)
REMARK    1  A    between atoms: N_13  and  C_14
REMARK                            x       y       z     vdW  Elec       q    Type
REMARK                         _______ _______ _______ _____ _____    ______ ____
ROOT
ATOM      1  O   UNL     1      -6.805  10.944  21.064  0.00  0.00    +0.000 OA
ATOM      2  C   UNL     1      -6.914  12.163  21.112  0.00  0.00    +0.000 C 
ATOM      3  N   UNL     1      -7.564  12.788  22.173  0.00  0.00    +0.000 N 
ATOM      4  C   UNL     1      -6.937  12.631  23.488  0.00  0.00    +0.000 C 
ATOM      5  C   UNL     1      -5.954  13.765  23.803  0.00  0.00    +0.000 C 
ATOM      6  O   UNL     1      -4.779  13.242  24.419  0.00  0.00    +0.000 OA
ATOM      7  C   UNL     1      -3.591  13.385  23.643  0.00  0.00    +0.000 C 
ATOM      8  C   UNL     1      -3.626  12.551  22.366  0.00  0.00    +0.000 C 
ATOM      9  C   UNL     1      -3.752  13.426  21.113  0.00  0.00    +0.000 C 
ATOM     10  N   UNL     1      -4.002  12.636  19.905  0.00  0.00    +0.000 N 
ATOM     11  C   UNL     1      -2.928  12.047  19.211  0.00  0.00    +0.000 C 
ATOM     12  O   UNL     1      -3.086  11.530  18.100  0.00  0.00    +0.000 OA
ATOM     13  N   UNL     1      -1.686  12.099  19.805  0.00  0.00    +0.000 N 
ATOM     14  C   UNL     1      -5.276  12.925  19.174  0.00  0.00    +0.000 C 
ATOM     15  C   UNL     1      -5.695  12.028  18.002  0.00  0.00    +0.000 C 
ATOM     16  C   UNL     1      -7.025  12.631  17.586  0.00  0.00    +0.000 C 
ATOM     17  C   UNL     1      -7.739  12.874  18.903  0.00  0.00    +0.000 C 
ATOM     18  C   UNL     1      -6.622  13.107  19.956  0.00  0.00    +0.000 C 
ATOM     19  H   UNL     1      -8.486  12.373  22.241  0.00  0.00    +0.000 HD
ATOM     20  H   UNL     1      -1.654  12.367  20.764  0.00  0.00    +0.000 HD
ENDROOT
BRANCH  13  21
ATOM     21  C   UNL     1      -0.467  11.594  19.296  0.00  0.00    +0.000 A 
ATOM     22  C   UNL     1       0.636  12.381  18.959  0.00  0.00    +0.000 A 
ATOM     23  C   UNL     1       1.783  11.813  18.413  0.00  0.00    +0.000 A 
ATOM     24  C   UNL     1       1.853  10.435  18.199  0.00  0.00    +0.000 A 
ATOM     25  C   UNL     1       0.782   9.632  18.571  0.00  0.00    +0.000 A 
ATOM     26  C   UNL     1      -0.368  10.198  19.119  0.00  0.00    +0.000 A 
ENDBRANCH  13  21
TORSDOF 1
ENDMDL
