MODEL 1
REMARK VINA RESULT:      -8.6      0.000      0.000
REMARK  Name = 
REMARK  5 active torsions:
REMARK  status: ('A' for Active; 'I' for Inactive)
REMARK    1  A    between atoms: C_2  and  C_15
REMARK    2  A    between atoms: N_3  and  C_4
REMARK    3  A    between atoms: C_4  and  C_5
REMARK    4  A    between atoms: C_9  and  C_10
REMARK    5  A    between atoms: N_23  and  C_24
REMARK                            x       y       z     vdW  Elec       q    Type
REMARK                         _______ _______ _______ _____ _____    ______ ____
ROOT
ATOM      1  C   UNL     1       0.441  10.012  18.420  0.00  0.00    +0.000 A 
ATOM      2  N   UNL     1      -0.597   9.746  17.570  0.00  0.00    +0.000 NA
ATOM      3  C   UNL     1      -1.827  10.199  17.897  0.00  0.00    +0.000 A 
ATOM      4  C   UNL     1      -2.136  10.917  19.046  0.00  0.00    +0.000 A 
ATOM      5  C   UNL     1      -1.064  11.172  19.911  0.00  0.00    +0.000 A 
ATOM      6  C   UNL     1       0.228  10.746  19.594  0.00  0.00    +0.000 A 
ATOM      7  C   UNL     1       1.032  11.257  20.630  0.00  0.00    +0.000 A 
ATOM      8  N   UNL     1       0.347  12.003  21.496  0.00  0.00    +0.000 NA
ATOM      9  N   UNL     1      -0.946  11.880  21.104  0.00  0.00    +0.000 N 
ENDROOT
BRANCH   9  10
ATOM     10  C   UNL     1      -1.971  12.475  21.889  0.00  0.00    +0.000 A 
ATOM     11  C   UNL     1      -2.522  13.699  21.474  0.00  0.00    +0.000 A 
ATOM     12  C   UNL     1      -3.545  14.291  22.217  0.00  0.00    +0.000 A 
ATOM     13  C   UNL     1      -3.981  13.682  23.387  0.00  0.00    +0.000 A 
ATOM     14  F   UNL     1      -4.950  14.260  24.110  0.00  0.00    +0.000 F 
ATOM     15  C   UNL     1      -3.420  12.489  23.827  0.00  0.00    +0.000 A 
ATOM     16  C   UNL     1      -2.416  11.875  23.075  0.00  0.00    +0.000 A 
ENDBRANCH   9  10
BRANCH   1  18
ATOM     17  O   UNL     1       2.626  10.311  17.554  0.00  0.00    +0.000 OA
ATOM     18  C   UNL     1       1.799   9.538  18.033  0.00  0.00    +0.000 C 
ATOM     19  N   UNL     1       2.044   8.200  18.242  0.00  0.00    +0.000 N 
ATOM     20  H   UNL     1       1.267   7.632  18.568  0.00  0.00    +0.000 HD
BRANCH  19  21
ATOM     21  C   UNL     1       3.285   7.580  17.841  0.00  0.00    +0.000 C 
BRANCH  21  22
ATOM     22  C   UNL     1       3.206   6.077  17.930  0.00  0.00    +0.000 A 
ATOM     23  C   UNL     1       4.054   5.279  17.149  0.00  0.00    +0.000 A 
ATOM     24  C   UNL     1       3.965   3.888  17.194  0.00  0.00    +0.000 A 
ATOM     25  C   UNL     1       3.022   3.276  18.017  0.00  0.00    +0.000 A 
ATOM     26  C   UNL     1       2.158   4.049  18.806  0.00  0.00    +0.000 A 
ATOM     27  C   UNL     1       2.261   5.451  18.757  0.00  0.00    +0.000 A 
BRANCH  26  28
ATOM     28  C   UNL     1       1.126   3.398  19.692  0.00  0.00    +0.000 C 
ATOM     29  F   UNL     1       0.230   2.627  19.015  0.00  0.00    +0.000 F 
ATOM     30  F   UNL     1       1.682   2.583  20.632  0.00  0.00    +0.000 F 
ATOM     31  F   UNL     1       0.384   4.310  20.383  0.00  0.00    +0.000 F 
ENDBRANCH  26  28
ENDBRANCH  21  22
ENDBRANCH  19  21
ENDBRANCH   1  18
TORSDOF 5
ENDMDL
MODEL 2
REMARK VINA RESULT:      -8.5      1.172      1.587
REMARK  Name = 
REMARK  5 active torsions:
REMARK  status: ('A' for Active; 'I' for Inactive)
REMARK    1  A    between atoms: C_2  and  C_15
REMARK    2  A    between atoms: N_3  and  C_4
REMARK    3  A    between atoms: C_4  and  C_5
REMARK    4  A    between atoms: C_9  and  C_10
REMARK    5  A    between atoms: N_23  and  C_24
REMARK                            x       y       z     vdW  Elec       q    Type
REMARK                         _______ _______ _______ _____ _____    ______ ____
ROOT
ATOM      1  C   UNL     1       0.197  10.025  18.610  0.00  0.00    +0.000 A 
ATOM      2  N   UNL     1      -0.788  10.078  17.663  0.00  0.00    +0.000 NA
ATOM      3  C   UNL     1      -1.908  10.781  17.940  0.00  0.00    +0.000 A 
ATOM      4  C   UNL     1      -2.154  11.459  19.128  0.00  0.00    +0.000 A 
ATOM      5  C   UNL     1      -1.140  11.385  20.092  0.00  0.00    +0.000 A 
ATOM      6  C   UNL     1       0.045  10.693  19.831  0.00  0.00    +0.000 A 
ATOM      7  C   UNL     1       0.841  10.917  20.971  0.00  0.00    +0.000 A 
ATOM      8  N   UNL     1       0.265  11.733  21.853  0.00  0.00    +0.000 NA
ATOM      9  N   UNL     1      -0.979  11.950  21.354  0.00  0.00    +0.000 N 
ENDROOT
BRANCH   9  10
ATOM     10  C   UNL     1      -1.912  12.705  22.115  0.00  0.00    +0.000 A 
ATOM     11  C   UNL     1      -2.640  12.063  23.130  0.00  0.00    +0.000 A 
ATOM     12  C   UNL     1      -3.546  12.789  23.906  0.00  0.00    +0.000 A 
ATOM     13  C   UNL     1      -3.750  14.137  23.636  0.00  0.00    +0.000 A 
ATOM     14  F   UNL     1      -4.632  14.830  24.368  0.00  0.00    +0.000 F 
ATOM     15  C   UNL     1      -3.063  14.776  22.611  0.00  0.00    +0.000 A 
ATOM     16  C   UNL     1      -2.133  14.064  21.849  0.00  0.00    +0.000 A 
ENDBRANCH   9  10
BRANCH   1  18
ATOM     17  O   UNL     1       2.186   9.652  17.378  0.00  0.00    +0.000 OA
ATOM     18  C   UNL     1       1.441   9.276  18.281  0.00  0.00    +0.000 C 
ATOM     19  N   UNL     1       1.680   8.155  19.042  0.00  0.00    +0.000 N 
ATOM     20  H   UNL     1       0.963   7.886  19.709  0.00  0.00    +0.000 HD
BRANCH  19  21
ATOM     21  C   UNL     1       2.804   7.284  18.786  0.00  0.00    +0.000 C 
BRANCH  21  22
ATOM     22  C   UNL     1       2.413   5.832  18.896  0.00  0.00    +0.000 A 
ATOM     23  C   UNL     1       1.922   5.148  17.775  0.00  0.00    +0.000 A 
ATOM     24  C   UNL     1       1.522   3.815  17.872  0.00  0.00    +0.000 A 
ATOM     25  C   UNL     1       1.602   3.150  19.094  0.00  0.00    +0.000 A 
ATOM     26  C   UNL     1       2.086   3.811  20.233  0.00  0.00    +0.000 A 
ATOM     27  C   UNL     1       2.492   5.153  20.122  0.00  0.00    +0.000 A 
BRANCH  26  28
ATOM     28  C   UNL     1       2.168   3.105  21.563  0.00  0.00    +0.000 C 
ATOM     29  F   UNL     1       1.037   2.418  21.889  0.00  0.00    +0.000 F 
ATOM     30  F   UNL     1       3.182   2.197  21.612  0.00  0.00    +0.000 F 
ATOM     31  F   UNL     1       2.389   3.967  22.596  0.00  0.00    +0.000 F 
ENDBRANCH  26  28
ENDBRANCH  21  22
ENDBRANCH  19  21
ENDBRANCH   1  18
TORSDOF 5
ENDMDL
MODEL 3
REMARK VINA RESULT:      -8.5      1.539      1.886
REMARK  Name = 
REMARK  5 active torsions:
REMARK  status: ('A' for Active; 'I' for Inactive)
REMARK    1  A    between atoms: C_2  and  C_15
REMARK    2  A    between atoms: N_3  and  C_4
REMARK    3  A    between atoms: C_4  and  C_5
REMARK    4  A    between atoms: C_9  and  C_10
REMARK    5  A    between atoms: N_23  and  C_24
REMARK                            x       y       z     vdW  Elec       q    Type
REMARK                         _______ _______ _______ _____ _____    ______ ____
ROOT
ATOM      1  C   UNL     1       0.781   9.302  20.323  0.00  0.00    +0.000 A 
ATOM      2  N   UNL     1       0.683   8.324  21.275  0.00  0.00    +0.000 NA
ATOM      3  C   UNL     1       0.035   8.611  22.425  0.00  0.00    +0.000 A 
ATOM      4  C   UNL     1      -0.542   9.836  22.735  0.00  0.00    +0.000 A 
ATOM      5  C   UNL     1      -0.424  10.830  21.754  0.00  0.00    +0.000 A 
ATOM      6  C   UNL     1       0.212  10.563  20.540  0.00  0.00    +0.000 A 
ATOM      7  C   UNL     1       0.054  11.746  19.793  0.00  0.00    +0.000 A 
ATOM      8  N   UNL     1      -0.675  12.664  20.425  0.00  0.00    +0.000 NA
ATOM      9  N   UNL     1      -0.895  12.136  21.657  0.00  0.00    +0.000 N 
ENDROOT
BRANCH   9  10
ATOM     10  C   UNL     1      -1.563  12.916  22.639  0.00  0.00    +0.000 A 
ATOM     11  C   UNL     1      -0.909  14.035  23.179  0.00  0.00    +0.000 A 
ATOM     12  C   UNL     1      -1.554  14.829  24.130  0.00  0.00    +0.000 A 
ATOM     13  C   UNL     1      -2.826  14.477  24.565  0.00  0.00    +0.000 A 
ATOM     14  F   UNL     1      -3.438  15.228  25.490  0.00  0.00    +0.000 F 
ATOM     15  C   UNL     1      -3.470  13.351  24.065  0.00  0.00    +0.000 A 
ATOM     16  C   UNL     1      -2.843  12.568  23.093  0.00  0.00    +0.000 A 
ENDBRANCH   9  10
BRANCH   1  18
ATOM     17  O   UNL     1       1.237   9.600  18.018  0.00  0.00    +0.000 OA
ATOM     18  C   UNL     1       1.466   8.965  19.045  0.00  0.00    +0.000 C 
ATOM     19  N   UNL     1       2.347   7.909  19.102  0.00  0.00    +0.000 N 
ATOM     20  H   UNL     1       2.404   7.400  19.980  0.00  0.00    +0.000 HD
BRANCH  19  21
ATOM     21  C   UNL     1       3.024   7.416  17.926  0.00  0.00    +0.000 C 
BRANCH  21  22
ATOM     22  C   UNL     1       3.066   5.908  17.904  0.00  0.00    +0.000 A 
ATOM     23  C   UNL     1       4.013   5.241  17.114  0.00  0.00    +0.000 A 
ATOM     24  C   UNL     1       4.038   3.848  17.055  0.00  0.00    +0.000 A 
ATOM     25  C   UNL     1       3.110   3.103  17.781  0.00  0.00    +0.000 A 
ATOM     26  C   UNL     1       2.150   3.744  18.577  0.00  0.00    +0.000 A 
ATOM     27  C   UNL     1       2.138   5.149  18.633  0.00  0.00    +0.000 A 
BRANCH  26  28
ATOM     28  C   UNL     1       1.134   2.948  19.359  0.00  0.00    +0.000 C 
ATOM     29  F   UNL     1       0.243   2.278  18.576  0.00  0.00    +0.000 F 
ATOM     30  F   UNL     1       1.710   2.008  20.158  0.00  0.00    +0.000 F 
ATOM     31  F   UNL     1       0.386   3.732  20.186  0.00  0.00    +0.000 F 
ENDBRANCH  26  28
ENDBRANCH  21  22
ENDBRANCH  19  21
ENDBRANCH   1  18
TORSDOF 5
ENDMDL
MODEL 4
REMARK VINA RESULT:      -8.4      1.352      1.867
REMARK  Name = 
REMARK  5 active torsions:
REMARK  status: ('A' for Active; 'I' for Inactive)
REMARK    1  A    between atoms: C_2  and  C_15
REMARK    2  A    between atoms: N_3  and  C_4
REMARK    3  A    between atoms: C_4  and  C_5
REMARK    4  A    between atoms: C_9  and  C_10
REMARK    5  A    between atoms: N_23  and  C_24
REMARK                            x       y       z     vdW  Elec       q    Type
REMARK                         _______ _______ _______ _____ _____    ______ ____
ROOT
ATOM      1  C   UNL     1       0.997   9.269  20.124  0.00  0.00    +0.000 A 
ATOM      2  N   UNL     1       1.259   8.514  21.235  0.00  0.00    +0.000 NA
ATOM      3  C   UNL     1       0.708   8.889  22.411  0.00  0.00    +0.000 A 
ATOM      4  C   UNL     1      -0.107   9.998  22.594  0.00  0.00    +0.000 A 
ATOM      5  C   UNL     1      -0.357  10.767  21.450  0.00  0.00    +0.000 A 
ATOM      6  C   UNL     1       0.170  10.395  20.211  0.00  0.00    +0.000 A 
ATOM      7  C   UNL     1      -0.363  11.333  19.306  0.00  0.00    +0.000 A 
ATOM      8  N   UNL     1      -1.210  12.185  19.883  0.00  0.00    +0.000 NA
ATOM      9  N   UNL     1      -1.140  11.891  21.206  0.00  0.00    +0.000 N 
ENDROOT
BRANCH   9  10
ATOM     10  C   UNL     1      -1.851  12.697  22.136  0.00  0.00    +0.000 A 
ATOM     11  C   UNL     1      -3.256  12.691  22.106  0.00  0.00    +0.000 A 
ATOM     12  C   UNL     1      -3.977  13.457  23.025  0.00  0.00    +0.000 A 
ATOM     13  C   UNL     1      -3.294  14.255  23.935  0.00  0.00    +0.000 A 
ATOM     14  F   UNL     1      -3.985  15.004  24.804  0.00  0.00    +0.000 F 
ATOM     15  C   UNL     1      -1.905  14.297  23.952  0.00  0.00    +0.000 A 
ATOM     16  C   UNL     1      -1.175  13.512  23.056  0.00  0.00    +0.000 A 
ENDBRANCH   9  10
BRANCH   1  18
ATOM     17  O   UNL     1       1.208   9.321  17.765  0.00  0.00    +0.000 OA
ATOM     18  C   UNL     1       1.581   8.827  18.828  0.00  0.00    +0.000 C 
ATOM     19  N   UNL     1       2.539   7.843  18.910  0.00  0.00    +0.000 N 
ATOM     20  H   UNL     1       2.717   7.445  19.828  0.00  0.00    +0.000 HD
BRANCH  19  21
ATOM     21  C   UNL     1       3.135   7.258  17.733  0.00  0.00    +0.000 C 
BRANCH  21  22
ATOM     22  C   UNL     1       3.153   5.752  17.812  0.00  0.00    +0.000 A 
ATOM     23  C   UNL     1       4.121   5.021  17.108  0.00  0.00    +0.000 A 
ATOM     24  C   UNL     1       4.125   3.626  17.143  0.00  0.00    +0.000 A 
ATOM     25  C   UNL     1       3.156   2.944  17.877  0.00  0.00    +0.000 A 
ATOM     26  C   UNL     1       2.174   3.650  18.587  0.00  0.00    +0.000 A 
ATOM     27  C   UNL     1       2.184   5.056  18.550  0.00  0.00    +0.000 A 
BRANCH  26  28
ATOM     28  C   UNL     1       1.115   2.923  19.377  0.00  0.00    +0.000 C 
ATOM     29  F   UNL     1       0.236   2.226  18.603  0.00  0.00    +0.000 F 
ATOM     30  F   UNL     1       1.641   2.018  20.249  0.00  0.00    +0.000 F 
ATOM     31  F   UNL     1       0.356   3.768  20.131  0.00  0.00    +0.000 F 
ENDBRANCH  26  28
ENDBRANCH  21  22
ENDBRANCH  19  21
ENDBRANCH   1  18
TORSDOF 5
ENDMDL
MODEL 5
REMARK VINA RESULT:      -8.4      1.375      2.089
REMARK  Name = 
REMARK  5 active torsions:
REMARK  status: ('A' for Active; 'I' for Inactive)
REMARK    1  A    between atoms: C_2  and  C_15
REMARK    2  A    between atoms: N_3  and  C_4
REMARK    3  A    between atoms: C_4  and  C_5
REMARK    4  A    between atoms: C_9  and  C_10
REMARK    5  A    between atoms: N_23  and  C_24
REMARK                            x       y       z     vdW  Elec       q    Type
REMARK                         _______ _______ _______ _____ _____    ______ ____
ROOT
ATOM      1  C   UNL     1       0.186  10.054  18.667  0.00  0.00    +0.000 A 
ATOM      2  N   UNL     1      -0.815  10.095  17.735  0.00  0.00    +0.000 NA
ATOM      3  C   UNL     1      -1.932  10.800  18.024  0.00  0.00    +0.000 A 
ATOM      4  C   UNL     1      -2.159  11.489  19.208  0.00  0.00    +0.000 A 
ATOM      5  C   UNL     1      -1.129  11.428  20.156  0.00  0.00    +0.000 A 
ATOM      6  C   UNL     1       0.053  10.735  19.883  0.00  0.00    +0.000 A 
ATOM      7  C   UNL     1       0.867  10.973  21.006  0.00  0.00    +0.000 A 
ATOM      8  N   UNL     1       0.305  11.797  21.889  0.00  0.00    +0.000 NA
ATOM      9  N   UNL     1      -0.948  12.006  21.409  0.00  0.00    +0.000 N 
ENDROOT
BRANCH   9  10
ATOM     10  C   UNL     1      -1.869  12.769  22.177  0.00  0.00    +0.000 A 
ATOM     11  C   UNL     1      -2.678  12.110  23.118  0.00  0.00    +0.000 A 
ATOM     12  C   UNL     1      -3.575  12.841  23.900  0.00  0.00    +0.000 A 
ATOM     13  C   UNL     1      -3.689  14.213  23.708  0.00  0.00    +0.000 A 
ATOM     14  F   UNL     1      -4.562  14.911  24.446  0.00  0.00    +0.000 F 
ATOM     15  C   UNL     1      -2.920  14.871  22.756  0.00  0.00    +0.000 A 
ATOM     16  C   UNL     1      -1.999  14.152  21.989  0.00  0.00    +0.000 A 
ENDBRANCH   9  10
BRANCH   1  18
ATOM     17  O   UNL     1       2.169   9.687  17.424  0.00  0.00    +0.000 OA
ATOM     18  C   UNL     1       1.425   9.304  18.325  0.00  0.00    +0.000 C 
ATOM     19  N   UNL     1       1.662   8.173  19.072  0.00  0.00    +0.000 N 
ATOM     20  H   UNL     1       0.946   7.899  19.739  0.00  0.00    +0.000 HD
BRANCH  19  21
ATOM     21  C   UNL     1       2.781   7.300  18.803  0.00  0.00    +0.000 C 
BRANCH  21  22
ATOM     22  C   UNL     1       2.485   5.879  19.213  0.00  0.00    +0.000 A 
ATOM     23  C   UNL     1       1.770   5.620  20.391  0.00  0.00    +0.000 A 
ATOM     24  C   UNL     1       1.523   4.310  20.801  0.00  0.00    +0.000 A 
ATOM     25  C   UNL     1       1.992   3.241  20.040  0.00  0.00    +0.000 A 
ATOM     26  C   UNL     1       2.712   3.471  18.859  0.00  0.00    +0.000 A 
ATOM     27  C   UNL     1       2.951   4.796  18.452  0.00  0.00    +0.000 A 
BRANCH  26  28
ATOM     28  C   UNL     1       3.234   2.322  18.033  0.00  0.00    +0.000 C 
ATOM     29  F   UNL     1       4.267   2.662  17.212  0.00  0.00    +0.000 F 
ATOM     30  F   UNL     1       3.691   1.292  18.799  0.00  0.00    +0.000 F 
ATOM     31  F   UNL     1       2.277   1.787  17.223  0.00  0.00    +0.000 F 
ENDBRANCH  26  28
ENDBRANCH  21  22
ENDBRANCH  19  21
ENDBRANCH   1  18
TORSDOF 5
ENDMDL
MODEL 6
REMARK VINA RESULT:      -8.3      3.887      5.048
REMARK  Name = 
REMARK  5 active torsions:
REMARK  status: ('A' for Active; 'I' for Inactive)
REMARK    1  A    between atoms: C_2  and  C_15
REMARK    2  A    between atoms: N_3  and  C_4
REMARK    3  A    between atoms: C_4  and  C_5
REMARK    4  A    between atoms: C_9  and  C_10
REMARK    5  A    between atoms: N_23  and  C_24
REMARK                            x       y       z     vdW  Elec       q    Type
REMARK                         _______ _______ _______ _____ _____    ______ ____
ROOT
ATOM      1  C   UNL     1       1.837   7.416  19.830  0.00  0.00    +0.000 A 
ATOM      2  N   UNL     1       1.230   7.348  21.054  0.00  0.00    +0.000 NA
ATOM      3  C   UNL     1       0.634   8.460  21.538  0.00  0.00    +0.000 A 
ATOM      4  C   UNL     1       0.592   9.690  20.894  0.00  0.00    +0.000 A 
ATOM      5  C   UNL     1       1.227   9.746  19.646  0.00  0.00    +0.000 A 
ATOM      6  C   UNL     1       1.828   8.610  19.099  0.00  0.00    +0.000 A 
ATOM      7  C   UNL     1       2.266   9.022  17.826  0.00  0.00    +0.000 A 
ATOM      8  N   UNL     1       1.922  10.277  17.541  0.00  0.00    +0.000 NA
ATOM      9  N   UNL     1       1.362  10.745  18.686  0.00  0.00    +0.000 N 
ENDROOT
BRANCH   9  10
ATOM     10  C   UNL     1       0.974  12.110  18.764  0.00  0.00    +0.000 A 
ATOM     11  C   UNL     1       1.971  13.098  18.808  0.00  0.00    +0.000 A 
ATOM     12  C   UNL     1       1.614  14.448  18.863  0.00  0.00    +0.000 A 
ATOM     13  C   UNL     1       0.270  14.797  18.916  0.00  0.00    +0.000 A 
ATOM     14  F   UNL     1      -0.072  16.091  18.986  0.00  0.00    +0.000 F 
ATOM     15  C   UNL     1      -0.725  13.828  18.909  0.00  0.00    +0.000 A 
ATOM     16  C   UNL     1      -0.378  12.477  18.826  0.00  0.00    +0.000 A 
ENDBRANCH   9  10
BRANCH   1  18
ATOM     17  O   UNL     1       2.028   5.643  18.271  0.00  0.00    +0.000 OA
ATOM     18  C   UNL     1       2.459   6.176  19.291  0.00  0.00    +0.000 C 
ATOM     19  N   UNL     1       3.523   5.682  20.011  0.00  0.00    +0.000 N 
ATOM     20  H   UNL     1       3.750   6.151  20.884  0.00  0.00    +0.000 HD
BRANCH  19  21
ATOM     21  C   UNL     1       4.176   4.443  19.657  0.00  0.00    +0.000 C 
BRANCH  21  22
ATOM     22  C   UNL     1       5.368   4.683  18.765  0.00  0.00    +0.000 A 
ATOM     23  C   UNL     1       6.561   5.187  19.303  0.00  0.00    +0.000 A 
ATOM     24  C   UNL     1       7.658   5.448  18.483  0.00  0.00    +0.000 A 
ATOM     25  C   UNL     1       7.575   5.215  17.111  0.00  0.00    +0.000 A 
ATOM     26  C   UNL     1       6.393   4.714  16.546  0.00  0.00    +0.000 A 
ATOM     27  C   UNL     1       5.295   4.448  17.383  0.00  0.00    +0.000 A 
BRANCH  26  28
ATOM     28  C   UNL     1       6.288   4.467  15.061  0.00  0.00    +0.000 C 
ATOM     29  F   UNL     1       5.236   5.102  14.474  0.00  0.00    +0.000 F 
ATOM     30  F   UNL     1       7.397   4.876  14.383  0.00  0.00    +0.000 F 
ATOM     31  F   UNL     1       6.137   3.145  14.764  0.00  0.00    +0.000 F 
ENDBRANCH  26  28
ENDBRANCH  21  22
ENDBRANCH  19  21
ENDBRANCH   1  18
TORSDOF 5
ENDMDL
MODEL 7
REMARK VINA RESULT:      -8.3      0.576      1.265
REMARK  Name = 
REMARK  5 active torsions:
REMARK  status: ('A' for Active; 'I' for Inactive)
REMARK    1  A    between atoms: C_2  and  C_15
REMARK    2  A    between atoms: N_3  and  C_4
REMARK    3  A    between atoms: C_4  and  C_5
REMARK    4  A    between atoms: C_9  and  C_10
REMARK    5  A    between atoms: N_23  and  C_24
REMARK                            x       y       z     vdW  Elec       q    Type
REMARK                         _______ _______ _______ _____ _____    ______ ____
ROOT
ATOM      1  C   UNL     1       0.418  10.053  18.372  0.00  0.00    +0.000 A 
ATOM      2  N   UNL     1      -0.610   9.796  17.506  0.00  0.00    +0.000 NA
ATOM      3  C   UNL     1      -1.843  10.250  17.821  0.00  0.00    +0.000 A 
ATOM      4  C   UNL     1      -2.165  10.959  18.972  0.00  0.00    +0.000 A 
ATOM      5  C   UNL     1      -1.104  11.204  19.853  0.00  0.00    +0.000 A 
ATOM      6  C   UNL     1       0.191  10.778  19.549  0.00  0.00    +0.000 A 
ATOM      7  C   UNL     1       0.982  11.278  20.600  0.00  0.00    +0.000 A 
ATOM      8  N   UNL     1       0.289  12.018  21.463  0.00  0.00    +0.000 NA
ATOM      9  N   UNL     1      -1.000  11.902  21.053  0.00  0.00    +0.000 N 
ENDROOT
BRANCH   9  10
ATOM     10  C   UNL     1      -2.034  12.493  21.829  0.00  0.00    +0.000 A 
ATOM     11  C   UNL     1      -2.379  11.908  23.059  0.00  0.00    +0.000 A 
ATOM     12  C   UNL     1      -3.376  12.483  23.850  0.00  0.00    +0.000 A 
ATOM     13  C   UNL     1      -4.049  13.608  23.390  0.00  0.00    +0.000 A 
ATOM     14  F   UNL     1      -5.018  14.149  24.141  0.00  0.00    +0.000 F 
ATOM     15  C   UNL     1      -3.742  14.175  22.159  0.00  0.00    +0.000 A 
ATOM     16  C   UNL     1      -2.726  13.624  21.375  0.00  0.00    +0.000 A 
ENDBRANCH   9  10
BRANCH   1  18
ATOM     17  O   UNL     1       2.616  10.355  17.542  0.00  0.00    +0.000 OA
ATOM     18  C   UNL     1       1.779   9.579  17.999  0.00  0.00    +0.000 C 
ATOM     19  N   UNL     1       2.016   8.237  18.192  0.00  0.00    +0.000 N 
ATOM     20  H   UNL     1       1.233   7.668  18.499  0.00  0.00    +0.000 HD
BRANCH  19  21
ATOM     21  C   UNL     1       3.261   7.618  17.802  0.00  0.00    +0.000 C 
BRANCH  21  22
ATOM     22  C   UNL     1       3.405   6.241  18.400  0.00  0.00    +0.000 A 
ATOM     23  C   UNL     1       4.647   5.592  18.383  0.00  0.00    +0.000 A 
ATOM     24  C   UNL     1       4.786   4.303  18.899  0.00  0.00    +0.000 A 
ATOM     25  C   UNL     1       3.680   3.644  19.433  0.00  0.00    +0.000 A 
ATOM     26  C   UNL     1       2.424   4.269  19.460  0.00  0.00    +0.000 A 
ATOM     27  C   UNL     1       2.298   5.570  18.943  0.00  0.00    +0.000 A 
BRANCH  26  28
ATOM     28  C   UNL     1       1.219   3.561  20.027  0.00  0.00    +0.000 C 
ATOM     29  F   UNL     1       1.513   2.708  21.047  0.00  0.00    +0.000 F 
ATOM     30  F   UNL     1       0.289   4.426  20.520  0.00  0.00    +0.000 F 
ATOM     31  F   UNL     1       0.570   2.811  19.092  0.00  0.00    +0.000 F 
ENDBRANCH  26  28
ENDBRANCH  21  22
ENDBRANCH  19  21
ENDBRANCH   1  18
TORSDOF 5
ENDMDL
MODEL 8
REMARK VINA RESULT:      -8.3      3.874      5.038
REMARK  Name = 
REMARK  5 active torsions:
REMARK  status: ('A' for Active; 'I' for Inactive)
REMARK    1  A    between atoms: C_2  and  C_15
REMARK    2  A    between atoms: N_3  and  C_4
REMARK    3  A    between atoms: C_4  and  C_5
REMARK    4  A    between atoms: C_9  and  C_10
REMARK    5  A    between atoms: N_23  and  C_24
REMARK                            x       y       z     vdW  Elec       q    Type
REMARK                         _______ _______ _______ _____ _____    ______ ____
ROOT
ATOM      1  C   UNL     1       1.863   7.507  19.817  0.00  0.00    +0.000 A 
ATOM      2  N   UNL     1       1.278   7.439  21.051  0.00  0.00    +0.000 NA
ATOM      3  C   UNL     1       0.691   8.552  21.546  0.00  0.00    +0.000 A 
ATOM      4  C   UNL     1       0.638   9.782  20.903  0.00  0.00    +0.000 A 
ATOM      5  C   UNL     1       1.252   9.838  19.644  0.00  0.00    +0.000 A 
ATOM      6  C   UNL     1       1.842   8.702  19.086  0.00  0.00    +0.000 A 
ATOM      7  C   UNL     1       2.259   9.115  17.806  0.00  0.00    +0.000 A 
ATOM      8  N   UNL     1       1.910  10.370  17.528  0.00  0.00    +0.000 NA
ATOM      9  N   UNL     1       1.370  10.837  18.683  0.00  0.00    +0.000 N 
ENDROOT
BRANCH   9  10
ATOM     10  C   UNL     1       0.984  12.203  18.768  0.00  0.00    +0.000 A 
ATOM     11  C   UNL     1      -0.384  12.520  18.820  0.00  0.00    +0.000 A 
ATOM     12  C   UNL     1      -0.787  13.853  18.926  0.00  0.00    +0.000 A 
ATOM     13  C   UNL     1       0.172  14.859  18.936  0.00  0.00    +0.000 A 
ATOM     14  F   UNL     1      -0.215  16.138  19.020  0.00  0.00    +0.000 F 
ATOM     15  C   UNL     1       1.527  14.560  18.850  0.00  0.00    +0.000 A 
ATOM     16  C   UNL     1       1.940  13.228  18.772  0.00  0.00    +0.000 A 
ENDBRANCH   9  10
BRANCH   1  18
ATOM     17  O   UNL     1       2.067   5.770  18.219  0.00  0.00    +0.000 OA
ATOM     18  C   UNL     1       2.476   6.268  19.266  0.00  0.00    +0.000 C 
ATOM     19  N   UNL     1       3.505   5.732  20.007  0.00  0.00    +0.000 N 
ATOM     20  H   UNL     1       3.713   6.174  20.898  0.00  0.00    +0.000 HD
BRANCH  19  21
ATOM     21  C   UNL     1       4.142   4.489  19.642  0.00  0.00    +0.000 C 
BRANCH  21  22
ATOM     22  C   UNL     1       5.343   4.721  18.761  0.00  0.00    +0.000 A 
ATOM     23  C   UNL     1       6.536   5.212  19.310  0.00  0.00    +0.000 A 
ATOM     24  C   UNL     1       7.643   5.467  18.500  0.00  0.00    +0.000 A 
ATOM     25  C   UNL     1       7.568   5.240  17.127  0.00  0.00    +0.000 A 
ATOM     26  C   UNL     1       6.386   4.753  16.550  0.00  0.00    +0.000 A 
ATOM     27  C   UNL     1       5.279   4.493  17.378  0.00  0.00    +0.000 A 
BRANCH  26  28
ATOM     28  C   UNL     1       6.290   4.513  15.064  0.00  0.00    +0.000 C 
ATOM     29  F   UNL     1       6.150   3.200  14.728  0.00  0.00    +0.000 F 
ATOM     30  F   UNL     1       5.232   5.158  14.498  0.00  0.00    +0.000 F 
ATOM     31  F   UNL     1       7.394   4.952  14.394  0.00  0.00    +0.000 F 
ENDBRANCH  26  28
ENDBRANCH  21  22
ENDBRANCH  19  21
ENDBRANCH   1  18
TORSDOF 5
ENDMDL
MODEL 9
REMARK VINA RESULT:      -8.3      1.173      2.026
REMARK  Name = 
REMARK  5 active torsions:
REMARK  status: ('A' for Active; 'I' for Inactive)
REMARK    1  A    between atoms: C_2  and  C_15
REMARK    2  A    between atoms: N_3  and  C_4
REMARK    3  A    between atoms: C_4  and  C_5
REMARK    4  A    between atoms: C_9  and  C_10
REMARK    5  A    between atoms: N_23  and  C_24
REMARK                            x       y       z     vdW  Elec       q    Type
REMARK                         _______ _______ _______ _____ _____    ______ ____
ROOT
ATOM      1  C   UNL     1       0.982   9.355  20.017  0.00  0.00    +0.000 A 
ATOM      2  N   UNL     1       1.307   8.727  21.188  0.00  0.00    +0.000 NA
ATOM      3  C   UNL     1       0.654   9.089  22.314  0.00  0.00    +0.000 A 
ATOM      4  C   UNL     1      -0.330  10.067  22.389  0.00  0.00    +0.000 A 
ATOM      5  C   UNL     1      -0.643  10.709  21.183  0.00  0.00    +0.000 A 
ATOM      6  C   UNL     1      -0.011  10.342  19.993  0.00  0.00    +0.000 A 
ATOM      7  C   UNL     1      -0.641  11.123  19.005  0.00  0.00    +0.000 A 
ATOM      8  N   UNL     1      -1.633  11.869  19.489  0.00  0.00    +0.000 NA
ATOM      9  N   UNL     1      -1.577  11.679  20.832  0.00  0.00    +0.000 N 
ENDROOT
BRANCH   9  10
ATOM     10  C   UNL     1      -2.445  12.425  21.677  0.00  0.00    +0.000 A 
ATOM     11  C   UNL     1      -2.565  12.052  23.025  0.00  0.00    +0.000 A 
ATOM     12  C   UNL     1      -3.395  12.782  23.879  0.00  0.00    +0.000 A 
ATOM     13  C   UNL     1      -4.127  13.849  23.374  0.00  0.00    +0.000 A 
ATOM     14  F   UNL     1      -4.936  14.539  24.189  0.00  0.00    +0.000 F 
ATOM     15  C   UNL     1      -4.043  14.206  22.033  0.00  0.00    +0.000 A 
ATOM     16  C   UNL     1      -3.195  13.499  21.178  0.00  0.00    +0.000 A 
ENDBRANCH   9  10
BRANCH   1  18
ATOM     17  O   UNL     1       1.599   9.582  17.741  0.00  0.00    +0.000 OA
ATOM     18  C   UNL     1       1.684   8.925  18.777  0.00  0.00    +0.000 C 
ATOM     19  N   UNL     1       2.408   7.759  18.876  0.00  0.00    +0.000 N 
ATOM     20  H   UNL     1       2.349   7.250  19.753  0.00  0.00    +0.000 HD
BRANCH  19  21
ATOM     21  C   UNL     1       3.075   7.175  17.736  0.00  0.00    +0.000 C 
BRANCH  21  22
ATOM     22  C   UNL     1       3.115   5.670  17.831  0.00  0.00    +0.000 A 
ATOM     23  C   UNL     1       4.103   4.947  17.147  0.00  0.00    +0.000 A 
ATOM     24  C   UNL     1       4.129   3.554  17.196  0.00  0.00    +0.000 A 
ATOM     25  C   UNL     1       3.162   2.864  17.925  0.00  0.00    +0.000 A 
ATOM     26  C   UNL     1       2.160   3.561  18.615  0.00  0.00    +0.000 A 
ATOM     27  C   UNL     1       2.147   4.966  18.564  0.00  0.00    +0.000 A 
BRANCH  26  28
ATOM     28  C   UNL     1       1.102   2.824  19.398  0.00  0.00    +0.000 C 
ATOM     29  F   UNL     1       1.601   1.856  20.217  0.00  0.00    +0.000 F 
ATOM     30  F   UNL     1       0.374   3.651  20.200  0.00  0.00    +0.000 F 
ATOM     31  F   UNL     1       0.199   2.199  18.591  0.00  0.00    +0.000 F 
ENDBRANCH  26  28
ENDBRANCH  21  22
ENDBRANCH  19  21
ENDBRANCH   1  18
TORSDOF 5
ENDMDL
