MODEL 1
REMARK VINA RESULT:      -7.6      0.000      0.000
REMARK  Name = 
REMARK  6 active torsions:
REMARK  status: ('A' for Active; 'I' for Inactive)
REMARK    1  A    between atoms: C_2  and  C_3
REMARK    2  A    between atoms: C_3  and  C_4
REMARK    3  A    between atoms: C_4  and  N_5
REMARK    4  A    between atoms: N_5  and  C_6
REMARK    5  A    between atoms: C_6  and  C_7
REMARK    6  A    between atoms: N_15  and  C_16
REMARK                            x       y       z     vdW  Elec       q    Type
REMARK                         _______ _______ _______ _____ _____    ______ ____
ROOT
ATOM      1  N   UNL     1       6.062   4.790  17.170  0.00  0.00    +0.000 N 
ATOM      2  C   UNL     1       5.123   4.317  18.086  0.00  0.00    +0.000 C 
ATOM      3  O   UNL     1       5.508   3.949  19.196  0.00  0.00    +0.000 OA
ATOM      4  N   UNL     1       3.813   4.270  17.667  0.00  0.00    +0.000 N 
ATOM      5  H   UNL     1       3.639   4.360  16.676  0.00  0.00    +0.000 HD
ENDROOT
BRANCH   4   6
ATOM      6  C   UNL     1       2.722   3.780  18.444  0.00  0.00    +0.000 A 
ATOM      7  C   UNL     1       2.050   2.583  18.160  0.00  0.00    +0.000 A 
ATOM      8  C   UNL     1       0.924   2.192  18.889  0.00  0.00    +0.000 A 
ATOM      9  C   UNL     1       0.463   2.981  19.935  0.00  0.00    +0.000 A 
ATOM     10  C   UNL     1       1.148   4.148  20.266  0.00  0.00    +0.000 A 
ATOM     11  C   UNL     1       2.276   4.542  19.531  0.00  0.00    +0.000 A 
ENDBRANCH   4   6
BRANCH   1  12
ATOM     12  C   UNL     1       7.464   4.765  17.618  0.00  0.00    +0.000 C 
BRANCH  12  13
ATOM     13  C   UNL     1       7.853   5.909  18.567  0.00  0.00    +0.000 C 
BRANCH  13  15
ATOM     14  N   UNL     1       7.727   8.268  17.410  0.00  0.00    +0.000 NA
ATOM     15  C   UNL     1       7.772   7.218  17.917  0.00  0.00    +0.000 C 
ENDBRANCH  13  15
ENDBRANCH  12  13
ENDBRANCH   1  12
BRANCH   1  16
ATOM     16  C   UNL     1       5.768   5.535  15.941  0.00  0.00    +0.000 C 
BRANCH  16  17
ATOM     17  C   UNL     1       6.251   4.932  14.648  0.00  0.00    +0.000 A 
ATOM     18  C   UNL     1       5.628   3.887  13.964  0.00  0.00    +0.000 A 
ATOM     19  C   UNL     1       6.082   3.531  12.693  0.00  0.00    +0.000 A 
ATOM     20  C   UNL     1       7.165   4.211  12.159  0.00  0.00    +0.000 A 
ATOM     21  N   UNL     1       7.847   5.161  12.826  0.00  0.00    +0.000 NA
ATOM     22  C   UNL     1       7.387   5.486  14.054  0.00  0.00    +0.000 A 
ENDBRANCH  16  17
ENDBRANCH   1  16
TORSDOF 6
ENDMDL
MODEL 2
REMARK VINA RESULT:      -7.5      3.079      4.693
REMARK  Name = 
REMARK  6 active torsions:
REMARK  status: ('A' for Active; 'I' for Inactive)
REMARK    1  A    between atoms: C_2  and  C_3
REMARK    2  A    between atoms: C_3  and  C_4
REMARK    3  A    between atoms: C_4  and  N_5
REMARK    4  A    between atoms: N_5  and  C_6
REMARK    5  A    between atoms: C_6  and  C_7
REMARK    6  A    between atoms: N_15  and  C_16
REMARK                            x       y       z     vdW  Elec       q    Type
REMARK                         _______ _______ _______ _____ _____    ______ ____
ROOT
ATOM      1  N   UNL     1       3.846   4.328  18.513  0.00  0.00    +0.000 N 
ATOM      2  C   UNL     1       2.868   5.279  18.804  0.00  0.00    +0.000 C 
ATOM      3  O   UNL     1       1.737   4.895  19.108  0.00  0.00    +0.000 OA
ATOM      4  N   UNL     1       3.235   6.602  18.703  0.00  0.00    +0.000 N 
ATOM      5  H   UNL     1       4.096   6.808  18.217  0.00  0.00    +0.000 HD
ENDROOT
BRANCH   4   6
ATOM      6  C   UNL     1       2.365   7.712  18.919  0.00  0.00    +0.000 A 
ATOM      7  C   UNL     1       1.830   8.039  20.171  0.00  0.00    +0.000 A 
ATOM      8  C   UNL     1       0.904   9.077  20.317  0.00  0.00    +0.000 A 
ATOM      9  C   UNL     1       0.517   9.824  19.212  0.00  0.00    +0.000 A 
ATOM     10  C   UNL     1       1.079   9.548  17.968  0.00  0.00    +0.000 A 
ATOM     11  C   UNL     1       2.004   8.504  17.822  0.00  0.00    +0.000 A 
ENDBRANCH   4   6
BRANCH   1  12
ATOM     12  C   UNL     1       3.409   2.924  18.561  0.00  0.00    +0.000 C 
BRANCH  12  13
ATOM     13  C   UNL     1       3.936   2.130  19.767  0.00  0.00    +0.000 C 
BRANCH  13  15
ATOM     14  N   UNL     1       2.578   2.676  21.953  0.00  0.00    +0.000 NA
ATOM     15  C   UNL     1       3.189   2.427  20.990  0.00  0.00    +0.000 C 
ENDBRANCH  13  15
ENDBRANCH  12  13
ENDBRANCH   1  12
BRANCH   1  16
ATOM     16  C   UNL     1       5.289   4.575  18.428  0.00  0.00    +0.000 C 
BRANCH  16  17
ATOM     17  C   UNL     1       5.899   4.573  17.050  0.00  0.00    +0.000 A 
ATOM     18  C   UNL     1       5.444   3.818  15.968  0.00  0.00    +0.000 A 
ATOM     19  C   UNL     1       5.992   4.031  14.702  0.00  0.00    +0.000 A 
ATOM     20  C   UNL     1       7.000   4.972  14.564  0.00  0.00    +0.000 A 
ATOM     21  N   UNL     1       7.527   5.653  15.600  0.00  0.00    +0.000 NA
ATOM     22  C   UNL     1       6.978   5.427  16.813  0.00  0.00    +0.000 A 
ENDBRANCH  16  17
ENDBRANCH   1  16
TORSDOF 6
ENDMDL
MODEL 3
REMARK VINA RESULT:      -7.4      2.284      6.651
REMARK  Name = 
REMARK  6 active torsions:
REMARK  status: ('A' for Active; 'I' for Inactive)
REMARK    1  A    between atoms: C_2  and  C_3
REMARK    2  A    between atoms: C_3  and  C_4
REMARK    3  A    between atoms: C_4  and  N_5
REMARK    4  A    between atoms: N_5  and  C_6
REMARK    5  A    between atoms: C_6  and  C_7
REMARK    6  A    between atoms: N_15  and  C_16
REMARK                            x       y       z     vdW  Elec       q    Type
REMARK                         _______ _______ _______ _____ _____    ______ ____
ROOT
ATOM      1  N   UNL     1       4.566   5.668  17.564  0.00  0.00    +0.000 N 
ATOM      2  C   UNL     1       5.148   5.727  16.297  0.00  0.00    +0.000 C 
ATOM      3  O   UNL     1       5.239   6.820  15.736  0.00  0.00    +0.000 OA
ATOM      4  N   UNL     1       5.563   4.537  15.745  0.00  0.00    +0.000 N 
ATOM      5  H   UNL     1       5.226   3.685  16.172  0.00  0.00    +0.000 HD
ENDROOT
BRANCH   4   6
ATOM      6  C   UNL     1       6.140   4.392  14.449  0.00  0.00    +0.000 A 
ATOM      7  C   UNL     1       7.298   5.067  14.041  0.00  0.00    +0.000 A 
ATOM      8  C   UNL     1       7.772   4.970  12.729  0.00  0.00    +0.000 A 
ATOM      9  C   UNL     1       7.106   4.173  11.807  0.00  0.00    +0.000 A 
ATOM     10  C   UNL     1       5.983   3.453  12.207  0.00  0.00    +0.000 A 
ATOM     11  C   UNL     1       5.506   3.554  13.523  0.00  0.00    +0.000 A 
ENDBRANCH   4   6
BRANCH   1  12
ATOM     12  C   UNL     1       4.068   6.944  18.101  0.00  0.00    +0.000 C 
BRANCH  12  13
ATOM     13  C   UNL     1       2.553   7.155  17.951  0.00  0.00    +0.000 C 
BRANCH  13  15
ATOM     14  N   UNL     1       1.915   9.678  17.574  0.00  0.00    +0.000 NA
ATOM     15  C   UNL     1       2.211   8.562  17.742  0.00  0.00    +0.000 C 
ENDBRANCH  13  15
ENDBRANCH  12  13
ENDBRANCH   1  12
BRANCH   1  16
ATOM     16  C   UNL     1       4.639   4.535  18.493  0.00  0.00    +0.000 C 
BRANCH  16  17
ATOM     17  C   UNL     1       3.349   3.821  18.798  0.00  0.00    +0.000 A 
ATOM     18  C   UNL     1       2.574   4.008  19.943  0.00  0.00    +0.000 A 
ATOM     19  C   UNL     1       1.317   3.409  20.028  0.00  0.00    +0.000 A 
ATOM     20  C   UNL     1       0.886   2.614  18.977  0.00  0.00    +0.000 A 
ATOM     21  N   UNL     1       1.643   2.337  17.898  0.00  0.00    +0.000 NA
ATOM     22  C   UNL     1       2.856   2.931  17.841  0.00  0.00    +0.000 A 
ENDBRANCH  16  17
ENDBRANCH   1  16
TORSDOF 6
ENDMDL
MODEL 4
REMARK VINA RESULT:      -7.3      0.971      1.534
REMARK  Name = 
REMARK  6 active torsions:
REMARK  status: ('A' for Active; 'I' for Inactive)
REMARK    1  A    between atoms: C_2  and  C_3
REMARK    2  A    between atoms: C_3  and  C_4
REMARK    3  A    between atoms: C_4  and  N_5
REMARK    4  A    between atoms: N_5  and  C_6
REMARK    5  A    between atoms: C_6  and  C_7
REMARK    6  A    between atoms: N_15  and  C_16
REMARK                            x       y       z     vdW  Elec       q    Type
REMARK                         _______ _______ _______ _____ _____    ______ ____
ROOT
ATOM      1  N   UNL     1       5.895   4.698  16.954  0.00  0.00    +0.000 N 
ATOM      2  C   UNL     1       4.956   4.300  17.905  0.00  0.00    +0.000 C 
ATOM      3  O   UNL     1       5.349   3.957  19.021  0.00  0.00    +0.000 OA
ATOM      4  N   UNL     1       3.637   4.293  17.514  0.00  0.00    +0.000 N 
ATOM      5  H   UNL     1       3.446   4.353  16.524  0.00  0.00    +0.000 HD
ENDROOT
BRANCH   4   6
ATOM      6  C   UNL     1       2.543   3.878  18.330  0.00  0.00    +0.000 A 
ATOM      7  C   UNL     1       2.043   4.640  19.394  0.00  0.00    +0.000 A 
ATOM      8  C   UNL     1       1.034   4.150  20.228  0.00  0.00    +0.000 A 
ATOM      9  C   UNL     1       0.488   2.894  19.995  0.00  0.00    +0.000 A 
ATOM     10  C   UNL     1       0.935   2.143  18.910  0.00  0.00    +0.000 A 
ATOM     11  C   UNL     1       1.951   2.635  18.076  0.00  0.00    +0.000 A 
ENDBRANCH   4   6
BRANCH   1  12
ATOM     12  C   UNL     1       7.303   4.631  17.374  0.00  0.00    +0.000 C 
BRANCH  12  13
ATOM     13  C   UNL     1       7.799   5.860  18.151  0.00  0.00    +0.000 C 
BRANCH  13  15
ATOM     14  N   UNL     1       8.156   5.364  20.709  0.00  0.00    +0.000 NA
ATOM     15  C   UNL     1       7.999   5.571  19.572  0.00  0.00    +0.000 C 
ENDBRANCH  13  15
ENDBRANCH  12  13
ENDBRANCH   1  12
BRANCH   1  16
ATOM     16  C   UNL     1       5.606   5.409  15.703  0.00  0.00    +0.000 C 
BRANCH  16  17
ATOM     17  C   UNL     1       6.102   4.774  14.430  0.00  0.00    +0.000 A 
ATOM     18  C   UNL     1       5.433   3.783  13.709  0.00  0.00    +0.000 A 
ATOM     19  C   UNL     1       5.918   3.397  12.459  0.00  0.00    +0.000 A 
ATOM     20  C   UNL     1       7.075   3.992  11.982  0.00  0.00    +0.000 A 
ATOM     21  N   UNL     1       7.797   4.883  12.688  0.00  0.00    +0.000 NA
ATOM     22  C   UNL     1       7.305   5.239  13.895  0.00  0.00    +0.000 A 
ENDBRANCH  16  17
ENDBRANCH   1  16
TORSDOF 6
ENDMDL
MODEL 5
REMARK VINA RESULT:      -7.3      2.961      4.540
REMARK  Name = 
REMARK  6 active torsions:
REMARK  status: ('A' for Active; 'I' for Inactive)
REMARK    1  A    between atoms: C_2  and  C_3
REMARK    2  A    between atoms: C_3  and  C_4
REMARK    3  A    between atoms: C_4  and  N_5
REMARK    4  A    between atoms: N_5  and  C_6
REMARK    5  A    between atoms: C_6  and  C_7
REMARK    6  A    between atoms: N_15  and  C_16
REMARK                            x       y       z     vdW  Elec       q    Type
REMARK                         _______ _______ _______ _____ _____    ______ ____
ROOT
ATOM      1  N   UNL     1       3.728   4.186  17.937  0.00  0.00    +0.000 N 
ATOM      2  C   UNL     1       2.782   5.150  18.287  0.00  0.00    +0.000 C 
ATOM      3  O   UNL     1       1.616   4.798  18.473  0.00  0.00    +0.000 OA
ATOM      4  N   UNL     1       3.220   6.451  18.377  0.00  0.00    +0.000 N 
ATOM      5  H   UNL     1       4.121   6.666  17.973  0.00  0.00    +0.000 HD
ENDROOT
BRANCH   4   6
ATOM      6  C   UNL     1       2.396   7.575  18.680  0.00  0.00    +0.000 A 
ATOM      7  C   UNL     1       2.039   8.546  17.735  0.00  0.00    +0.000 A 
ATOM      8  C   UNL     1       1.311   9.682  18.100  0.00  0.00    +0.000 A 
ATOM      9  C   UNL     1       0.904   9.854  19.416  0.00  0.00    +0.000 A 
ATOM     10  C   UNL     1       1.204   8.874  20.360  0.00  0.00    +0.000 A 
ATOM     11  C   UNL     1       1.938   7.736  19.993  0.00  0.00    +0.000 A 
ENDBRANCH   4   6
BRANCH   1  12
ATOM     12  C   UNL     1       3.219   2.815  17.781  0.00  0.00    +0.000 C 
BRANCH  12  13
ATOM     13  C   UNL     1       3.649   1.842  18.890  0.00  0.00    +0.000 C 
BRANCH  13  15
ATOM     14  N   UNL     1       2.830   2.647  21.256  0.00  0.00    +0.000 NA
ATOM     15  C   UNL     1       3.201   2.281  20.212  0.00  0.00    +0.000 C 
ENDBRANCH  13  15
ENDBRANCH  12  13
ENDBRANCH   1  12
BRANCH   1  16
ATOM     16  C   UNL     1       5.184   4.358  17.969  0.00  0.00    +0.000 C 
BRANCH  16  17
ATOM     17  C   UNL     1       5.888   4.444  16.640  0.00  0.00    +0.000 A 
ATOM     18  C   UNL     1       5.540   3.726  15.495  0.00  0.00    +0.000 A 
ATOM     19  C   UNL     1       6.165   4.019  14.283  0.00  0.00    +0.000 A 
ATOM     20  C   UNL     1       7.144   5.000  14.260  0.00  0.00    +0.000 A 
ATOM     21  N   UNL     1       7.570   5.649  15.360  0.00  0.00    +0.000 NA
ATOM     22  C   UNL     1       6.947   5.346  16.520  0.00  0.00    +0.000 A 
ENDBRANCH  16  17
ENDBRANCH   1  16
TORSDOF 6
ENDMDL
MODEL 6
REMARK VINA RESULT:      -7.3      3.364      5.256
REMARK  Name = 
REMARK  6 active torsions:
REMARK  status: ('A' for Active; 'I' for Inactive)
REMARK    1  A    between atoms: C_2  and  C_3
REMARK    2  A    between atoms: C_3  and  C_4
REMARK    3  A    between atoms: C_4  and  N_5
REMARK    4  A    between atoms: N_5  and  C_6
REMARK    5  A    between atoms: C_6  and  C_7
REMARK    6  A    between atoms: N_15  and  C_16
REMARK                            x       y       z     vdW  Elec       q    Type
REMARK                         _______ _______ _______ _____ _____    ______ ____
ROOT
ATOM      1  N   UNL     1       3.458   4.886  19.280  0.00  0.00    +0.000 N 
ATOM      2  C   UNL     1       2.429   5.734  19.691  0.00  0.00    +0.000 C 
ATOM      3  O   UNL     1       1.340   5.243  19.996  0.00  0.00    +0.000 OA
ATOM      4  N   UNL     1       2.698   7.083  19.701  0.00  0.00    +0.000 N 
ATOM      5  H   UNL     1       3.522   7.395  19.207  0.00  0.00    +0.000 HD
ENDROOT
BRANCH   4   6
ATOM      6  C   UNL     1       1.763   8.103  20.047  0.00  0.00    +0.000 A 
ATOM      7  C   UNL     1       1.189   8.222  21.320  0.00  0.00    +0.000 A 
ATOM      8  C   UNL     1       0.204   9.177  21.586  0.00  0.00    +0.000 A 
ATOM      9  C   UNL     1      -0.208  10.049  20.587  0.00  0.00    +0.000 A 
ATOM     10  C   UNL     1       0.389   9.981  19.330  0.00  0.00    +0.000 A 
ATOM     11  C   UNL     1       1.375   9.020  19.063  0.00  0.00    +0.000 A 
ENDBRANCH   4   6
BRANCH   1  12
ATOM     12  C   UNL     1       3.122   3.455  19.213  0.00  0.00    +0.000 C 
BRANCH  12  13
ATOM     13  C   UNL     1       3.562   2.636  20.436  0.00  0.00    +0.000 C 
BRANCH  13  15
ATOM     14  N   UNL     1       1.650   2.472  22.235  0.00  0.00    +0.000 NA
ATOM     15  C   UNL     1       2.507   2.546  21.447  0.00  0.00    +0.000 C 
ENDBRANCH  13  15
ENDBRANCH  12  13
ENDBRANCH   1  12
BRANCH   1  16
ATOM     16  C   UNL     1       4.876   5.245  19.169  0.00  0.00    +0.000 C 
BRANCH  16  17
ATOM     17  C   UNL     1       5.511   5.091  17.813  0.00  0.00    +0.000 A 
ATOM     18  C   UNL     1       4.895   5.385  16.595  0.00  0.00    +0.000 A 
ATOM     19  C   UNL     1       5.647   5.358  15.420  0.00  0.00    +0.000 A 
ATOM     20  C   UNL     1       6.986   5.008  15.495  0.00  0.00    +0.000 A 
ATOM     21  N   UNL     1       7.592   4.631  16.637  0.00  0.00    +0.000 NA
ATOM     22  C   UNL     1       6.840   4.666  17.760  0.00  0.00    +0.000 A 
ENDBRANCH  16  17
ENDBRANCH   1  16
TORSDOF 6
ENDMDL
MODEL 7
REMARK VINA RESULT:      -7.3      2.202      6.677
REMARK  Name = 
REMARK  6 active torsions:
REMARK  status: ('A' for Active; 'I' for Inactive)
REMARK    1  A    between atoms: C_2  and  C_3
REMARK    2  A    between atoms: C_3  and  C_4
REMARK    3  A    between atoms: C_4  and  N_5
REMARK    4  A    between atoms: N_5  and  C_6
REMARK    5  A    between atoms: C_6  and  C_7
REMARK    6  A    between atoms: N_15  and  C_16
REMARK                            x       y       z     vdW  Elec       q    Type
REMARK                         _______ _______ _______ _____ _____    ______ ____
ROOT
ATOM      1  N   UNL     1       4.510   5.389  17.603  0.00  0.00    +0.000 N 
ATOM      2  C   UNL     1       5.084   5.540  16.341  0.00  0.00    +0.000 C 
ATOM      3  O   UNL     1       5.196   6.674  15.871  0.00  0.00    +0.000 OA
ATOM      4  N   UNL     1       5.466   4.392  15.687  0.00  0.00    +0.000 N 
ATOM      5  H   UNL     1       5.113   3.515  16.044  0.00  0.00    +0.000 HD
ENDROOT
BRANCH   4   6
ATOM      6  C   UNL     1       6.030   4.342  14.378  0.00  0.00    +0.000 A 
ATOM      7  C   UNL     1       5.491   3.577  13.336  0.00  0.00    +0.000 A 
ATOM      8  C   UNL     1       6.132   3.482  12.097  0.00  0.00    +0.000 A 
ATOM      9  C   UNL     1       7.315   4.174  11.871  0.00  0.00    +0.000 A 
ATOM     10  C   UNL     1       7.839   4.982  12.878  0.00  0.00    +0.000 A 
ATOM     11  C   UNL     1       7.196   5.073  14.122  0.00  0.00    +0.000 A 
ENDBRANCH   4   6
BRANCH   1  12
ATOM     12  C   UNL     1       4.047   6.626  18.250  0.00  0.00    +0.000 C 
BRANCH  12  13
ATOM     13  C   UNL     1       2.536   6.884  18.133  0.00  0.00    +0.000 C 
BRANCH  13  15
ATOM     14  N   UNL     1       2.020   9.405  17.590  0.00  0.00    +0.000 NA
ATOM     15  C   UNL     1       2.237   8.285  17.837  0.00  0.00    +0.000 C 
ENDBRANCH  13  15
ENDBRANCH  12  13
ENDBRANCH   1  12
BRANCH   1  16
ATOM     16  C   UNL     1       4.564   4.181  18.434  0.00  0.00    +0.000 C 
BRANCH  16  17
ATOM     17  C   UNL     1       3.247   3.597  18.871  0.00  0.00    +0.000 A 
ATOM     18  C   UNL     1       2.766   3.581  20.181  0.00  0.00    +0.000 A 
ATOM     19  C   UNL     1       1.459   3.160  20.429  0.00  0.00    +0.000 A 
ATOM     20  C   UNL     1       0.682   2.738  19.361  0.00  0.00    +0.000 A 
ATOM     21  N   UNL     1       1.141   2.654  18.098  0.00  0.00    +0.000 NA
ATOM     22  C   UNL     1       2.409   3.068  17.886  0.00  0.00    +0.000 A 
ENDBRANCH  16  17
ENDBRANCH   1  16
TORSDOF 6
ENDMDL
MODEL 8
REMARK VINA RESULT:      -7.2      2.830      5.131
REMARK  Name = 
REMARK  6 active torsions:
REMARK  status: ('A' for Active; 'I' for Inactive)
REMARK    1  A    between atoms: C_2  and  C_3
REMARK    2  A    between atoms: C_3  and  C_4
REMARK    3  A    between atoms: C_4  and  N_5
REMARK    4  A    between atoms: N_5  and  C_6
REMARK    5  A    between atoms: C_6  and  C_7
REMARK    6  A    between atoms: N_15  and  C_16
REMARK                            x       y       z     vdW  Elec       q    Type
REMARK                         _______ _______ _______ _____ _____    ______ ____
ROOT
ATOM      1  N   UNL     1       5.062   5.229  16.982  0.00  0.00    +0.000 N 
ATOM      2  C   UNL     1       4.451   6.398  17.435  0.00  0.00    +0.000 C 
ATOM      3  O   UNL     1       5.082   7.455  17.385  0.00  0.00    +0.000 OA
ATOM      4  N   UNL     1       3.175   6.282  17.937  0.00  0.00    +0.000 N 
ATOM      5  H   UNL     1       2.847   5.353  18.157  0.00  0.00    +0.000 HD
ENDROOT
BRANCH   4   6
ATOM      6  C   UNL     1       2.409   7.354  18.482  0.00  0.00    +0.000 A 
ATOM      7  C   UNL     1       1.954   8.440  17.723  0.00  0.00    +0.000 A 
ATOM      8  C   UNL     1       1.290   9.516  18.320  0.00  0.00    +0.000 A 
ATOM      9  C   UNL     1       1.047   9.512  19.687  0.00  0.00    +0.000 A 
ATOM     10  C   UNL     1       1.445   8.417  20.450  0.00  0.00    +0.000 A 
ATOM     11  C   UNL     1       2.115   7.339  19.851  0.00  0.00    +0.000 A 
ENDBRANCH   4   6
BRANCH   1  12
ATOM     12  C   UNL     1       6.450   5.368  16.515  0.00  0.00    +0.000 C 
BRANCH  12  13
ATOM     13  C   UNL     1       7.494   4.651  17.385  0.00  0.00    +0.000 C 
BRANCH  13  15
ATOM     14  N   UNL     1       7.414   5.481  19.879  0.00  0.00    +0.000 NA
ATOM     15  C   UNL     1       7.462   5.110  18.774  0.00  0.00    +0.000 C 
ENDBRANCH  13  15
ENDBRANCH  12  13
ENDBRANCH   1  12
BRANCH   1  16
ATOM     16  C   UNL     1       4.383   3.961  16.688  0.00  0.00    +0.000 C 
BRANCH  16  17
ATOM     17  C   UNL     1       3.720   3.262  17.845  0.00  0.00    +0.000 A 
ATOM     18  C   UNL     1       4.260   3.129  19.125  0.00  0.00    +0.000 A 
ATOM     19  C   UNL     1       3.475   2.604  20.153  0.00  0.00    +0.000 A 
ATOM     20  C   UNL     1       2.182   2.200  19.860  0.00  0.00    +0.000 A 
ATOM     21  N   UNL     1       1.658   2.228  18.620  0.00  0.00    +0.000 NA
ATOM     22  C   UNL     1       2.440   2.740  17.645  0.00  0.00    +0.000 A 
ENDBRANCH  16  17
ENDBRANCH   1  16
TORSDOF 6
ENDMDL
MODEL 9
REMARK VINA RESULT:      -7.2      2.306      6.819
REMARK  Name = 
REMARK  6 active torsions:
REMARK  status: ('A' for Active; 'I' for Inactive)
REMARK    1  A    between atoms: C_2  and  C_3
REMARK    2  A    between atoms: C_3  and  C_4
REMARK    3  A    between atoms: C_4  and  N_5
REMARK    4  A    between atoms: N_5  and  C_6
REMARK    5  A    between atoms: C_6  and  C_7
REMARK    6  A    between atoms: N_15  and  C_16
REMARK                            x       y       z     vdW  Elec       q    Type
REMARK                         _______ _______ _______ _____ _____    ______ ____
ROOT
ATOM      1  N   UNL     1       4.458   5.485  17.506  0.00  0.00    +0.000 N 
ATOM      2  C   UNL     1       5.109   5.595  16.277  0.00  0.00    +0.000 C 
ATOM      3  O   UNL     1       5.289   6.716  15.799  0.00  0.00    +0.000 OA
ATOM      4  N   UNL     1       5.486   4.423  15.664  0.00  0.00    +0.000 N 
ATOM      5  H   UNL     1       5.081   3.566  16.013  0.00  0.00    +0.000 HD
ENDROOT
BRANCH   4   6
ATOM      6  C   UNL     1       6.122   4.332  14.391  0.00  0.00    +0.000 A 
ATOM      7  C   UNL     1       7.267   5.063  14.047  0.00  0.00    +0.000 A 
ATOM      8  C   UNL     1       7.798   5.016  12.754  0.00  0.00    +0.000 A 
ATOM      9  C   UNL     1       7.205   4.215  11.787  0.00  0.00    +0.000 A 
ATOM     10  C   UNL     1       6.097   3.440  12.124  0.00  0.00    +0.000 A 
ATOM     11  C   UNL     1       5.563   3.491  13.420  0.00  0.00    +0.000 A 
ENDBRANCH   4   6
BRANCH   1  12
ATOM     12  C   UNL     1       4.004   6.749  18.108  0.00  0.00    +0.000 C 
BRANCH  12  13
ATOM     13  C   UNL     1       2.502   7.032  17.943  0.00  0.00    +0.000 C 
BRANCH  13  15
ATOM     14  N   UNL     1       2.007   9.592  17.593  0.00  0.00    +0.000 NA
ATOM     15  C   UNL     1       2.230   8.455  17.735  0.00  0.00    +0.000 C 
ENDBRANCH  13  15
ENDBRANCH  12  13
ENDBRANCH   1  12
BRANCH   1  16
ATOM     16  C   UNL     1       4.420   4.290  18.357  0.00  0.00    +0.000 C 
BRANCH  16  17
ATOM     17  C   UNL     1       3.071   3.866  18.873  0.00  0.00    +0.000 A 
ATOM     18  C   UNL     1       2.055   3.297  18.104  0.00  0.00    +0.000 A 
ATOM     19  C   UNL     1       0.915   2.795  18.733  0.00  0.00    +0.000 A 
ATOM     20  C   UNL     1       0.812   2.907  20.110  0.00  0.00    +0.000 A 
ATOM     21  N   UNL     1       1.729   3.530  20.875  0.00  0.00    +0.000 NA
ATOM     22  C   UNL     1       2.822   4.006  20.240  0.00  0.00    +0.000 A 
ENDBRANCH  16  17
ENDBRANCH   1  16
TORSDOF 6
ENDMDL
