MODEL 1
REMARK VINA RESULT:      -6.2      0.000      0.000
REMARK  Name = 
REMARK  17 active torsions:
REMARK  status: ('A' for Active; 'I' for Inactive)
REMARK    1  A    between atoms: C_1  and  O_2
REMARK    2  A    between atoms: O_2  and  C_3
REMARK    3  A    between atoms: C_7  and  C_8
REMARK    4  A    between atoms: C_11  and  O_12
REMARK    5  A    between atoms: O_12  and  C_13
REMARK    6  A    between atoms: C_16  and  O_17
REMARK    7  A    between atoms: O_17  and  C_18
REMARK    8  A    between atoms: C_21  and  C_22
REMARK    9  A    between atoms: C_22  and  N_23
REMARK   10  A    between atoms: N_23  and  C_24
REMARK   11  A    between atoms: C_24  and  C_25
REMARK   12  A    between atoms: C_25  and  C_26
REMARK   13  A    between atoms: C_25  and  C_27
REMARK   14  A    between atoms: C_25  and  C_28
REMARK   15  A    between atoms: C_28  and  N_29
REMARK   16  A    between atoms: N_29  and  C_30
REMARK   17  A    between atoms: N_29  and  C_31
REMARK                            x       y       z     vdW  Elec       q    Type
REMARK                         _______ _______ _______ _____ _____    ______ ____
ROOT
ATOM      1  C   UNL     1       1.182   9.049  19.487  0.00  0.00    +0.000 A 
ATOM      2  N   UNL     1       1.569   9.858  18.488  0.00  0.00    +0.000 NA
ATOM      3  C   UNL     1       0.863  10.997  18.376  0.00  0.00    +0.000 A 
ATOM      4  C   UNL     1       1.333  12.302  18.661  0.00  0.00    +0.000 A 
ATOM      5  C   UNL     1       0.452  13.391  18.660  0.00  0.00    +0.000 A 
ATOM      6  C   UNL     1      -0.865  13.226  18.231  0.00  0.00    +0.000 A 
ATOM      7  C   UNL     1      -1.329  11.937  18.029  0.00  0.00    +0.000 A 
ATOM      8  C   UNL     1      -0.517  10.904  18.502  0.00  0.00    +0.000 A 
ATOM      9  C   UNL     1      -0.856  10.168  19.634  0.00  0.00    +0.000 A 
ATOM     10  C   UNL     1       0.181   9.512  20.326  0.00  0.00    +0.000 A 
ENDROOT
BRANCH   1  15
ATOM     11  C   UNL     1       3.476   6.093  18.808  0.00  0.00    +0.000 A 
ATOM     12  C   UNL     1       3.140   5.225  19.842  0.00  0.00    +0.000 A 
ATOM     13  C   UNL     1       2.200   5.609  20.803  0.00  0.00    +0.000 A 
ATOM     14  C   UNL     1       1.562   6.854  20.706  0.00  0.00    +0.000 A 
ATOM     15  C   UNL     1       1.847   7.728  19.649  0.00  0.00    +0.000 A 
ATOM     16  C   UNL     1       2.846   7.333  18.736  0.00  0.00    +0.000 A 
BRANCH  11  18
ATOM     17  C   UNL     1       4.634   4.230  17.887  0.00  0.00    +0.000 C 
ATOM     18  O   UNL     1       4.423   5.639  17.928  0.00  0.00    +0.000 OA
ENDBRANCH  11  18
ENDBRANCH   1  15
BRANCH   4  19
ATOM     19  O   UNL     1       2.559  12.612  19.204  0.00  0.00    +0.000 OA
ATOM     20  C   UNL     1       3.062  13.926  19.021  0.00  0.00    +0.000 C 
ENDBRANCH   4  19
BRANCH   7  21
ATOM     21  O   UNL     1      -2.611  11.783  17.591  0.00  0.00    +0.000 OA
ATOM     22  C   UNL     1      -2.714  11.122  16.321  0.00  0.00    +0.000 C 
ENDBRANCH   7  21
BRANCH  10  23
ATOM     23  C   UNL     1       0.474   9.616  21.815  0.00  0.00    +0.000 C 
BRANCH  23  24
ATOM     24  N   UNL     1       0.132  10.877  22.517  0.00  0.00    +0.000 NA
ATOM     25  H   UNL     1       0.306  11.673  21.904  0.00  0.00    +0.000 HD
BRANCH  24  26
ATOM     26  C   UNL     1      -1.231  10.910  23.047  0.00  0.00    +0.000 C 
BRANCH  26  27
ATOM     27  C   UNL     1      -2.036  12.246  22.941  0.00  0.00    +0.000 C 
ATOM     28  C   UNL     1      -2.496  12.467  21.479  0.00  0.00    +0.000 C 
ATOM     29  C   UNL     1      -3.295  12.241  23.829  0.00  0.00    +0.000 C 
BRANCH  27  30
ATOM     30  C   UNL     1      -1.131  13.483  23.317  0.00  0.00    +0.000 C 
BRANCH  30  31
ATOM     31  N   UNL     1      -0.838  14.540  22.319  0.00  0.00    +0.000 NA
ATOM     32  C   UNL     1      -1.308  15.871  22.702  0.00  0.00    +0.000 C 
ATOM     33  C   UNL     1       0.611  14.617  22.082  0.00  0.00    +0.000 C 
ENDBRANCH  30  31
ENDBRANCH  27  30
ENDBRANCH  26  27
ENDBRANCH  24  26
ENDBRANCH  23  24
ENDBRANCH  10  23
TORSDOF 10
ENDMDL
MODEL 2
REMARK VINA RESULT:      -6.2      3.001      7.205
REMARK  Name = 
REMARK  17 active torsions:
REMARK  status: ('A' for Active; 'I' for Inactive)
REMARK    1  A    between atoms: C_1  and  O_2
REMARK    2  A    between atoms: O_2  and  C_3
REMARK    3  A    between atoms: C_7  and  C_8
REMARK    4  A    between atoms: C_11  and  O_12
REMARK    5  A    between atoms: O_12  and  C_13
REMARK    6  A    between atoms: C_16  and  O_17
REMARK    7  A    between atoms: O_17  and  C_18
REMARK    8  A    between atoms: C_21  and  C_22
REMARK    9  A    between atoms: C_22  and  N_23
REMARK   10  A    between atoms: N_23  and  C_24
REMARK   11  A    between atoms: C_24  and  C_25
REMARK   12  A    between atoms: C_25  and  C_26
REMARK   13  A    between atoms: C_25  and  C_27
REMARK   14  A    between atoms: C_25  and  C_28
REMARK   15  A    between atoms: C_28  and  N_29
REMARK   16  A    between atoms: N_29  and  C_30
REMARK   17  A    between atoms: N_29  and  C_31
REMARK                            x       y       z     vdW  Elec       q    Type
REMARK                         _______ _______ _______ _____ _____    ______ ____
ROOT
ATOM      1  C   UNL     1       0.859  13.839  19.913  0.00  0.00    +0.000 A 
ATOM      2  N   UNL     1       1.317  13.178  20.989  0.00  0.00    +0.000 NA
ATOM      3  C   UNL     1       0.375  12.540  21.705  0.00  0.00    +0.000 A 
ATOM      4  C   UNL     1       0.205  11.138  21.801  0.00  0.00    +0.000 A 
ATOM      5  C   UNL     1      -0.913  10.599  22.449  0.00  0.00    +0.000 A 
ATOM      6  C   UNL     1      -1.794  11.434  23.137  0.00  0.00    +0.000 A 
ATOM      7  C   UNL     1      -1.659  12.802  22.973  0.00  0.00    +0.000 A 
ATOM      8  C   UNL     1      -0.811  13.222  21.945  0.00  0.00    +0.000 A 
ATOM      9  C   UNL     1      -1.308  13.770  20.766  0.00  0.00    +0.000 A 
ATOM     10  C   UNL     1      -0.489  13.715  19.620  0.00  0.00    +0.000 A 
ENDROOT
BRANCH   1  15
ATOM     11  C   UNL     1       2.343  16.783  18.016  0.00  0.00    +0.000 A 
ATOM     12  C   UNL     1       3.525  16.240  17.523  0.00  0.00    +0.000 A 
ATOM     13  C   UNL     1       3.881  14.926  17.842  0.00  0.00    +0.000 A 
ATOM     14  C   UNL     1       3.028  14.136  18.627  0.00  0.00    +0.000 A 
ATOM     15  C   UNL     1       1.810  14.642  19.097  0.00  0.00    +0.000 A 
ATOM     16  C   UNL     1       1.515  15.990  18.809  0.00  0.00    +0.000 A 
BRANCH  11  18
ATOM     17  C   UNL     1       1.066  18.298  16.700  0.00  0.00    +0.000 C 
ATOM     18  O   UNL     1       2.089  18.083  17.669  0.00  0.00    +0.000 OA
ENDBRANCH  11  18
ENDBRANCH   1  15
BRANCH   4  19
ATOM     19  O   UNL     1       0.912  10.194  21.090  0.00  0.00    +0.000 OA
ATOM     20  C   UNL     1       1.379   9.045  21.779  0.00  0.00    +0.000 C 
ENDBRANCH   4  19
BRANCH   7  21
ATOM     21  O   UNL     1      -2.509  13.614  23.662  0.00  0.00    +0.000 OA
ATOM     22  C   UNL     1      -3.724  12.968  24.071  0.00  0.00    +0.000 C 
ENDBRANCH   7  21
BRANCH  10  23
ATOM     23  C   UNL     1      -0.887  13.172  18.256  0.00  0.00    +0.000 C 
BRANCH  23  24
ATOM     24  N   UNL     1      -0.717  11.722  17.994  0.00  0.00    +0.000 NA
ATOM     25  H   UNL     1       0.188  11.412  18.345  0.00  0.00    +0.000 HD
BRANCH  24  26
ATOM     26  C   UNL     1      -1.799  10.892  18.525  0.00  0.00    +0.000 C 
BRANCH  26  27
ATOM     27  C   UNL     1      -3.075  10.686  17.646  0.00  0.00    +0.000 C 
ATOM     28  C   UNL     1      -2.774  11.091  16.181  0.00  0.00    +0.000 C 
ATOM     29  C   UNL     1      -3.545   9.219  17.634  0.00  0.00    +0.000 C 
BRANCH  27  30
ATOM     30  C   UNL     1      -4.254  11.614  18.133  0.00  0.00    +0.000 C 
BRANCH  30  31
ATOM     31  N   UNL     1      -5.615  11.476  17.559  0.00  0.00    +0.000 NA
ATOM     32  C   UNL     1      -6.600  10.918  18.484  0.00  0.00    +0.000 C 
ATOM     33  C   UNL     1      -6.103  12.787  17.108  0.00  0.00    +0.000 C 
ENDBRANCH  30  31
ENDBRANCH  27  30
ENDBRANCH  26  27
ENDBRANCH  24  26
ENDBRANCH  23  24
ENDBRANCH  10  23
TORSDOF 10
ENDMDL
MODEL 3
REMARK VINA RESULT:      -6.2      0.946      1.593
REMARK  Name = 
REMARK  17 active torsions:
REMARK  status: ('A' for Active; 'I' for Inactive)
REMARK    1  A    between atoms: C_1  and  O_2
REMARK    2  A    between atoms: O_2  and  C_3
REMARK    3  A    between atoms: C_7  and  C_8
REMARK    4  A    between atoms: C_11  and  O_12
REMARK    5  A    between atoms: O_12  and  C_13
REMARK    6  A    between atoms: C_16  and  O_17
REMARK    7  A    between atoms: O_17  and  C_18
REMARK    8  A    between atoms: C_21  and  C_22
REMARK    9  A    between atoms: C_22  and  N_23
REMARK   10  A    between atoms: N_23  and  C_24
REMARK   11  A    between atoms: C_24  and  C_25
REMARK   12  A    between atoms: C_25  and  C_26
REMARK   13  A    between atoms: C_25  and  C_27
REMARK   14  A    between atoms: C_25  and  C_28
REMARK   15  A    between atoms: C_28  and  N_29
REMARK   16  A    between atoms: N_29  and  C_30
REMARK   17  A    between atoms: N_29  and  C_31
REMARK                            x       y       z     vdW  Elec       q    Type
REMARK                         _______ _______ _______ _____ _____    ______ ____
ROOT
ATOM      1  C   UNL     1       1.183   8.933  19.530  0.00  0.00    +0.000 A 
ATOM      2  N   UNL     1       1.562   9.721  18.510  0.00  0.00    +0.000 NA
ATOM      3  C   UNL     1       0.861  10.861  18.384  0.00  0.00    +0.000 A 
ATOM      4  C   UNL     1       1.340  12.169  18.638  0.00  0.00    +0.000 A 
ATOM      5  C   UNL     1       0.465  13.262  18.626  0.00  0.00    +0.000 A 
ATOM      6  C   UNL     1      -0.859  13.095  18.216  0.00  0.00    +0.000 A 
ATOM      7  C   UNL     1      -1.331  11.806  18.045  0.00  0.00    +0.000 A 
ATOM      8  C   UNL     1      -0.518  10.778  18.529  0.00  0.00    +0.000 A 
ATOM      9  C   UNL     1      -0.848  10.065  19.679  0.00  0.00    +0.000 A 
ATOM     10  C   UNL     1       0.195   9.418  20.371  0.00  0.00    +0.000 A 
ENDROOT
BRANCH   1  15
ATOM     11  C   UNL     1       3.609   6.049  19.020  0.00  0.00    +0.000 A 
ATOM     12  C   UNL     1       3.144   5.117  19.942  0.00  0.00    +0.000 A 
ATOM     13  C   UNL     1       2.068   5.432  20.778  0.00  0.00    +0.000 A 
ATOM     14  C   UNL     1       1.426   6.674  20.662  0.00  0.00    +0.000 A 
ATOM     15  C   UNL     1       1.844   7.612  19.710  0.00  0.00    +0.000 A 
ATOM     16  C   UNL     1       2.971   7.284  18.929  0.00  0.00    +0.000 A 
BRANCH  11  18
ATOM     17  C   UNL     1       4.390   5.137  16.967  0.00  0.00    +0.000 C 
ATOM     18  O   UNL     1       4.680   5.659  18.261  0.00  0.00    +0.000 OA
ENDBRANCH  11  18
ENDBRANCH   1  15
BRANCH   4  19
ATOM     19  O   UNL     1       2.574  12.483  19.160  0.00  0.00    +0.000 OA
ATOM     20  C   UNL     1       3.082  13.790  18.943  0.00  0.00    +0.000 C 
ENDBRANCH   4  19
BRANCH   7  21
ATOM     21  O   UNL     1      -2.619  11.649  17.626  0.00  0.00    +0.000 OA
ATOM     22  C   UNL     1      -2.736  11.148  16.287  0.00  0.00    +0.000 C 
ENDBRANCH   7  21
BRANCH  10  23
ATOM     23  C   UNL     1       0.506   9.550  21.854  0.00  0.00    +0.000 C 
BRANCH  23  24
ATOM     24  N   UNL     1       0.336  10.875  22.498  0.00  0.00    +0.000 NA
ATOM     25  H   UNL     1       0.702  11.606  21.889  0.00  0.00    +0.000 HD
BRANCH  24  26
ATOM     26  C   UNL     1      -1.042  11.167  22.899  0.00  0.00    +0.000 C 
BRANCH  26  27
ATOM     27  C   UNL     1      -1.637  12.568  22.544  0.00  0.00    +0.000 C 
ATOM     28  C   UNL     1      -0.502  13.521  22.094  0.00  0.00    +0.000 C 
ATOM     29  C   UNL     1      -2.662  12.492  21.396  0.00  0.00    +0.000 C 
BRANCH  27  30
ATOM     30  C   UNL     1      -2.307  13.235  23.807  0.00  0.00    +0.000 C 
BRANCH  30  31
ATOM     31  N   UNL     1      -3.775  13.432  23.872  0.00  0.00    +0.000 NA
ATOM     32  C   UNL     1      -4.461  12.521  24.786  0.00  0.00    +0.000 C 
ATOM     33  C   UNL     1      -4.077  14.810  24.287  0.00  0.00    +0.000 C 
ENDBRANCH  30  31
ENDBRANCH  27  30
ENDBRANCH  26  27
ENDBRANCH  24  26
ENDBRANCH  23  24
ENDBRANCH  10  23
TORSDOF 10
ENDMDL
MODEL 4
REMARK VINA RESULT:      -6.1      2.910      4.661
REMARK  Name = 
REMARK  17 active torsions:
REMARK  status: ('A' for Active; 'I' for Inactive)
REMARK    1  A    between atoms: C_1  and  O_2
REMARK    2  A    between atoms: O_2  and  C_3
REMARK    3  A    between atoms: C_7  and  C_8
REMARK    4  A    between atoms: C_11  and  O_12
REMARK    5  A    between atoms: O_12  and  C_13
REMARK    6  A    between atoms: C_16  and  O_17
REMARK    7  A    between atoms: O_17  and  C_18
REMARK    8  A    between atoms: C_21  and  C_22
REMARK    9  A    between atoms: C_22  and  N_23
REMARK   10  A    between atoms: N_23  and  C_24
REMARK   11  A    between atoms: C_24  and  C_25
REMARK   12  A    between atoms: C_25  and  C_26
REMARK   13  A    between atoms: C_25  and  C_27
REMARK   14  A    between atoms: C_25  and  C_28
REMARK   15  A    between atoms: C_28  and  N_29
REMARK   16  A    between atoms: N_29  and  C_30
REMARK   17  A    between atoms: N_29  and  C_31
REMARK                            x       y       z     vdW  Elec       q    Type
REMARK                         _______ _______ _______ _____ _____    ______ ____
ROOT
ATOM      1  C   UNL     1       0.738  11.444  19.480  0.00  0.00    +0.000 A 
ATOM      2  N   UNL     1       1.292  12.156  20.475  0.00  0.00    +0.000 NA
ATOM      3  C   UNL     1       0.791  13.394  20.633  0.00  0.00    +0.000 A 
ATOM      4  C   UNL     1      -0.007  13.841  21.714  0.00  0.00    +0.000 A 
ATOM      5  C   UNL     1      -0.602  15.108  21.683  0.00  0.00    +0.000 A 
ATOM      6  C   UNL     1      -0.294  16.002  20.657  0.00  0.00    +0.000 A 
ATOM      7  C   UNL     1       0.424  15.527  19.572  0.00  0.00    +0.000 A 
ATOM      8  C   UNL     1       0.569  14.141  19.483  0.00  0.00    +0.000 A 
ATOM      9  C   UNL     1      -0.130  13.392  18.540  0.00  0.00    +0.000 A 
ATOM     10  C   UNL     1      -0.325  12.021  18.804  0.00  0.00    +0.000 A 
ENDROOT
BRANCH   1  15
ATOM     11  C   UNL     1       1.695   7.790  19.923  0.00  0.00    +0.000 A 
ATOM     12  C   UNL     1       2.297   7.501  18.703  0.00  0.00    +0.000 A 
ATOM     13  C   UNL     1       2.354   8.474  17.700  0.00  0.00    +0.000 A 
ATOM     14  C   UNL     1       1.842   9.759  17.935  0.00  0.00    +0.000 A 
ATOM     15  C   UNL     1       1.274  10.091  19.172  0.00  0.00    +0.000 A 
ATOM     16  C   UNL     1       1.176   9.066  20.135  0.00  0.00    +0.000 A 
BRANCH  11  18
ATOM     17  C   UNL     1       2.001   5.471  20.351  0.00  0.00    +0.000 C 
ATOM     18  O   UNL     1       1.666   6.769  20.835  0.00  0.00    +0.000 OA
ENDBRANCH  11  18
ENDBRANCH   1  15
BRANCH   4  19
ATOM     19  O   UNL     1      -0.492  13.051  22.732  0.00  0.00    +0.000 OA
ATOM     20  C   UNL     1      -1.664  12.290  22.492  0.00  0.00    +0.000 C 
ENDBRANCH   4  19
BRANCH   7  21
ATOM     21  O   UNL     1       0.739  16.409  18.582  0.00  0.00    +0.000 OA
ATOM     22  C   UNL     1      -0.385  17.153  18.088  0.00  0.00    +0.000 C 
ENDBRANCH   7  21
BRANCH  10  23
ATOM     23  C   UNL     1      -1.654  11.282  18.776  0.00  0.00    +0.000 C 
BRANCH  23  24
ATOM     24  N   UNL     1      -2.890  12.057  18.511  0.00  0.00    +0.000 NA
ATOM     25  H   UNL     1      -2.702  12.784  17.821  0.00  0.00    +0.000 HD
BRANCH  24  26
ATOM     26  C   UNL     1      -4.032  11.234  18.109  0.00  0.00    +0.000 C 
BRANCH  26  27
ATOM     27  C   UNL     1      -5.471  11.762  18.416  0.00  0.00    +0.000 C 
ATOM     28  C   UNL     1      -6.023  12.525  17.186  0.00  0.00    +0.000 C 
ATOM     29  C   UNL     1      -6.455  10.620  18.735  0.00  0.00    +0.000 C 
BRANCH  27  30
ATOM     30  C   UNL     1      -5.452  12.792  19.611  0.00  0.00    +0.000 C 
BRANCH  30  31
ATOM     31  N   UNL     1      -6.371  12.633  20.765  0.00  0.00    +0.000 NA
ATOM     32  C   UNL     1      -5.733  12.821  22.066  0.00  0.00    +0.000 C 
ATOM     33  C   UNL     1      -7.481  13.590  20.656  0.00  0.00    +0.000 C 
ENDBRANCH  30  31
ENDBRANCH  27  30
ENDBRANCH  26  27
ENDBRANCH  24  26
ENDBRANCH  23  24
ENDBRANCH  10  23
TORSDOF 10
ENDMDL
MODEL 5
REMARK VINA RESULT:      -6.1      1.000      1.670
REMARK  Name = 
REMARK  17 active torsions:
REMARK  status: ('A' for Active; 'I' for Inactive)
REMARK    1  A    between atoms: C_1  and  O_2
REMARK    2  A    between atoms: O_2  and  C_3
REMARK    3  A    between atoms: C_7  and  C_8
REMARK    4  A    between atoms: C_11  and  O_12
REMARK    5  A    between atoms: O_12  and  C_13
REMARK    6  A    between atoms: C_16  and  O_17
REMARK    7  A    between atoms: O_17  and  C_18
REMARK    8  A    between atoms: C_21  and  C_22
REMARK    9  A    between atoms: C_22  and  N_23
REMARK   10  A    between atoms: N_23  and  C_24
REMARK   11  A    between atoms: C_24  and  C_25
REMARK   12  A    between atoms: C_25  and  C_26
REMARK   13  A    between atoms: C_25  and  C_27
REMARK   14  A    between atoms: C_25  and  C_28
REMARK   15  A    between atoms: C_28  and  N_29
REMARK   16  A    between atoms: N_29  and  C_30
REMARK   17  A    between atoms: N_29  and  C_31
REMARK                            x       y       z     vdW  Elec       q    Type
REMARK                         _______ _______ _______ _____ _____    ______ ____
ROOT
ATOM      1  C   UNL     1       1.200   8.953  19.540  0.00  0.00    +0.000 A 
ATOM      2  N   UNL     1       1.566   9.765  18.534  0.00  0.00    +0.000 NA
ATOM      3  C   UNL     1       0.856  10.902  18.438  0.00  0.00    +0.000 A 
ATOM      4  C   UNL     1       1.327  12.208  18.716  0.00  0.00    +0.000 A 
ATOM      5  C   UNL     1       0.445  13.295  18.734  0.00  0.00    +0.000 A 
ATOM      6  C   UNL     1      -0.881  13.127  18.330  0.00  0.00    +0.000 A 
ATOM      7  C   UNL     1      -1.345  11.838  18.134  0.00  0.00    +0.000 A 
ATOM      8  C   UNL     1      -0.522  10.806  18.591  0.00  0.00    +0.000 A 
ATOM      9  C   UNL     1      -0.838  10.067  19.728  0.00  0.00    +0.000 A 
ATOM     10  C   UNL     1       0.215   9.413  20.398  0.00  0.00    +0.000 A 
ENDROOT
BRANCH   1  15
ATOM     11  C   UNL     1       3.597   6.069  18.905  0.00  0.00    +0.000 A 
ATOM     12  C   UNL     1       3.185   5.140  19.855  0.00  0.00    +0.000 A 
ATOM     13  C   UNL     1       2.157   5.456  20.748  0.00  0.00    +0.000 A 
ATOM     14  C   UNL     1       1.508   6.697  20.663  0.00  0.00    +0.000 A 
ATOM     15  C   UNL     1       1.871   7.633  19.687  0.00  0.00    +0.000 A 
ATOM     16  C   UNL     1       2.953   7.304  18.846  0.00  0.00    +0.000 A 
BRANCH  11  18
ATOM     17  C   UNL     1       5.193   4.397  18.346  0.00  0.00    +0.000 C 
ATOM     18  O   UNL     1       4.625   5.678  18.089  0.00  0.00    +0.000 OA
ENDBRANCH  11  18
ENDBRANCH   1  15
BRANCH   4  19
ATOM     19  O   UNL     1       2.563  12.520  19.236  0.00  0.00    +0.000 OA
ATOM     20  C   UNL     1       2.665  13.638  20.103  0.00  0.00    +0.000 C 
ENDBRANCH   4  19
BRANCH   7  21
ATOM     21  O   UNL     1      -2.635  11.681  17.721  0.00  0.00    +0.000 OA
ATOM     22  C   UNL     1      -2.758  11.152  16.393  0.00  0.00    +0.000 C 
ENDBRANCH   7  21
BRANCH  10  23
ATOM     23  C   UNL     1       0.536   9.516  21.882  0.00  0.00    +0.000 C 
BRANCH  23  24
ATOM     24  N   UNL     1       0.330  10.817  22.562  0.00  0.00    +0.000 NA
ATOM     25  H   UNL     1       0.738  11.567  22.005  0.00  0.00    +0.000 HD
BRANCH  24  26
ATOM     26  C   UNL     1      -1.068  11.103  22.885  0.00  0.00    +0.000 C 
BRANCH  26  27
ATOM     27  C   UNL     1      -1.610  12.546  22.623  0.00  0.00    +0.000 C 
ATOM     28  C   UNL     1      -2.259  13.105  23.914  0.00  0.00    +0.000 C 
ATOM     29  C   UNL     1      -0.493  13.522  22.205  0.00  0.00    +0.000 C 
BRANCH  27  30
ATOM     30  C   UNL     1      -2.740  12.535  21.523  0.00  0.00    +0.000 C 
BRANCH  30  31
ATOM     31  N   UNL     1      -3.966  13.354  21.686  0.00  0.00    +0.000 NA
ATOM     32  C   UNL     1      -3.946  14.615  20.947  0.00  0.00    +0.000 C 
ATOM     33  C   UNL     1      -5.142  12.586  21.250  0.00  0.00    +0.000 C 
ENDBRANCH  30  31
ENDBRANCH  27  30
ENDBRANCH  26  27
ENDBRANCH  24  26
ENDBRANCH  23  24
ENDBRANCH  10  23
TORSDOF 10
ENDMDL
MODEL 6
REMARK VINA RESULT:      -6.1      2.517      4.681
REMARK  Name = 
REMARK  17 active torsions:
REMARK  status: ('A' for Active; 'I' for Inactive)
REMARK    1  A    between atoms: C_1  and  O_2
REMARK    2  A    between atoms: O_2  and  C_3
REMARK    3  A    between atoms: C_7  and  C_8
REMARK    4  A    between atoms: C_11  and  O_12
REMARK    5  A    between atoms: O_12  and  C_13
REMARK    6  A    between atoms: C_16  and  O_17
REMARK    7  A    between atoms: O_17  and  C_18
REMARK    8  A    between atoms: C_21  and  C_22
REMARK    9  A    between atoms: C_22  and  N_23
REMARK   10  A    between atoms: N_23  and  C_24
REMARK   11  A    between atoms: C_24  and  C_25
REMARK   12  A    between atoms: C_25  and  C_26
REMARK   13  A    between atoms: C_25  and  C_27
REMARK   14  A    between atoms: C_25  and  C_28
REMARK   15  A    between atoms: C_28  and  N_29
REMARK   16  A    between atoms: N_29  and  C_30
REMARK   17  A    between atoms: N_29  and  C_31
REMARK                            x       y       z     vdW  Elec       q    Type
REMARK                         _______ _______ _______ _____ _____    ______ ____
ROOT
ATOM      1  C   UNL     1       1.216   9.630  19.861  0.00  0.00    +0.000 A 
ATOM      2  N   UNL     1       1.192  10.257  21.049  0.00  0.00    +0.000 NA
ATOM      3  C   UNL     1       0.876  11.562  20.993  0.00  0.00    +0.000 A 
ATOM      4  C   UNL     1      -0.324  12.152  21.460  0.00  0.00    +0.000 A 
ATOM      5  C   UNL     1      -0.604  13.498  21.199  0.00  0.00    +0.000 A 
ATOM      6  C   UNL     1       0.363  14.313  20.608  0.00  0.00    +0.000 A 
ATOM      7  C   UNL     1       1.496  13.710  20.090  0.00  0.00    +0.000 A 
ATOM      8  C   UNL     1       1.465  12.317  19.987  0.00  0.00    +0.000 A 
ATOM      9  C   UNL     1       1.337  11.678  18.757  0.00  0.00    +0.000 A 
ATOM     10  C   UNL     1       0.832  10.362  18.750  0.00  0.00    +0.000 A 
ENDROOT
BRANCH   1  15
ATOM     11  C   UNL     1       2.777   6.407  18.579  0.00  0.00    +0.000 A 
ATOM     12  C   UNL     1       2.431   5.503  19.578  0.00  0.00    +0.000 A 
ATOM     13  C   UNL     1       1.729   5.939  20.707  0.00  0.00    +0.000 A 
ATOM     14  C   UNL     1       1.336   7.280  20.817  0.00  0.00    +0.000 A 
ATOM     15  C   UNL     1       1.631   8.202  19.804  0.00  0.00    +0.000 A 
ATOM     16  C   UNL     1       2.394   7.740  18.712  0.00  0.00    +0.000 A 
BRANCH  11  18
ATOM     17  C   UNL     1       4.516   6.715  16.986  0.00  0.00    +0.000 C 
ATOM     18  O   UNL     1       3.483   5.894  17.523  0.00  0.00    +0.000 OA
ENDBRANCH  11  18
ENDBRANCH   1  15
BRANCH   4  19
ATOM     19  O   UNL     1      -1.414  11.469  21.952  0.00  0.00    +0.000 OA
ATOM     20  C   UNL     1      -1.298  10.845  23.221  0.00  0.00    +0.000 C 
ENDBRANCH   4  19
BRANCH   7  21
ATOM     21  O   UNL     1       2.446  14.511  19.531  0.00  0.00    +0.000 OA
ATOM     22  C   UNL     1       3.668  14.573  20.280  0.00  0.00    +0.000 C 
ENDBRANCH   7  21
BRANCH  10  23
ATOM     23  C   UNL     1      -0.329   9.851  17.910  0.00  0.00    +0.000 C 
BRANCH  23  24
ATOM     24  N   UNL     1      -1.194  10.839  17.221  0.00  0.00    +0.000 NA
ATOM     25  H   UNL     1      -1.489  10.469  16.318  0.00  0.00    +0.000 HD
BRANCH  24  26
ATOM     26  C   UNL     1      -2.345  11.275  18.013  0.00  0.00    +0.000 C 
BRANCH  26  27
ATOM     27  C   UNL     1      -3.764  10.764  17.602  0.00  0.00    +0.000 C 
ATOM     28  C   UNL     1      -3.971  10.961  16.080  0.00  0.00    +0.000 C 
ATOM     29  C   UNL     1      -3.956   9.266  17.907  0.00  0.00    +0.000 C 
BRANCH  27  30
ATOM     30  C   UNL     1      -4.895  11.598  18.319  0.00  0.00    +0.000 C 
BRANCH  30  31
ATOM     31  N   UNL     1      -6.327  11.297  18.081  0.00  0.00    +0.000 NA
ATOM     32  C   UNL     1      -7.050  10.852  19.271  0.00  0.00    +0.000 C 
ATOM     33  C   UNL     1      -7.008  12.486  17.550  0.00  0.00    +0.000 C 
ENDBRANCH  30  31
ENDBRANCH  27  30
ENDBRANCH  26  27
ENDBRANCH  24  26
ENDBRANCH  23  24
ENDBRANCH  10  23
TORSDOF 10
ENDMDL
MODEL 7
REMARK VINA RESULT:      -6.0      1.244      2.130
REMARK  Name = 
REMARK  17 active torsions:
REMARK  status: ('A' for Active; 'I' for Inactive)
REMARK    1  A    between atoms: C_1  and  O_2
REMARK    2  A    between atoms: O_2  and  C_3
REMARK    3  A    between atoms: C_7  and  C_8
REMARK    4  A    between atoms: C_11  and  O_12
REMARK    5  A    between atoms: O_12  and  C_13
REMARK    6  A    between atoms: C_16  and  O_17
REMARK    7  A    between atoms: O_17  and  C_18
REMARK    8  A    between atoms: C_21  and  C_22
REMARK    9  A    between atoms: C_22  and  N_23
REMARK   10  A    between atoms: N_23  and  C_24
REMARK   11  A    between atoms: C_24  and  C_25
REMARK   12  A    between atoms: C_25  and  C_26
REMARK   13  A    between atoms: C_25  and  C_27
REMARK   14  A    between atoms: C_25  and  C_28
REMARK   15  A    between atoms: C_28  and  N_29
REMARK   16  A    between atoms: N_29  and  C_30
REMARK   17  A    between atoms: N_29  and  C_31
REMARK                            x       y       z     vdW  Elec       q    Type
REMARK                         _______ _______ _______ _____ _____    ______ ____
ROOT
ATOM      1  C   UNL     1       1.470   9.086  19.033  0.00  0.00    +0.000 A 
ATOM      2  N   UNL     1       1.758  10.028  18.120  0.00  0.00    +0.000 NA
ATOM      3  C   UNL     1       0.968  11.115  18.161  0.00  0.00    +0.000 A 
ATOM      4  C   UNL     1       1.353  12.412  18.578  0.00  0.00    +0.000 A 
ATOM      5  C   UNL     1       0.397  13.424  18.729  0.00  0.00    +0.000 A 
ATOM      6  C   UNL     1      -0.922  13.208  18.326  0.00  0.00    +0.000 A 
ATOM      7  C   UNL     1      -1.299  11.918  17.993  0.00  0.00    +0.000 A 
ATOM      8  C   UNL     1      -0.396  10.904  18.320  0.00  0.00    +0.000 A 
ATOM      9  C   UNL     1      -0.636  10.022  19.370  0.00  0.00    +0.000 A 
ATOM     10  C   UNL     1       0.473   9.375  19.950  0.00  0.00    +0.000 A 
ENDROOT
BRANCH   1  15
ATOM     11  C   UNL     1       2.657   5.618  20.049  0.00  0.00    +0.000 A 
ATOM     12  C   UNL     1       3.657   5.371  19.115  0.00  0.00    +0.000 A 
ATOM     13  C   UNL     1       3.925   6.306  18.110  0.00  0.00    +0.000 A 
ATOM     14  C   UNL     1       3.215   7.515  18.065  0.00  0.00    +0.000 A 
ATOM     15  C   UNL     1       2.235   7.809  19.022  0.00  0.00    +0.000 A 
ATOM     16  C   UNL     1       1.949   6.816  19.980  0.00  0.00    +0.000 A 
BRANCH  11  18
ATOM     17  C   UNL     1       1.252   3.876  20.855  0.00  0.00    +0.000 C 
ATOM     18  O   UNL     1       2.451   4.636  20.982  0.00  0.00    +0.000 OA
ENDBRANCH  11  18
ENDBRANCH   1  15
BRANCH   4  19
ATOM     19  O   UNL     1       2.574  12.753  19.114  0.00  0.00    +0.000 OA
ATOM     20  C   UNL     1       2.718  14.038  19.696  0.00  0.00    +0.000 C 
ENDBRANCH   4  19
BRANCH   7  21
ATOM     21  O   UNL     1      -2.583  11.716  17.581  0.00  0.00    +0.000 OA
ATOM     22  C   UNL     1      -2.689  11.008  16.338  0.00  0.00    +0.000 C 
ENDBRANCH   7  21
BRANCH  10  23
ATOM     23  C   UNL     1       0.817   9.335  21.431  0.00  0.00    +0.000 C 
BRANCH  23  24
ATOM     24  N   UNL     1       0.671  10.579  22.225  0.00  0.00    +0.000 NA
ATOM     25  H   UNL     1       1.056  11.368  21.707  0.00  0.00    +0.000 HD
BRANCH  24  26
ATOM     26  C   UNL     1      -0.702  10.851  22.654  0.00  0.00    +0.000 C 
BRANCH  26  27
ATOM     27  C   UNL     1      -1.257  12.303  22.487  0.00  0.00    +0.000 C 
ATOM     28  C   UNL     1      -1.859  12.792  23.827  0.00  0.00    +0.000 C 
ATOM     29  C   UNL     1      -0.159  13.304  22.079  0.00  0.00    +0.000 C 
BRANCH  27  30
ATOM     30  C   UNL     1      -2.427  12.343  21.429  0.00  0.00    +0.000 C 
BRANCH  30  31
ATOM     31  N   UNL     1      -3.567  13.278  21.593  0.00  0.00    +0.000 NA
ATOM     32  C   UNL     1      -3.394  14.557  20.906  0.00  0.00    +0.000 C 
ATOM     33  C   UNL     1      -4.801  12.654  21.097  0.00  0.00    +0.000 C 
ENDBRANCH  30  31
ENDBRANCH  27  30
ENDBRANCH  26  27
ENDBRANCH  24  26
ENDBRANCH  23  24
ENDBRANCH  10  23
TORSDOF 10
ENDMDL
MODEL 8
REMARK VINA RESULT:      -6.0      3.536      7.273
REMARK  Name = 
REMARK  17 active torsions:
REMARK  status: ('A' for Active; 'I' for Inactive)
REMARK    1  A    between atoms: C_1  and  O_2
REMARK    2  A    between atoms: O_2  and  C_3
REMARK    3  A    between atoms: C_7  and  C_8
REMARK    4  A    between atoms: C_11  and  O_12
REMARK    5  A    between atoms: O_12  and  C_13
REMARK    6  A    between atoms: C_16  and  O_17
REMARK    7  A    between atoms: O_17  and  C_18
REMARK    8  A    between atoms: C_21  and  C_22
REMARK    9  A    between atoms: C_22  and  N_23
REMARK   10  A    between atoms: N_23  and  C_24
REMARK   11  A    between atoms: C_24  and  C_25
REMARK   12  A    between atoms: C_25  and  C_26
REMARK   13  A    between atoms: C_25  and  C_27
REMARK   14  A    between atoms: C_25  and  C_28
REMARK   15  A    between atoms: C_28  and  N_29
REMARK   16  A    between atoms: N_29  and  C_30
REMARK   17  A    between atoms: N_29  and  C_31
REMARK                            x       y       z     vdW  Elec       q    Type
REMARK                         _______ _______ _______ _____ _____    ______ ____
ROOT
ATOM      1  C   UNL     1      -2.516  12.455  22.598  0.00  0.00    +0.000 A 
ATOM      2  N   UNL     1      -3.353  12.274  23.633  0.00  0.00    +0.000 NA
ATOM      3  C   UNL     1      -4.251  13.258  23.813  0.00  0.00    +0.000 A 
ATOM      4  C   UNL     1      -5.646  13.168  23.589  0.00  0.00    +0.000 A 
ATOM      5  C   UNL     1      -6.453  14.310  23.658  0.00  0.00    +0.000 A 
ATOM      6  C   UNL     1      -5.917  15.521  24.097  0.00  0.00    +0.000 A 
ATOM      7  C   UNL     1      -4.543  15.613  24.239  0.00  0.00    +0.000 A 
ATOM      8  C   UNL     1      -3.793  14.565  23.701  0.00  0.00    +0.000 A 
ATOM      9  C   UNL     1      -3.045  14.723  22.537  0.00  0.00    +0.000 A 
ATOM     10  C   UNL     1      -2.728  13.566  21.798  0.00  0.00    +0.000 A 
ENDROOT
BRANCH   1  15
ATOM     11  C   UNL     1       0.334  10.614  20.879  0.00  0.00    +0.000 A 
ATOM     12  C   UNL     1       0.612   9.600  21.789  0.00  0.00    +0.000 A 
ATOM     13  C   UNL     1      -0.089   9.531  22.998  0.00  0.00    +0.000 A 
ATOM     14  C   UNL     1      -1.102  10.458  23.279  0.00  0.00    +0.000 A 
ATOM     15  C   UNL     1      -1.434  11.461  22.359  0.00  0.00    +0.000 A 
ATOM     16  C   UNL     1      -0.664  11.538  21.181  0.00  0.00    +0.000 A 
BRANCH  11  18
ATOM     17  C   UNL     1       1.413  11.889  19.185  0.00  0.00    +0.000 C 
ATOM     18  O   UNL     1       1.085  10.615  19.733  0.00  0.00    +0.000 OA
ENDBRANCH  11  18
ENDBRANCH   1  15
BRANCH   4  19
ATOM     19  O   UNL     1      -6.303  12.086  23.046  0.00  0.00    +0.000 OA
ATOM     20  C   UNL     1      -7.701  11.976  23.255  0.00  0.00    +0.000 C 
ENDBRANCH   4  19
BRANCH   7  21
ATOM     21  O   UNL     1      -4.026  16.792  24.685  0.00  0.00    +0.000 OA
ATOM     22  C   UNL     1      -4.466  17.938  23.941  0.00  0.00    +0.000 C 
ENDBRANCH   7  21
BRANCH  10  23
ATOM     23  C   UNL     1      -2.977  13.353  20.313  0.00  0.00    +0.000 C 
BRANCH  23  24
ATOM     24  N   UNL     1      -3.952  12.314  19.900  0.00  0.00    +0.000 NA
ATOM     25  H   UNL     1      -4.147  11.692  20.683  0.00  0.00    +0.000 HD
BRANCH  24  26
ATOM     26  C   UNL     1      -5.190  12.854  19.335  0.00  0.00    +0.000 C 
BRANCH  26  27
ATOM     27  C   UNL     1      -6.159  11.872  18.601  0.00  0.00    +0.000 C 
ATOM     28  C   UNL     1      -7.138  11.240  19.622  0.00  0.00    +0.000 C 
ATOM     29  C   UNL     1      -7.004  12.581  17.525  0.00  0.00    +0.000 C 
BRANCH  27  30
ATOM     30  C   UNL     1      -5.365  10.677  17.945  0.00  0.00    +0.000 C 
BRANCH  30  31
ATOM     31  N   UNL     1      -4.002  10.882  17.397  0.00  0.00    +0.000 NA
ATOM     32  C   UNL     1      -3.079   9.779  17.660  0.00  0.00    +0.000 C 
ATOM     33  C   UNL     1      -4.073  11.082  15.942  0.00  0.00    +0.000 C 
ENDBRANCH  30  31
ENDBRANCH  27  30
ENDBRANCH  26  27
ENDBRANCH  24  26
ENDBRANCH  23  24
ENDBRANCH  10  23
TORSDOF 10
ENDMDL
MODEL 9
REMARK VINA RESULT:      -6.0      2.541      4.979
REMARK  Name = 
REMARK  17 active torsions:
REMARK  status: ('A' for Active; 'I' for Inactive)
REMARK    1  A    between atoms: C_1  and  O_2
REMARK    2  A    between atoms: O_2  and  C_3
REMARK    3  A    between atoms: C_7  and  C_8
REMARK    4  A    between atoms: C_11  and  O_12
REMARK    5  A    between atoms: O_12  and  C_13
REMARK    6  A    between atoms: C_16  and  O_17
REMARK    7  A    between atoms: O_17  and  C_18
REMARK    8  A    between atoms: C_21  and  C_22
REMARK    9  A    between atoms: C_22  and  N_23
REMARK   10  A    between atoms: N_23  and  C_24
REMARK   11  A    between atoms: C_24  and  C_25
REMARK   12  A    between atoms: C_25  and  C_26
REMARK   13  A    between atoms: C_25  and  C_27
REMARK   14  A    between atoms: C_25  and  C_28
REMARK   15  A    between atoms: C_28  and  N_29
REMARK   16  A    between atoms: N_29  and  C_30
REMARK   17  A    between atoms: N_29  and  C_31
REMARK                            x       y       z     vdW  Elec       q    Type
REMARK                         _______ _______ _______ _____ _____    ______ ____
ROOT
ATOM      1  C   UNL     1       0.679  10.858  19.787  0.00  0.00    +0.000 A 
ATOM      2  N   UNL     1       1.180  11.561  20.816  0.00  0.00    +0.000 NA
ATOM      3  C   UNL     1       0.570  12.737  21.048  0.00  0.00    +0.000 A 
ATOM      4  C   UNL     1      -0.249  13.048  22.159  0.00  0.00    +0.000 A 
ATOM      5  C   UNL     1      -0.958  14.255  22.205  0.00  0.00    +0.000 A 
ATOM      6  C   UNL     1      -0.747  15.229  21.229  0.00  0.00    +0.000 A 
ATOM      7  C   UNL     1      -0.005  14.883  20.112  0.00  0.00    +0.000 A 
ATOM      8  C   UNL     1       0.265  13.523  19.944  0.00  0.00    +0.000 A 
ATOM      9  C   UNL     1      -0.376  12.766  18.966  0.00  0.00    +0.000 A 
ATOM     10  C   UNL     1      -0.441  11.371  19.154  0.00  0.00    +0.000 A 
ENDROOT
BRANCH   1  15
ATOM     11  C   UNL     1       1.919   7.268  19.991  0.00  0.00    +0.000 A 
ATOM     12  C   UNL     1       2.575   7.121  18.774  0.00  0.00    +0.000 A 
ATOM     13  C   UNL     1       2.580   8.169  17.848  0.00  0.00    +0.000 A 
ATOM     14  C   UNL     1       1.959   9.387  18.160  0.00  0.00    +0.000 A 
ATOM     15  C   UNL     1       1.332   9.578  19.398  0.00  0.00    +0.000 A 
ATOM     16  C   UNL     1       1.292   8.479  20.279  0.00  0.00    +0.000 A 
BRANCH  11  18
ATOM     17  C   UNL     1       2.591   5.011  20.324  0.00  0.00    +0.000 C 
ATOM     18  O   UNL     1       1.948   6.181  20.824  0.00  0.00    +0.000 OA
ENDBRANCH  11  18
ENDBRANCH   1  15
BRANCH   4  19
ATOM     19  O   UNL     1      -0.646  12.162  23.136  0.00  0.00    +0.000 OA
ATOM     20  C   UNL     1      -1.963  11.638  23.073  0.00  0.00    +0.000 C 
ENDBRANCH   4  19
BRANCH   7  21
ATOM     21  O   UNL     1       0.214  15.843  19.170  0.00  0.00    +0.000 OA
ATOM     22  C   UNL     1       1.592  15.983  18.794  0.00  0.00    +0.000 C 
ENDBRANCH   7  21
BRANCH  10  23
ATOM     23  C   UNL     1      -1.697  10.515  19.096  0.00  0.00    +0.000 C 
BRANCH  23  24
ATOM     24  N   UNL     1      -1.904   9.641  17.916  0.00  0.00    +0.000 NA
ATOM     25  H   UNL     1      -1.571   8.699  18.121  0.00  0.00    +0.000 HD
BRANCH  24  26
ATOM     26  C   UNL     1      -3.285   9.616  17.431  0.00  0.00    +0.000 C 
BRANCH  26  27
ATOM     27  C   UNL     1      -3.711  10.666  16.354  0.00  0.00    +0.000 C 
ATOM     28  C   UNL     1      -2.549  11.657  16.099  0.00  0.00    +0.000 C 
ATOM     29  C   UNL     1      -4.066  10.009  15.007  0.00  0.00    +0.000 C 
BRANCH  27  30
ATOM     30  C   UNL     1      -4.932  11.529  16.858  0.00  0.00    +0.000 C 
BRANCH  30  31
ATOM     31  N   UNL     1      -5.393  11.444  18.265  0.00  0.00    +0.000 NA
ATOM     32  C   UNL     1      -5.372  12.720  18.979  0.00  0.00    +0.000 C 
ATOM     33  C   UNL     1      -6.763  10.915  18.313  0.00  0.00    +0.000 C 
ENDBRANCH  30  31
ENDBRANCH  27  30
ENDBRANCH  26  27
ENDBRANCH  24  26
ENDBRANCH  23  24
ENDBRANCH  10  23
TORSDOF 10
ENDMDL
