MODEL 1
REMARK VINA RESULT:      -8.6      0.000      0.000
REMARK  Name = 
REMARK  6 active torsions:
REMARK  status: ('A' for Active; 'I' for Inactive)
REMARK    1  A    between atoms: C_7  and  N_8
REMARK    2  A    between atoms: C_10  and  C_11
REMARK    3  A    between atoms: C_14  and  O_15
REMARK    4  A    between atoms: O_15  and  C_16
REMARK    5  A    between atoms: C_16  and  C_17
REMARK    6  A    between atoms: N_26  and  C_27
REMARK                            x       y       z     vdW  Elec       q    Type
REMARK                         _______ _______ _______ _____ _____    ______ ____
ROOT
ATOM      1  N   UNL     1       3.647   6.541  17.778  0.00  0.00    +0.000 N 
ATOM      2  N   UNL     1       3.566   7.911  17.810  0.00  0.00    +0.000 NA
ATOM      3  C   UNL     1       2.294   8.100  18.115  0.00  0.00    +0.000 A 
ATOM      4  N   UNL     1       1.549   7.017  18.280  0.00  0.00    +0.000 NA
ATOM      5  N   UNL     1       2.486   6.024  18.118  0.00  0.00    +0.000 N 
ENDROOT
BRANCH   1  12
ATOM      6  F   UNL     1       5.508   5.326  19.554  0.00  0.00    +0.000 F 
ATOM      7  C   UNL     1       5.781   5.359  18.243  0.00  0.00    +0.000 A 
ATOM      8  C   UNL     1       7.009   4.873  17.806  0.00  0.00    +0.000 A 
ATOM      9  C   UNL     1       7.285   4.832  16.438  0.00  0.00    +0.000 A 
ATOM     10  C   UNL     1       6.323   5.259  15.521  0.00  0.00    +0.000 A 
ATOM     11  C   UNL     1       5.108   5.782  15.967  0.00  0.00    +0.000 A 
ATOM     12  C   UNL     1       4.862   5.865  17.328  0.00  0.00    +0.000 A 
ENDBRANCH   1  12
BRANCH   3  13
ATOM     13  C   UNL     1       1.726   9.448  18.251  0.00  0.00    +0.000 A 
ATOM     14  C   UNL     1       0.380   9.614  18.611  0.00  0.00    +0.000 A 
ATOM     15  C   UNL     1      -0.167  10.891  18.778  0.00  0.00    +0.000 A 
ATOM     16  C   UNL     1       0.623  12.024  18.610  0.00  0.00    +0.000 A 
ATOM     17  C   UNL     1       1.950  11.878  18.204  0.00  0.00    +0.000 A 
ATOM     18  C   UNL     1       2.500  10.603  18.032  0.00  0.00    +0.000 A 
BRANCH  16  19
ATOM     19  O   UNL     1       0.200  13.312  18.817  0.00  0.00    +0.000 OA
BRANCH  19  20
ATOM     20  C   UNL     1       1.202  14.202  19.322  0.00  0.00    +0.000 C 
BRANCH  20  21
ATOM     21  C   UNL     1       1.037  15.553  18.684  0.00  0.00    +0.000 A 
ATOM     22  C   UNL     1      -0.229  16.140  18.562  0.00  0.00    +0.000 A 
ATOM     23  C   UNL     1      -0.373  17.395  17.976  0.00  0.00    +0.000 A 
ATOM     24  C   UNL     1       0.748  18.079  17.502  0.00  0.00    +0.000 A 
ATOM     25  C   UNL     1       2.015  17.506  17.623  0.00  0.00    +0.000 A 
ATOM     26  C   UNL     1       2.158  16.254  18.210  0.00  0.00    +0.000 A 
ENDBRANCH  20  21
ENDBRANCH  19  20
ENDBRANCH  16  19
ENDBRANCH   3  13
BRANCH   5  27
ATOM     27  C   UNL     1       2.174   4.643  18.472  0.00  0.00    +0.000 A 
ATOM     28  C   UNL     1       2.413   3.653  17.521  0.00  0.00    +0.000 A 
ATOM     29  C   UNL     1       2.185   2.322  17.868  0.00  0.00    +0.000 A 
ATOM     30  C   UNL     1       1.713   2.002  19.144  0.00  0.00    +0.000 A 
ATOM     31  C   UNL     1       1.438   3.010  20.071  0.00  0.00    +0.000 A 
ATOM     32  C   UNL     1       1.648   4.344  19.728  0.00  0.00    +0.000 A 
ENDBRANCH   5  27
TORSDOF 6
ENDMDL
MODEL 2
REMARK VINA RESULT:      -8.6      3.855     10.111
REMARK  Name = 
REMARK  6 active torsions:
REMARK  status: ('A' for Active; 'I' for Inactive)
REMARK    1  A    between atoms: C_7  and  N_8
REMARK    2  A    between atoms: C_10  and  C_11
REMARK    3  A    between atoms: C_14  and  O_15
REMARK    4  A    between atoms: O_15  and  C_16
REMARK    5  A    between atoms: C_16  and  C_17
REMARK    6  A    between atoms: N_26  and  C_27
REMARK                            x       y       z     vdW  Elec       q    Type
REMARK                         _______ _______ _______ _____ _____    ______ ____
ROOT
ATOM      1  N   UNL     1      -0.529  11.451  20.631  0.00  0.00    +0.000 N 
ATOM      2  N   UNL     1      -0.228  10.111  20.607  0.00  0.00    +0.000 NA
ATOM      3  C   UNL     1       0.784  10.078  19.757  0.00  0.00    +0.000 A 
ATOM      4  N   UNL     1       1.165  11.233  19.231  0.00  0.00    +0.000 NA
ATOM      5  N   UNL     1       0.327  12.109  19.881  0.00  0.00    +0.000 N 
ENDROOT
BRANCH   1  12
ATOM      6  F   UNL     1      -2.864  12.408  19.316  0.00  0.00    +0.000 F 
ATOM      7  C   UNL     1      -2.789  12.482  20.653  0.00  0.00    +0.000 A 
ATOM      8  C   UNL     1      -3.823  13.106  21.344  0.00  0.00    +0.000 A 
ATOM      9  C   UNL     1      -3.798  13.130  22.739  0.00  0.00    +0.000 A 
ATOM     10  C   UNL     1      -2.752  12.515  23.429  0.00  0.00    +0.000 A 
ATOM     11  C   UNL     1      -1.698  11.925  22.728  0.00  0.00    +0.000 A 
ATOM     12  C   UNL     1      -1.705  11.948  21.343  0.00  0.00    +0.000 A 
ENDBRANCH   1  12
BRANCH   3  13
ATOM     13  C   UNL     1       1.447   8.817  19.397  0.00  0.00    +0.000 A 
ATOM     14  C   UNL     1       1.918   8.615  18.091  0.00  0.00    +0.000 A 
ATOM     15  C   UNL     1       2.583   7.435  17.742  0.00  0.00    +0.000 A 
ATOM     16  C   UNL     1       2.808   6.444  18.693  0.00  0.00    +0.000 A 
ATOM     17  C   UNL     1       2.303   6.608  19.983  0.00  0.00    +0.000 A 
ATOM     18  C   UNL     1       1.635   7.786  20.336  0.00  0.00    +0.000 A 
BRANCH  16  19
ATOM     19  O   UNL     1       3.506   5.286  18.468  0.00  0.00    +0.000 OA
BRANCH  19  20
ATOM     20  C   UNL     1       4.391   5.324  17.342  0.00  0.00    +0.000 C 
BRANCH  20  21
ATOM     21  C   UNL     1       5.721   5.878  17.772  0.00  0.00    +0.000 A 
ATOM     22  C   UNL     1       6.282   6.984  17.121  0.00  0.00    +0.000 A 
ATOM     23  C   UNL     1       7.512   7.496  17.530  0.00  0.00    +0.000 A 
ATOM     24  C   UNL     1       8.196   6.906  18.594  0.00  0.00    +0.000 A 
ATOM     25  C   UNL     1       7.644   5.806  19.252  0.00  0.00    +0.000 A 
ATOM     26  C   UNL     1       6.416   5.298  18.845  0.00  0.00    +0.000 A 
ENDBRANCH  20  21
ENDBRANCH  19  20
ENDBRANCH  16  19
ENDBRANCH   3  13
BRANCH   5  27
ATOM     27  C   UNL     1       0.559  13.547  19.812  0.00  0.00    +0.000 A 
ATOM     28  C   UNL     1      -0.105  14.272  18.824  0.00  0.00    +0.000 A 
ATOM     29  C   UNL     1       0.052  15.656  18.788  0.00  0.00    +0.000 A 
ATOM     30  C   UNL     1       0.872  16.292  19.724  0.00  0.00    +0.000 A 
ATOM     31  C   UNL     1       1.564  15.547  20.681  0.00  0.00    +0.000 A 
ATOM     32  C   UNL     1       1.426  14.161  20.715  0.00  0.00    +0.000 A 
ENDBRANCH   5  27
TORSDOF 6
ENDMDL
MODEL 3
REMARK VINA RESULT:      -8.6      2.000      3.253
REMARK  Name = 
REMARK  6 active torsions:
REMARK  status: ('A' for Active; 'I' for Inactive)
REMARK    1  A    between atoms: C_7  and  N_8
REMARK    2  A    between atoms: C_10  and  C_11
REMARK    3  A    between atoms: C_14  and  O_15
REMARK    4  A    between atoms: O_15  and  C_16
REMARK    5  A    between atoms: C_16  and  C_17
REMARK    6  A    between atoms: N_26  and  C_27
REMARK                            x       y       z     vdW  Elec       q    Type
REMARK                         _______ _______ _______ _____ _____    ______ ____
ROOT
ATOM      1  N   UNL     1       3.742   6.604  17.858  0.00  0.00    +0.000 N 
ATOM      2  N   UNL     1       3.560   7.963  17.917  0.00  0.00    +0.000 NA
ATOM      3  C   UNL     1       2.253   8.054  18.093  0.00  0.00    +0.000 A 
ATOM      4  N   UNL     1       1.575   6.917  18.150  0.00  0.00    +0.000 NA
ATOM      5  N   UNL     1       2.593   5.997  18.062  0.00  0.00    +0.000 N 
ENDROOT
BRANCH   1  12
ATOM      6  F   UNL     1       4.851   6.677  15.239  0.00  0.00    +0.000 F 
ATOM      7  C   UNL     1       5.503   6.018  16.207  0.00  0.00    +0.000 A 
ATOM      8  C   UNL     1       6.659   5.319  15.875  0.00  0.00    +0.000 A 
ATOM      9  C   UNL     1       7.391   4.686  16.881  0.00  0.00    +0.000 A 
ATOM     10  C   UNL     1       6.972   4.775  18.209  0.00  0.00    +0.000 A 
ATOM     11  C   UNL     1       5.790   5.445  18.530  0.00  0.00    +0.000 A 
ATOM     12  C   UNL     1       5.042   6.029  17.521  0.00  0.00    +0.000 A 
ENDBRANCH   1  12
BRANCH   3  13
ATOM     13  C   UNL     1       1.578   9.354  18.204  0.00  0.00    +0.000 A 
ATOM     14  C   UNL     1       0.177   9.420  18.249  0.00  0.00    +0.000 A 
ATOM     15  C   UNL     1      -0.480  10.647  18.389  0.00  0.00    +0.000 A 
ATOM     16  C   UNL     1       0.249  11.828  18.508  0.00  0.00    +0.000 A 
ATOM     17  C   UNL     1       1.640  11.784  18.415  0.00  0.00    +0.000 A 
ATOM     18  C   UNL     1       2.301  10.559  18.272  0.00  0.00    +0.000 A 
BRANCH  16  19
ATOM     19  O   UNL     1      -0.297  13.068  18.717  0.00  0.00    +0.000 OA
BRANCH  19  20
ATOM     20  C   UNL     1       0.032  13.668  19.975  0.00  0.00    +0.000 C 
BRANCH  20  21
ATOM     21  C   UNL     1      -0.843  13.084  21.050  0.00  0.00    +0.000 A 
ATOM     22  C   UNL     1      -2.167  13.511  21.208  0.00  0.00    +0.000 A 
ATOM     23  C   UNL     1      -2.974  12.960  22.201  0.00  0.00    +0.000 A 
ATOM     24  C   UNL     1      -2.465  11.976  23.050  0.00  0.00    +0.000 A 
ATOM     25  C   UNL     1      -1.147  11.540  22.899  0.00  0.00    +0.000 A 
ATOM     26  C   UNL     1      -0.344  12.088  21.906  0.00  0.00    +0.000 A 
ENDBRANCH  20  21
ENDBRANCH  19  20
ENDBRANCH  16  19
ENDBRANCH   3  13
BRANCH   5  27
ATOM     27  C   UNL     1       2.347   4.587  18.345  0.00  0.00    +0.000 A 
ATOM     28  C   UNL     1       1.692   4.261  19.532  0.00  0.00    +0.000 A 
ATOM     29  C   UNL     1       1.388   2.924  19.784  0.00  0.00    +0.000 A 
ATOM     30  C   UNL     1       1.749   1.938  18.862  0.00  0.00    +0.000 A 
ATOM     31  C   UNL     1       2.442   2.277  17.698  0.00  0.00    +0.000 A 
ATOM     32  C   UNL     1       2.764   3.608  17.445  0.00  0.00    +0.000 A 
ENDBRANCH   5  27
TORSDOF 6
ENDMDL
MODEL 4
REMARK VINA RESULT:      -8.6      0.868      1.485
REMARK  Name = 
REMARK  6 active torsions:
REMARK  status: ('A' for Active; 'I' for Inactive)
REMARK    1  A    between atoms: C_7  and  N_8
REMARK    2  A    between atoms: C_10  and  C_11
REMARK    3  A    between atoms: C_14  and  O_15
REMARK    4  A    between atoms: O_15  and  C_16
REMARK    5  A    between atoms: C_16  and  C_17
REMARK    6  A    between atoms: N_26  and  C_27
REMARK                            x       y       z     vdW  Elec       q    Type
REMARK                         _______ _______ _______ _____ _____    ______ ____
ROOT
ATOM      1  N   UNL     1       3.656   6.771  17.857  0.00  0.00    +0.000 N 
ATOM      2  N   UNL     1       3.521   8.137  17.903  0.00  0.00    +0.000 NA
ATOM      3  C   UNL     1       2.227   8.273  18.131  0.00  0.00    +0.000 A 
ATOM      4  N   UNL     1       1.515   7.160  18.234  0.00  0.00    +0.000 NA
ATOM      5  N   UNL     1       2.498   6.206  18.117  0.00  0.00    +0.000 N 
ENDROOT
BRANCH   1  12
ATOM      6  F   UNL     1       4.736   6.913  15.228  0.00  0.00    +0.000 F 
ATOM      7  C   UNL     1       5.366   6.178  16.155  0.00  0.00    +0.000 A 
ATOM      8  C   UNL     1       6.481   5.438  15.774  0.00  0.00    +0.000 A 
ATOM      9  C   UNL     1       7.192   4.723  16.739  0.00  0.00    +0.000 A 
ATOM     10  C   UNL     1       6.794   4.770  18.076  0.00  0.00    +0.000 A 
ATOM     11  C   UNL     1       5.652   5.482  18.445  0.00  0.00    +0.000 A 
ATOM     12  C   UNL     1       4.922   6.149  17.474  0.00  0.00    +0.000 A 
ENDBRANCH   1  12
BRANCH   3  13
ATOM     13  C   UNL     1       1.600   9.596  18.251  0.00  0.00    +0.000 A 
ATOM     14  C   UNL     1       0.214   9.706  18.441  0.00  0.00    +0.000 A 
ATOM     15  C   UNL     1      -0.393  10.957  18.591  0.00  0.00    +0.000 A 
ATOM     16  C   UNL     1       0.373  12.120  18.575  0.00  0.00    +0.000 A 
ATOM     17  C   UNL     1       1.745  12.031  18.337  0.00  0.00    +0.000 A 
ATOM     18  C   UNL     1       2.356  10.781  18.183  0.00  0.00    +0.000 A 
BRANCH  16  19
ATOM     19  O   UNL     1      -0.118  13.384  18.781  0.00  0.00    +0.000 OA
BRANCH  19  20
ATOM     20  C   UNL     1       0.774  14.272  19.466  0.00  0.00    +0.000 C 
BRANCH  20  21
ATOM     21  C   UNL     1       0.812  15.592  18.746  0.00  0.00    +0.000 A 
ATOM     22  C   UNL     1      -0.367  16.297  18.476  0.00  0.00    +0.000 A 
ATOM     23  C   UNL     1      -0.322  17.523  17.815  0.00  0.00    +0.000 A 
ATOM     24  C   UNL     1       0.904  18.058  17.416  0.00  0.00    +0.000 A 
ATOM     25  C   UNL     1       2.086  17.366  17.685  0.00  0.00    +0.000 A 
ATOM     26  C   UNL     1       2.040  16.144  18.346  0.00  0.00    +0.000 A 
ENDBRANCH  20  21
ENDBRANCH  19  20
ENDBRANCH  16  19
ENDBRANCH   3  13
BRANCH   5  27
ATOM     27  C   UNL     1       2.218   4.809  18.431  0.00  0.00    +0.000 A 
ATOM     28  C   UNL     1       1.678   4.514  19.682  0.00  0.00    +0.000 A 
ATOM     29  C   UNL     1       1.340   3.192  19.971  0.00  0.00    +0.000 A 
ATOM     30  C   UNL     1       1.556   2.191  19.021  0.00  0.00    +0.000 A 
ATOM     31  C   UNL     1       2.137   2.497  17.788  0.00  0.00    +0.000 A 
ATOM     32  C   UNL     1       2.492   3.812  17.496  0.00  0.00    +0.000 A 
ENDBRANCH   5  27
TORSDOF 6
ENDMDL
MODEL 5
REMARK VINA RESULT:      -8.6      2.441      3.553
REMARK  Name = 
REMARK  6 active torsions:
REMARK  status: ('A' for Active; 'I' for Inactive)
REMARK    1  A    between atoms: C_7  and  N_8
REMARK    2  A    between atoms: C_10  and  C_11
REMARK    3  A    between atoms: C_14  and  O_15
REMARK    4  A    between atoms: O_15  and  C_16
REMARK    5  A    between atoms: C_16  and  C_17
REMARK    6  A    between atoms: N_26  and  C_27
REMARK                            x       y       z     vdW  Elec       q    Type
REMARK                         _______ _______ _______ _____ _____    ______ ____
ROOT
ATOM      1  N   UNL     1       4.143   5.941  17.360  0.00  0.00    +0.000 N 
ATOM      2  N   UNL     1       3.837   7.275  17.476  0.00  0.00    +0.000 NA
ATOM      3  C   UNL     1       2.772   7.241  18.258  0.00  0.00    +0.000 A 
ATOM      4  N   UNL     1       2.357   6.046  18.654  0.00  0.00    +0.000 NA
ATOM      5  N   UNL     1       3.319   5.234  18.102  0.00  0.00    +0.000 N 
ENDROOT
BRANCH   1  12
ATOM      6  F   UNL     1       6.917   6.389  17.808  0.00  0.00    +0.000 F 
ATOM      7  C   UNL     1       6.526   5.798  16.670  0.00  0.00    +0.000 A 
ATOM      8  C   UNL     1       7.486   5.503  15.709  0.00  0.00    +0.000 A 
ATOM      9  C   UNL     1       7.110   4.824  14.549  0.00  0.00    +0.000 A 
ATOM     10  C   UNL     1       5.782   4.431  14.371  0.00  0.00    +0.000 A 
ATOM     11  C   UNL     1       4.816   4.765  15.322  0.00  0.00    +0.000 A 
ATOM     12  C   UNL     1       5.188   5.482  16.448  0.00  0.00    +0.000 A 
ENDBRANCH   1  12
BRANCH   3  13
ATOM     13  C   UNL     1       2.070   8.467  18.659  0.00  0.00    +0.000 A 
ATOM     14  C   UNL     1       2.133   9.613  17.851  0.00  0.00    +0.000 A 
ATOM     15  C   UNL     1       1.441  10.777  18.200  0.00  0.00    +0.000 A 
ATOM     16  C   UNL     1       0.657  10.814  19.351  0.00  0.00    +0.000 A 
ATOM     17  C   UNL     1       0.624   9.699  20.190  0.00  0.00    +0.000 A 
ATOM     18  C   UNL     1       1.317   8.534  19.846  0.00  0.00    +0.000 A 
BRANCH  16  19
ATOM     19  O   UNL     1      -0.110  11.880  19.742  0.00  0.00    +0.000 OA
BRANCH  19  20
ATOM     20  C   UNL     1      -0.716  12.613  18.670  0.00  0.00    +0.000 C 
BRANCH  20  21
ATOM     21  C   UNL     1      -2.048  12.000  18.337  0.00  0.00    +0.000 A 
ATOM     22  C   UNL     1      -2.204  11.195  17.202  0.00  0.00    +0.000 A 
ATOM     23  C   UNL     1      -3.440  10.625  16.904  0.00  0.00    +0.000 A 
ATOM     24  C   UNL     1      -4.535  10.854  17.739  0.00  0.00    +0.000 A 
ATOM     25  C   UNL     1      -4.389  11.650  18.876  0.00  0.00    +0.000 A 
ATOM     26  C   UNL     1      -3.155  12.217  19.173  0.00  0.00    +0.000 A 
ENDBRANCH  20  21
ENDBRANCH  19  20
ENDBRANCH  16  19
ENDBRANCH   3  13
BRANCH   5  27
ATOM     27  C   UNL     1       3.421   3.832  18.492  0.00  0.00    +0.000 A 
ATOM     28  C   UNL     1       2.699   2.893  17.758  0.00  0.00    +0.000 A 
ATOM     29  C   UNL     1       2.840   1.543  18.075  0.00  0.00    +0.000 A 
ATOM     30  C   UNL     1       3.682   1.153  19.119  0.00  0.00    +0.000 A 
ATOM     31  C   UNL     1       4.366   2.110  19.873  0.00  0.00    +0.000 A 
ATOM     32  C   UNL     1       4.220   3.463  19.573  0.00  0.00    +0.000 A 
ENDBRANCH   5  27
TORSDOF 6
ENDMDL
MODEL 6
REMARK VINA RESULT:      -8.5      3.854      9.607
REMARK  Name = 
REMARK  6 active torsions:
REMARK  status: ('A' for Active; 'I' for Inactive)
REMARK    1  A    between atoms: C_7  and  N_8
REMARK    2  A    between atoms: C_10  and  C_11
REMARK    3  A    between atoms: C_14  and  O_15
REMARK    4  A    between atoms: O_15  and  C_16
REMARK    5  A    between atoms: C_16  and  C_17
REMARK    6  A    between atoms: N_26  and  C_27
REMARK                            x       y       z     vdW  Elec       q    Type
REMARK                         _______ _______ _______ _____ _____    ______ ____
ROOT
ATOM      1  N   UNL     1       0.356  12.241  20.128  0.00  0.00    +0.000 N 
ATOM      2  N   UNL     1       1.207  11.385  19.474  0.00  0.00    +0.000 NA
ATOM      3  C   UNL     1       0.831  10.211  19.953  0.00  0.00    +0.000 A 
ATOM      4  N   UNL     1      -0.155  10.213  20.838  0.00  0.00    +0.000 NA
ATOM      5  N   UNL     1      -0.480  11.548  20.870  0.00  0.00    +0.000 N 
ENDROOT
BRANCH   1  12
ATOM      6  F   UNL     1      -0.712  13.761  17.973  0.00  0.00    +0.000 F 
ATOM      7  C   UNL     1       0.037  14.376  18.899  0.00  0.00    +0.000 A 
ATOM      8  C   UNL     1       0.337  15.723  18.725  0.00  0.00    +0.000 A 
ATOM      9  C   UNL     1       1.055  16.399  19.713  0.00  0.00    +0.000 A 
ATOM     10  C   UNL     1       1.448  15.727  20.872  0.00  0.00    +0.000 A 
ATOM     11  C   UNL     1       1.177  14.366  21.022  0.00  0.00    +0.000 A 
ATOM     12  C   UNL     1       0.507  13.690  20.015  0.00  0.00    +0.000 A 
ENDBRANCH   1  12
BRANCH   3  13
ATOM     13  C   UNL     1       1.486   8.963  19.538  0.00  0.00    +0.000 A 
ATOM     14  C   UNL     1       1.660   7.918  20.458  0.00  0.00    +0.000 A 
ATOM     15  C   UNL     1       2.250   6.711  20.069  0.00  0.00    +0.000 A 
ATOM     16  C   UNL     1       2.658   6.516  18.752  0.00  0.00    +0.000 A 
ATOM     17  C   UNL     1       2.536   7.563  17.838  0.00  0.00    +0.000 A 
ATOM     18  C   UNL     1       1.950   8.774  18.223  0.00  0.00    +0.000 A 
BRANCH  16  19
ATOM     19  O   UNL     1       3.182   5.349  18.259  0.00  0.00    +0.000 OA
BRANCH  19  20
ATOM     20  C   UNL     1       4.097   5.513  17.169  0.00  0.00    +0.000 C 
BRANCH  20  21
ATOM     21  C   UNL     1       5.452   5.881  17.706  0.00  0.00    +0.000 A 
ATOM     22  C   UNL     1       6.207   6.900  17.111  0.00  0.00    +0.000 A 
ATOM     23  C   UNL     1       7.459   7.241  17.619  0.00  0.00    +0.000 A 
ATOM     24  C   UNL     1       7.971   6.566  18.728  0.00  0.00    +0.000 A 
ATOM     25  C   UNL     1       7.225   5.552  19.332  0.00  0.00    +0.000 A 
ATOM     26  C   UNL     1       5.975   5.215  18.826  0.00  0.00    +0.000 A 
ENDBRANCH  20  21
ENDBRANCH  19  20
ENDBRANCH  16  19
ENDBRANCH   3  13
BRANCH   5  27
ATOM     27  C   UNL     1      -1.704  11.999  21.525  0.00  0.00    +0.000 A 
ATOM     28  C   UNL     1      -2.712  12.540  20.729  0.00  0.00    +0.000 A 
ATOM     29  C   UNL     1      -3.914  12.911  21.330  0.00  0.00    +0.000 A 
ATOM     30  C   UNL     1      -4.086  12.751  22.708  0.00  0.00    +0.000 A 
ATOM     31  C   UNL     1      -3.050  12.247  23.497  0.00  0.00    +0.000 A 
ATOM     32  C   UNL     1      -1.840  11.888  22.907  0.00  0.00    +0.000 A 
ENDBRANCH   5  27
TORSDOF 6
ENDMDL
MODEL 7
REMARK VINA RESULT:      -8.5      1.970      4.407
REMARK  Name = 
REMARK  6 active torsions:
REMARK  status: ('A' for Active; 'I' for Inactive)
REMARK    1  A    between atoms: C_7  and  N_8
REMARK    2  A    between atoms: C_10  and  C_11
REMARK    3  A    between atoms: C_14  and  O_15
REMARK    4  A    between atoms: O_15  and  C_16
REMARK    5  A    between atoms: C_16  and  C_17
REMARK    6  A    between atoms: N_26  and  C_27
REMARK                            x       y       z     vdW  Elec       q    Type
REMARK                         _______ _______ _______ _____ _____    ______ ____
ROOT
ATOM      1  N   UNL     1       2.715   6.017  18.138  0.00  0.00    +0.000 N 
ATOM      2  N   UNL     1       1.700   6.914  18.362  0.00  0.00    +0.000 NA
ATOM      3  C   UNL     1       2.284   8.062  18.068  0.00  0.00    +0.000 A 
ATOM      4  N   UNL     1       3.552   8.010  17.687  0.00  0.00    +0.000 NA
ATOM      5  N   UNL     1       3.771   6.652  17.680  0.00  0.00    +0.000 N 
ENDROOT
BRANCH   1  12
ATOM      6  F   UNL     1       2.720   5.047  20.813  0.00  0.00    +0.000 F 
ATOM      7  C   UNL     1       2.656   4.171  19.800  0.00  0.00    +0.000 A 
ATOM      8  C   UNL     1       2.683   2.812  20.092  0.00  0.00    +0.000 A 
ATOM      9  C   UNL     1       2.546   1.884  19.058  0.00  0.00    +0.000 A 
ATOM     10  C   UNL     1       2.365   2.326  17.746  0.00  0.00    +0.000 A 
ATOM     11  C   UNL     1       2.379   3.690  17.455  0.00  0.00    +0.000 A 
ATOM     12  C   UNL     1       2.565   4.604  18.480  0.00  0.00    +0.000 A 
ENDBRANCH   1  12
BRANCH   3  13
ATOM     13  C   UNL     1       1.569   9.341  18.175  0.00  0.00    +0.000 A 
ATOM     14  C   UNL     1       0.168   9.374  18.109  0.00  0.00    +0.000 A 
ATOM     15  C   UNL     1      -0.529  10.579  18.244  0.00  0.00    +0.000 A 
ATOM     16  C   UNL     1       0.157  11.770  18.468  0.00  0.00    +0.000 A 
ATOM     17  C   UNL     1       1.552  11.761  18.487  0.00  0.00    +0.000 A 
ATOM     18  C   UNL     1       2.254  10.558  18.349  0.00  0.00    +0.000 A 
BRANCH  16  19
ATOM     19  O   UNL     1      -0.436  12.988  18.680  0.00  0.00    +0.000 OA
BRANCH  19  20
ATOM     20  C   UNL     1      -0.093  13.617  19.921  0.00  0.00    +0.000 C 
BRANCH  20  21
ATOM     21  C   UNL     1      -0.955  13.059  21.019  0.00  0.00    +0.000 A 
ATOM     22  C   UNL     1      -2.309  13.404  21.114  0.00  0.00    +0.000 A 
ATOM     23  C   UNL     1      -3.103  12.877  22.130  0.00  0.00    +0.000 A 
ATOM     24  C   UNL     1      -2.552  11.998  23.064  0.00  0.00    +0.000 A 
ATOM     25  C   UNL     1      -1.205  11.643  22.976  0.00  0.00    +0.000 A 
ATOM     26  C   UNL     1      -0.414  12.168  21.960  0.00  0.00    +0.000 A 
ENDBRANCH  20  21
ENDBRANCH  19  20
ENDBRANCH  16  19
ENDBRANCH   3  13
BRANCH   5  27
ATOM     27  C   UNL     1       4.973   6.097  17.067  0.00  0.00    +0.000 A 
ATOM     28  C   UNL     1       6.030   5.740  17.902  0.00  0.00    +0.000 A 
ATOM     29  C   UNL     1       7.157   5.144  17.339  0.00  0.00    +0.000 A 
ATOM     30  C   UNL     1       7.219   4.927  15.960  0.00  0.00    +0.000 A 
ATOM     31  C   UNL     1       6.169   5.329  15.132  0.00  0.00    +0.000 A 
ATOM     32  C   UNL     1       5.044   5.940  15.684  0.00  0.00    +0.000 A 
ENDBRANCH   5  27
TORSDOF 6
ENDMDL
MODEL 8
REMARK VINA RESULT:      -8.5      0.479      1.515
REMARK  Name = 
REMARK  6 active torsions:
REMARK  status: ('A' for Active; 'I' for Inactive)
REMARK    1  A    between atoms: C_7  and  N_8
REMARK    2  A    between atoms: C_10  and  C_11
REMARK    3  A    between atoms: C_14  and  O_15
REMARK    4  A    between atoms: O_15  and  C_16
REMARK    5  A    between atoms: C_16  and  C_17
REMARK    6  A    between atoms: N_26  and  C_27
REMARK                            x       y       z     vdW  Elec       q    Type
REMARK                         _______ _______ _______ _____ _____    ______ ____
ROOT
ATOM      1  N   UNL     1       3.538   6.771  17.934  0.00  0.00    +0.000 N 
ATOM      2  N   UNL     1       3.432   8.139  17.891  0.00  0.00    +0.000 NA
ATOM      3  C   UNL     1       2.185   8.326  18.287  0.00  0.00    +0.000 A 
ATOM      4  N   UNL     1       1.478   7.243  18.575  0.00  0.00    +0.000 NA
ATOM      5  N   UNL     1       2.420   6.257  18.397  0.00  0.00    +0.000 N 
ENDROOT
BRANCH   1  12
ATOM      6  F   UNL     1       5.466   5.532  19.621  0.00  0.00    +0.000 F 
ATOM      7  C   UNL     1       5.682   5.570  18.299  0.00  0.00    +0.000 A 
ATOM      8  C   UNL     1       6.886   5.077  17.807  0.00  0.00    +0.000 A 
ATOM      9  C   UNL     1       7.102   5.042  16.428  0.00  0.00    +0.000 A 
ATOM     10  C   UNL     1       6.104   5.482  15.556  0.00  0.00    +0.000 A 
ATOM     11  C   UNL     1       4.914   6.011  16.058  0.00  0.00    +0.000 A 
ATOM     12  C   UNL     1       4.727   6.088  17.428  0.00  0.00    +0.000 A 
ENDBRANCH   1  12
BRANCH   3  13
ATOM     13  C   UNL     1       1.602   9.670  18.389  0.00  0.00    +0.000 A 
ATOM     14  C   UNL     1       2.385  10.802  18.118  0.00  0.00    +0.000 A 
ATOM     15  C   UNL     1       1.835  12.087  18.176  0.00  0.00    +0.000 A 
ATOM     16  C   UNL     1       0.489  12.265  18.486  0.00  0.00    +0.000 A 
ATOM     17  C   UNL     1      -0.290  11.153  18.806  0.00  0.00    +0.000 A 
ATOM     18  C   UNL     1       0.256   9.867  18.752  0.00  0.00    +0.000 A 
BRANCH  16  19
ATOM     19  O   UNL     1      -0.158  13.474  18.501  0.00  0.00    +0.000 OA
BRANCH  19  20
ATOM     20  C   UNL     1       0.380  14.434  19.418  0.00  0.00    +0.000 C 
BRANCH  20  21
ATOM     21  C   UNL     1       0.655  15.720  18.690  0.00  0.00    +0.000 A 
ATOM     22  C   UNL     1       1.959  16.074  18.324  0.00  0.00    +0.000 A 
ATOM     23  C   UNL     1       2.205  17.264  17.643  0.00  0.00    +0.000 A 
ATOM     24  C   UNL     1       1.147  18.116  17.320  0.00  0.00    +0.000 A 
ATOM     25  C   UNL     1      -0.158  17.771  17.675  0.00  0.00    +0.000 A 
ATOM     26  C   UNL     1      -0.402  16.582  18.353  0.00  0.00    +0.000 A 
ENDBRANCH  20  21
ENDBRANCH  19  20
ENDBRANCH  16  19
ENDBRANCH   3  13
BRANCH   5  27
ATOM     27  C   UNL     1       2.165   4.895  18.855  0.00  0.00    +0.000 A 
ATOM     28  C   UNL     1       2.287   4.629  20.218  0.00  0.00    +0.000 A 
ATOM     29  C   UNL     1       1.979   3.350  20.681  0.00  0.00    +0.000 A 
ATOM     30  C   UNL     1       1.571   2.361  19.783  0.00  0.00    +0.000 A 
ATOM     31  C   UNL     1       1.495   2.632  18.415  0.00  0.00    +0.000 A 
ATOM     32  C   UNL     1       1.815   3.903  17.942  0.00  0.00    +0.000 A 
ENDBRANCH   5  27
TORSDOF 6
ENDMDL
MODEL 9
REMARK VINA RESULT:      -8.5      0.896      1.495
REMARK  Name = 
REMARK  6 active torsions:
REMARK  status: ('A' for Active; 'I' for Inactive)
REMARK    1  A    between atoms: C_7  and  N_8
REMARK    2  A    between atoms: C_10  and  C_11
REMARK    3  A    between atoms: C_14  and  O_15
REMARK    4  A    between atoms: O_15  and  C_16
REMARK    5  A    between atoms: C_16  and  C_17
REMARK    6  A    between atoms: N_26  and  C_27
REMARK                            x       y       z     vdW  Elec       q    Type
REMARK                         _______ _______ _______ _____ _____    ______ ____
ROOT
ATOM      1  N   UNL     1       3.570   6.846  17.934  0.00  0.00    +0.000 N 
ATOM      2  N   UNL     1       3.446   8.214  17.933  0.00  0.00    +0.000 NA
ATOM      3  C   UNL     1       2.158   8.368  18.185  0.00  0.00    +0.000 A 
ATOM      4  N   UNL     1       1.441   7.266  18.344  0.00  0.00    +0.000 NA
ATOM      5  N   UNL     1       2.414   6.300  18.241  0.00  0.00    +0.000 N 
ENDROOT
BRANCH   1  12
ATOM      6  F   UNL     1       4.683   7.034  15.322  0.00  0.00    +0.000 F 
ATOM      7  C   UNL     1       5.282   6.255  16.234  0.00  0.00    +0.000 A 
ATOM      8  C   UNL     1       6.380   5.496  15.843  0.00  0.00    +0.000 A 
ATOM      9  C   UNL     1       7.061   4.733  16.794  0.00  0.00    +0.000 A 
ATOM     10  C   UNL     1       6.649   4.753  18.128  0.00  0.00    +0.000 A 
ATOM     11  C   UNL     1       5.522   5.485  18.505  0.00  0.00    +0.000 A 
ATOM     12  C   UNL     1       4.822   6.200  17.547  0.00  0.00    +0.000 A 
ENDBRANCH   1  12
BRANCH   3  13
ATOM     13  C   UNL     1       1.542   9.700  18.269  0.00  0.00    +0.000 A 
ATOM     14  C   UNL     1       0.156   9.828  18.441  0.00  0.00    +0.000 A 
ATOM     15  C   UNL     1      -0.440  11.088  18.557  0.00  0.00    +0.000 A 
ATOM     16  C   UNL     1       0.337  12.242  18.525  0.00  0.00    +0.000 A 
ATOM     17  C   UNL     1       1.711  12.134  18.305  0.00  0.00    +0.000 A 
ATOM     18  C   UNL     1       2.311  10.876  18.185  0.00  0.00    +0.000 A 
BRANCH  16  19
ATOM     19  O   UNL     1      -0.142  13.515  18.698  0.00  0.00    +0.000 OA
BRANCH  19  20
ATOM     20  C   UNL     1       0.738  14.400  19.401  0.00  0.00    +0.000 C 
BRANCH  20  21
ATOM     21  C   UNL     1       0.800  15.718  18.680  0.00  0.00    +0.000 A 
ATOM     22  C   UNL     1       2.024  16.237  18.239  0.00  0.00    +0.000 A 
ATOM     23  C   UNL     1       2.072  17.456  17.565  0.00  0.00    +0.000 A 
ATOM     24  C   UNL     1       0.897  18.169  17.324  0.00  0.00    +0.000 A 
ATOM     25  C   UNL     1      -0.328  17.659  17.755  0.00  0.00    +0.000 A 
ATOM     26  C   UNL     1      -0.376  16.442  18.426  0.00  0.00    +0.000 A 
ENDBRANCH  20  21
ENDBRANCH  19  20
ENDBRANCH  16  19
ENDBRANCH   3  13
BRANCH   5  27
ATOM     27  C   UNL     1       2.131   4.918  18.613  0.00  0.00    +0.000 A 
ATOM     28  C   UNL     1       2.159   3.950  17.610  0.00  0.00    +0.000 A 
ATOM     29  C   UNL     1       1.959   2.616  17.961  0.00  0.00    +0.000 A 
ATOM     30  C   UNL     1       1.723   2.270  19.294  0.00  0.00    +0.000 A 
ATOM     31  C   UNL     1       1.656   3.256  20.280  0.00  0.00    +0.000 A 
ATOM     32  C   UNL     1       1.839   4.594  19.937  0.00  0.00    +0.000 A 
ENDBRANCH   5  27
TORSDOF 6
ENDMDL
