MODEL 1
REMARK VINA RESULT:      -8.0      0.000      0.000
REMARK  Name = 
REMARK  7 active torsions:
REMARK  status: ('A' for Active; 'I' for Inactive)
REMARK    1  A    between atoms: C_1  and  C_2
REMARK    2  A    between atoms: C_2  and  C_3
REMARK    3  A    between atoms: C_2  and  C_17
REMARK    4  A    between atoms: C_3  and  C_4
REMARK    5  A    between atoms: C_4  and  N_5
REMARK    6  A    between atoms: C_6  and  C_8
REMARK    7  A    between atoms: C_12  and  C_13
REMARK                            x       y       z     vdW  Elec       q    Type
REMARK                         _______ _______ _______ _____ _____    ______ ____
ROOT
ATOM      1  N   UNL     1       4.419   2.932  17.414  0.00  0.00    +0.000 N 
ATOM      2  C   UNL     1       5.421   3.811  17.749  0.00  0.00    +0.000 C 
ATOM      3  O   UNL     1       5.709   4.106  18.904  0.00  0.00    +0.000 OA
ATOM      4  H   UNL     1       4.224   2.804  16.425  0.00  0.00    +0.000 HD
ENDROOT
BRANCH   2   5
ATOM      5  C   UNL     1       6.137   4.347  16.592  0.00  0.00    +0.000 A 
ATOM      6  N   UNL     1       6.185   3.710  15.360  0.00  0.00    +0.000 NA
ATOM      7  C   UNL     1       6.860   4.513  14.569  0.00  0.00    +0.000 A 
ATOM      8  N   UNL     1       7.303   5.616  15.241  0.00  0.00    +0.000 N 
ATOM      9  C   UNL     1       6.883   5.509  16.545  0.00  0.00    +0.000 A 
ATOM     10  H   UNL     1       7.861   6.366  14.852  0.00  0.00    +0.000 HD
BRANCH   9  11
ATOM     11  C   UNL     1       7.276   6.491  17.569  0.00  0.00    +0.000 C 
ATOM     12  F   UNL     1       7.962   7.556  17.106  0.00  0.00    +0.000 F 
ATOM     13  F   UNL     1       6.165   6.988  18.180  0.00  0.00    +0.000 F 
ATOM     14  F   UNL     1       8.015   5.912  18.546  0.00  0.00    +0.000 F 
ENDBRANCH   9  11
ENDBRANCH   2   5
BRANCH   1  15
ATOM     15  C   UNL     1       3.661   2.218  18.419  0.00  0.00    +0.000 C 
BRANCH  15  16
ATOM     16  C   UNL     1       2.311   2.881  18.686  0.00  0.00    +0.000 C 
BRANCH  16  18
ATOM     17  C   UNL     1       1.188   3.260  20.949  0.00  0.00    +0.000 C 
ATOM     18  C   UNL     1       2.255   3.748  19.961  0.00  0.00    +0.000 C 
BRANCH  18  19
ATOM     19  C   UNL     1       2.167   5.238  19.662  0.00  0.00    +0.000 A 
ATOM     20  C   UNL     1       2.457   5.697  18.364  0.00  0.00    +0.000 A 
ATOM     21  C   UNL     1       2.454   7.064  18.069  0.00  0.00    +0.000 A 
ATOM     22  C   UNL     1       2.158   7.993  19.063  0.00  0.00    +0.000 A 
ATOM     23  C   UNL     1       1.841   7.554  20.345  0.00  0.00    +0.000 A 
ATOM     24  C   UNL     1       1.839   6.189  20.640  0.00  0.00    +0.000 A 
ENDBRANCH  18  19
ENDBRANCH  16  18
ENDBRANCH  15  16
ENDBRANCH   1  15
TORSDOF 6
ENDMDL
MODEL 2
REMARK VINA RESULT:      -7.8      1.975      2.434
REMARK  Name = 
REMARK  7 active torsions:
REMARK  status: ('A' for Active; 'I' for Inactive)
REMARK    1  A    between atoms: C_1  and  C_2
REMARK    2  A    between atoms: C_2  and  C_3
REMARK    3  A    between atoms: C_2  and  C_17
REMARK    4  A    between atoms: C_3  and  C_4
REMARK    5  A    between atoms: C_4  and  N_5
REMARK    6  A    between atoms: C_6  and  C_8
REMARK    7  A    between atoms: C_12  and  C_13
REMARK                            x       y       z     vdW  Elec       q    Type
REMARK                         _______ _______ _______ _____ _____    ______ ____
ROOT
ATOM      1  N   UNL     1       4.900   3.051  19.564  0.00  0.00    +0.000 N 
ATOM      2  C   UNL     1       5.032   3.517  18.277  0.00  0.00    +0.000 C 
ATOM      3  O   UNL     1       4.308   3.170  17.350  0.00  0.00    +0.000 OA
ATOM      4  H   UNL     1       5.590   3.358  20.243  0.00  0.00    +0.000 HD
ENDROOT
BRANCH   2   5
ATOM      5  C   UNL     1       6.109   4.493  18.118  0.00  0.00    +0.000 A 
ATOM      6  N   UNL     1       6.706   5.153  19.184  0.00  0.00    +0.000 NA
ATOM      7  C   UNL     1       7.656   5.892  18.658  0.00  0.00    +0.000 A 
ATOM      8  N   UNL     1       7.670   5.789  17.296  0.00  0.00    +0.000 N 
ATOM      9  C   UNL     1       6.664   4.928  16.931  0.00  0.00    +0.000 A 
ATOM     10  H   UNL     1       8.296   6.279  16.669  0.00  0.00    +0.000 HD
BRANCH   9  11
ATOM     11  C   UNL     1       6.340   4.670  15.518  0.00  0.00    +0.000 C 
ATOM     12  F   UNL     1       5.154   5.160  15.104  0.00  0.00    +0.000 F 
ATOM     13  F   UNL     1       7.287   5.235  14.719  0.00  0.00    +0.000 F 
ATOM     14  F   UNL     1       6.361   3.343  15.244  0.00  0.00    +0.000 F 
ENDBRANCH   9  11
ENDBRANCH   2   5
BRANCH   1  15
ATOM     15  C   UNL     1       3.829   2.155  19.946  0.00  0.00    +0.000 C 
BRANCH  15  16
ATOM     16  C   UNL     1       2.798   2.852  20.832  0.00  0.00    +0.000 C 
BRANCH  16  18
ATOM     17  C   UNL     1       1.159   2.588  18.890  0.00  0.00    +0.000 C 
ATOM     18  C   UNL     1       1.597   3.458  20.075  0.00  0.00    +0.000 C 
BRANCH  18  19
ATOM     19  C   UNL     1       1.804   4.921  19.708  0.00  0.00    +0.000 A 
ATOM     20  C   UNL     1       2.112   5.260  18.378  0.00  0.00    +0.000 A 
ATOM     21  C   UNL     1       2.377   6.584  18.018  0.00  0.00    +0.000 A 
ATOM     22  C   UNL     1       2.335   7.591  18.978  0.00  0.00    +0.000 A 
ATOM     23  C   UNL     1       2.005   7.278  20.293  0.00  0.00    +0.000 A 
ATOM     24  C   UNL     1       1.735   5.956  20.654  0.00  0.00    +0.000 A 
ENDBRANCH  18  19
ENDBRANCH  16  18
ENDBRANCH  15  16
ENDBRANCH   1  15
TORSDOF 6
ENDMDL
MODEL 3
REMARK VINA RESULT:      -7.8      1.959      2.622
REMARK  Name = 
REMARK  7 active torsions:
REMARK  status: ('A' for Active; 'I' for Inactive)
REMARK    1  A    between atoms: C_1  and  C_2
REMARK    2  A    between atoms: C_2  and  C_3
REMARK    3  A    between atoms: C_2  and  C_17
REMARK    4  A    between atoms: C_3  and  C_4
REMARK    5  A    between atoms: C_4  and  N_5
REMARK    6  A    between atoms: C_6  and  C_8
REMARK    7  A    between atoms: C_12  and  C_13
REMARK                            x       y       z     vdW  Elec       q    Type
REMARK                         _______ _______ _______ _____ _____    ______ ____
ROOT
ATOM      1  N   UNL     1       4.846   2.997  19.352  0.00  0.00    +0.000 N 
ATOM      2  C   UNL     1       4.956   3.567  18.105  0.00  0.00    +0.000 C 
ATOM      3  O   UNL     1       4.188   3.330  17.179  0.00  0.00    +0.000 OA
ATOM      4  H   UNL     1       5.570   3.217  20.029  0.00  0.00    +0.000 HD
ENDROOT
BRANCH   2   5
ATOM      5  C   UNL     1       6.068   4.509  17.991  0.00  0.00    +0.000 A 
ATOM      6  N   UNL     1       6.641   5.152  19.080  0.00  0.00    +0.000 NA
ATOM      7  C   UNL     1       7.634   5.861  18.594  0.00  0.00    +0.000 A 
ATOM      8  N   UNL     1       7.700   5.756  17.234  0.00  0.00    +0.000 N 
ATOM      9  C   UNL     1       6.684   4.927  16.828  0.00  0.00    +0.000 A 
ATOM     10  H   UNL     1       8.366   6.226  16.634  0.00  0.00    +0.000 HD
BRANCH   9  11
ATOM     11  C   UNL     1       6.411   4.677  15.402  0.00  0.00    +0.000 C 
ATOM     12  F   UNL     1       5.271   5.223  14.934  0.00  0.00    +0.000 F 
ATOM     13  F   UNL     1       7.420   5.190  14.644  0.00  0.00    +0.000 F 
ATOM     14  F   UNL     1       6.379   3.349  15.134  0.00  0.00    +0.000 F 
ENDBRANCH   9  11
ENDBRANCH   2   5
BRANCH   1  15
ATOM     15  C   UNL     1       3.751   2.115  19.695  0.00  0.00    +0.000 C 
BRANCH  15  16
ATOM     16  C   UNL     1       2.763   2.785  20.648  0.00  0.00    +0.000 C 
BRANCH  16  18
ATOM     17  C   UNL     1       1.059   2.698  18.747  0.00  0.00    +0.000 C 
ATOM     18  C   UNL     1       1.571   3.484  19.961  0.00  0.00    +0.000 C 
BRANCH  18  19
ATOM     19  C   UNL     1       1.835   4.952  19.663  0.00  0.00    +0.000 A 
ATOM     20  C   UNL     1       1.715   5.897  20.699  0.00  0.00    +0.000 A 
ATOM     21  C   UNL     1       1.883   7.262  20.449  0.00  0.00    +0.000 A 
ATOM     22  C   UNL     1       2.177   7.706  19.163  0.00  0.00    +0.000 A 
ATOM     23  C   UNL     1       2.328   6.783  18.132  0.00  0.00    +0.000 A 
ATOM     24  C   UNL     1       2.165   5.419  18.381  0.00  0.00    +0.000 A 
ENDBRANCH  18  19
ENDBRANCH  16  18
ENDBRANCH  15  16
ENDBRANCH   1  15
TORSDOF 6
ENDMDL
MODEL 4
REMARK VINA RESULT:      -7.7      0.269      1.060
REMARK  Name = 
REMARK  7 active torsions:
REMARK  status: ('A' for Active; 'I' for Inactive)
REMARK    1  A    between atoms: C_1  and  C_2
REMARK    2  A    between atoms: C_2  and  C_3
REMARK    3  A    between atoms: C_2  and  C_17
REMARK    4  A    between atoms: C_3  and  C_4
REMARK    5  A    between atoms: C_4  and  N_5
REMARK    6  A    between atoms: C_6  and  C_8
REMARK    7  A    between atoms: C_12  and  C_13
REMARK                            x       y       z     vdW  Elec       q    Type
REMARK                         _______ _______ _______ _____ _____    ______ ____
ROOT
ATOM      1  N   UNL     1       4.540   2.991  17.385  0.00  0.00    +0.000 N 
ATOM      2  C   UNL     1       5.403   4.021  17.673  0.00  0.00    +0.000 C 
ATOM      3  O   UNL     1       5.550   4.493  18.795  0.00  0.00    +0.000 OA
ATOM      4  H   UNL     1       4.452   2.717  16.411  0.00  0.00    +0.000 HD
ENDROOT
BRANCH   2   5
ATOM      5  C   UNL     1       6.156   4.493  16.512  0.00  0.00    +0.000 A 
ATOM      6  N   UNL     1       6.213   3.805  15.306  0.00  0.00    +0.000 NA
ATOM      7  C   UNL     1       6.924   4.559  14.499  0.00  0.00    +0.000 A 
ATOM      8  N   UNL     1       7.381   5.677  15.137  0.00  0.00    +0.000 N 
ATOM      9  C   UNL     1       6.932   5.633  16.434  0.00  0.00    +0.000 A 
ATOM     10  H   UNL     1       7.966   6.396  14.730  0.00  0.00    +0.000 HD
BRANCH   9  11
ATOM     11  C   UNL     1       7.329   6.645  17.426  0.00  0.00    +0.000 C 
ATOM     12  F   UNL     1       8.089   7.650  16.946  0.00  0.00    +0.000 F 
ATOM     13  F   UNL     1       6.219   7.227  17.959  0.00  0.00    +0.000 F 
ATOM     14  F   UNL     1       7.993   6.081  18.465  0.00  0.00    +0.000 F 
ENDBRANCH   9  11
ENDBRANCH   2   5
BRANCH   1  15
ATOM     15  C   UNL     1       3.779   2.320  18.417  0.00  0.00    +0.000 C 
BRANCH  15  16
ATOM     16  C   UNL     1       2.336   2.821  18.472  0.00  0.00    +0.000 C 
BRANCH  16  18
ATOM     17  C   UNL     1       0.656   3.229  20.352  0.00  0.00    +0.000 C 
ATOM     18  C   UNL     1       1.987   3.657  19.721  0.00  0.00    +0.000 C 
BRANCH  18  19
ATOM     19  C   UNL     1       2.088   5.156  19.479  0.00  0.00    +0.000 A 
ATOM     20  C   UNL     1       1.869   6.042  20.549  0.00  0.00    +0.000 A 
ATOM     21  C   UNL     1       1.885   7.426  20.350  0.00  0.00    +0.000 A 
ATOM     22  C   UNL     1       2.123   7.947  19.081  0.00  0.00    +0.000 A 
ATOM     23  C   UNL     1       2.370   7.085  18.017  0.00  0.00    +0.000 A 
ATOM     24  C   UNL     1       2.359   5.703  18.214  0.00  0.00    +0.000 A 
ENDBRANCH  18  19
ENDBRANCH  16  18
ENDBRANCH  15  16
ENDBRANCH   1  15
TORSDOF 6
ENDMDL
MODEL 5
REMARK VINA RESULT:      -7.6      3.027      6.613
REMARK  Name = 
REMARK  7 active torsions:
REMARK  status: ('A' for Active; 'I' for Inactive)
REMARK    1  A    between atoms: C_1  and  C_2
REMARK    2  A    between atoms: C_2  and  C_3
REMARK    3  A    between atoms: C_2  and  C_17
REMARK    4  A    between atoms: C_3  and  C_4
REMARK    5  A    between atoms: C_4  and  N_5
REMARK    6  A    between atoms: C_6  and  C_8
REMARK    7  A    between atoms: C_12  and  C_13
REMARK                            x       y       z     vdW  Elec       q    Type
REMARK                         _______ _______ _______ _____ _____    ______ ____
ROOT
ATOM      1  N   UNL     1       3.957   5.949  17.971  0.00  0.00    +0.000 N 
ATOM      2  C   UNL     1       4.210   5.261  19.134  0.00  0.00    +0.000 C 
ATOM      3  O   UNL     1       5.289   5.281  19.715  0.00  0.00    +0.000 OA
ATOM      4  H   UNL     1       3.047   5.816  17.540  0.00  0.00    +0.000 HD
ENDROOT
BRANCH   2   5
ATOM      5  C   UNL     1       3.055   4.516  19.633  0.00  0.00    +0.000 A 
ATOM      6  N   UNL     1       2.413   4.812  20.828  0.00  0.00    +0.000 NA
ATOM      7  C   UNL     1       1.401   3.977  20.906  0.00  0.00    +0.000 A 
ATOM      8  N   UNL     1       1.387   3.115  19.847  0.00  0.00    +0.000 N 
ATOM      9  C   UNL     1       2.457   3.420  19.043  0.00  0.00    +0.000 A 
ATOM     10  H   UNL     1       0.718   2.370  19.697  0.00  0.00    +0.000 HD
BRANCH   9  11
ATOM     11  C   UNL     1       2.791   2.612  17.858  0.00  0.00    +0.000 C 
ATOM     12  F   UNL     1       2.948   3.311  16.715  0.00  0.00    +0.000 F 
ATOM     13  F   UNL     1       3.964   1.953  18.066  0.00  0.00    +0.000 F 
ATOM     14  F   UNL     1       1.857   1.656  17.637  0.00  0.00    +0.000 F 
ENDBRANCH   9  11
ENDBRANCH   2   5
BRANCH   1  15
ATOM     15  C   UNL     1       4.941   6.826  17.372  0.00  0.00    +0.000 C 
BRANCH  15  16
ATOM     16  C   UNL     1       5.312   6.377  15.960  0.00  0.00    +0.000 C 
BRANCH  16  18
ATOM     17  C   UNL     1       7.152   4.849  16.855  0.00  0.00    +0.000 C 
ATOM     18  C   UNL     1       5.982   4.990  15.874  0.00  0.00    +0.000 C 
BRANCH  18  19
ATOM     19  C   UNL     1       6.334   4.588  14.449  0.00  0.00    +0.000 A 
ATOM     20  C   UNL     1       7.422   5.209  13.808  0.00  0.00    +0.000 A 
ATOM     21  C   UNL     1       7.732   4.916  12.477  0.00  0.00    +0.000 A 
ATOM     22  C   UNL     1       6.966   3.997  11.766  0.00  0.00    +0.000 A 
ATOM     23  C   UNL     1       5.904   3.352  12.393  0.00  0.00    +0.000 A 
ATOM     24  C   UNL     1       5.595   3.640  13.724  0.00  0.00    +0.000 A 
ENDBRANCH  18  19
ENDBRANCH  16  18
ENDBRANCH  15  16
ENDBRANCH   1  15
TORSDOF 6
ENDMDL
MODEL 6
REMARK VINA RESULT:      -7.6      3.529      6.723
REMARK  Name = 
REMARK  7 active torsions:
REMARK  status: ('A' for Active; 'I' for Inactive)
REMARK    1  A    between atoms: C_1  and  C_2
REMARK    2  A    between atoms: C_2  and  C_3
REMARK    3  A    between atoms: C_2  and  C_17
REMARK    4  A    between atoms: C_3  and  C_4
REMARK    5  A    between atoms: C_4  and  N_5
REMARK    6  A    between atoms: C_6  and  C_8
REMARK    7  A    between atoms: C_12  and  C_13
REMARK                            x       y       z     vdW  Elec       q    Type
REMARK                         _______ _______ _______ _____ _____    ______ ____
ROOT
ATOM      1  N   UNL     1       4.291   5.505  18.249  0.00  0.00    +0.000 N 
ATOM      2  C   UNL     1       3.330   4.523  18.302  0.00  0.00    +0.000 C 
ATOM      3  O   UNL     1       2.390   4.448  17.519  0.00  0.00    +0.000 OA
ATOM      4  H   UNL     1       4.993   5.508  18.982  0.00  0.00    +0.000 HD
ENDROOT
BRANCH   2   5
ATOM      5  C   UNL     1       3.548   3.552  19.373  0.00  0.00    +0.000 A 
ATOM      6  N   UNL     1       4.743   2.869  19.554  0.00  0.00    +0.000 NA
ATOM      7  C   UNL     1       4.578   2.142  20.637  0.00  0.00    +0.000 A 
ATOM      8  N   UNL     1       3.314   2.275  21.136  0.00  0.00    +0.000 N 
ATOM      9  C   UNL     1       2.630   3.142  20.320  0.00  0.00    +0.000 A 
ATOM     10  H   UNL     1       2.944   1.800  21.949  0.00  0.00    +0.000 HD
BRANCH   9  11
ATOM     11  C   UNL     1       1.200   3.431  20.522  0.00  0.00    +0.000 C 
ATOM     12  F   UNL     1       0.383   2.979  19.550  0.00  0.00    +0.000 F 
ATOM     13  F   UNL     1       0.774   2.854  21.680  0.00  0.00    +0.000 F 
ATOM     14  F   UNL     1       0.984   4.761  20.664  0.00  0.00    +0.000 F 
ENDBRANCH   9  11
ENDBRANCH   2   5
BRANCH   1  15
ATOM     15  C   UNL     1       4.308   6.501  17.199  0.00  0.00    +0.000 C 
BRANCH  15  16
ATOM     16  C   UNL     1       5.589   6.427  16.370  0.00  0.00    +0.000 C 
BRANCH  16  18
ATOM     17  C   UNL     1       7.262   4.621  17.053  0.00  0.00    +0.000 C 
ATOM     18  C   UNL     1       6.113   4.999  16.110  0.00  0.00    +0.000 C 
BRANCH  18  19
ATOM     19  C   UNL     1       6.422   4.739  14.643  0.00  0.00    +0.000 A 
ATOM     20  C   UNL     1       5.647   3.806  13.931  0.00  0.00    +0.000 A 
ATOM     21  C   UNL     1       5.946   3.490  12.603  0.00  0.00    +0.000 A 
ATOM     22  C   UNL     1       7.019   4.103  11.962  0.00  0.00    +0.000 A 
ATOM     23  C   UNL     1       7.779   5.050  12.643  0.00  0.00    +0.000 A 
ATOM     24  C   UNL     1       7.480   5.370  13.969  0.00  0.00    +0.000 A 
ENDBRANCH  18  19
ENDBRANCH  16  18
ENDBRANCH  15  16
ENDBRANCH   1  15
TORSDOF 6
ENDMDL
MODEL 7
REMARK VINA RESULT:      -7.5      0.881      1.153
REMARK  Name = 
REMARK  7 active torsions:
REMARK  status: ('A' for Active; 'I' for Inactive)
REMARK    1  A    between atoms: C_1  and  C_2
REMARK    2  A    between atoms: C_2  and  C_3
REMARK    3  A    between atoms: C_2  and  C_17
REMARK    4  A    between atoms: C_3  and  C_4
REMARK    5  A    between atoms: C_4  and  N_5
REMARK    6  A    between atoms: C_6  and  C_8
REMARK    7  A    between atoms: C_12  and  C_13
REMARK                            x       y       z     vdW  Elec       q    Type
REMARK                         _______ _______ _______ _____ _____    ______ ____
ROOT
ATOM      1  N   UNL     1       5.208   3.282  18.559  0.00  0.00    +0.000 N 
ATOM      2  C   UNL     1       5.652   4.577  18.445  0.00  0.00    +0.000 C 
ATOM      3  O   UNL     1       5.513   5.424  19.321  0.00  0.00    +0.000 OA
ATOM      4  H   UNL     1       5.322   2.678  17.751  0.00  0.00    +0.000 HD
ENDROOT
BRANCH   2   5
ATOM      5  C   UNL     1       6.336   4.850  17.182  0.00  0.00    +0.000 A 
ATOM      6  N   UNL     1       6.377   3.950  16.125  0.00  0.00    +0.000 NA
ATOM      7  C   UNL     1       7.019   4.566  15.158  0.00  0.00    +0.000 A 
ATOM      8  N   UNL     1       7.448   5.800  15.553  0.00  0.00    +0.000 N 
ATOM      9  C   UNL     1       7.053   5.984  16.855  0.00  0.00    +0.000 A 
ATOM     10  H   UNL     1       7.982   6.452  14.991  0.00  0.00    +0.000 HD
BRANCH   9  11
ATOM     11  C   UNL     1       7.441   7.181  17.621  0.00  0.00    +0.000 C 
ATOM     12  F   UNL     1       6.418   7.967  18.011  0.00  0.00    +0.000 F 
ATOM     13  F   UNL     1       8.091   6.808  18.758  0.00  0.00    +0.000 F 
ATOM     14  F   UNL     1       8.314   7.948  16.924  0.00  0.00    +0.000 F 
ENDBRANCH   9  11
ENDBRANCH   2   5
BRANCH   1  15
ATOM     15  C   UNL     1       4.596   2.788  19.774  0.00  0.00    +0.000 C 
BRANCH  15  16
ATOM     16  C   UNL     1       3.088   2.607  19.615  0.00  0.00    +0.000 C 
BRANCH  16  18
ATOM     17  C   UNL     1       0.842   3.035  20.755  0.00  0.00    +0.000 C 
ATOM     18  C   UNL     1       2.226   3.605  20.416  0.00  0.00    +0.000 C 
BRANCH  18  19
ATOM     19  C   UNL     1       2.173   4.986  19.780  0.00  0.00    +0.000 A 
ATOM     20  C   UNL     1       2.201   5.100  18.378  0.00  0.00    +0.000 A 
ATOM     21  C   UNL     1       2.224   6.353  17.760  0.00  0.00    +0.000 A 
ATOM     22  C   UNL     1       2.214   7.513  18.530  0.00  0.00    +0.000 A 
ATOM     23  C   UNL     1       2.157   7.419  19.918  0.00  0.00    +0.000 A 
ATOM     24  C   UNL     1       2.130   6.168  20.537  0.00  0.00    +0.000 A 
ENDBRANCH  18  19
ENDBRANCH  16  18
ENDBRANCH  15  16
ENDBRANCH   1  15
TORSDOF 6
ENDMDL
MODEL 8
REMARK VINA RESULT:      -7.5      1.142      1.674
REMARK  Name = 
REMARK  7 active torsions:
REMARK  status: ('A' for Active; 'I' for Inactive)
REMARK    1  A    between atoms: C_1  and  C_2
REMARK    2  A    between atoms: C_2  and  C_3
REMARK    3  A    between atoms: C_2  and  C_17
REMARK    4  A    between atoms: C_3  and  C_4
REMARK    5  A    between atoms: C_4  and  N_5
REMARK    6  A    between atoms: C_6  and  C_8
REMARK    7  A    between atoms: C_12  and  C_13
REMARK                            x       y       z     vdW  Elec       q    Type
REMARK                         _______ _______ _______ _____ _____    ______ ____
ROOT
ATOM      1  N   UNL     1       5.163   3.717  18.109  0.00  0.00    +0.000 N 
ATOM      2  C   UNL     1       4.725   4.040  16.847  0.00  0.00    +0.000 C 
ATOM      3  O   UNL     1       3.545   4.034  16.514  0.00  0.00    +0.000 OA
ATOM      4  H   UNL     1       6.167   3.697  18.261  0.00  0.00    +0.000 HD
ENDROOT
BRANCH   2   5
ATOM      5  C   UNL     1       5.803   4.420  15.935  0.00  0.00    +0.000 A 
ATOM      6  N   UNL     1       6.044   3.779  14.727  0.00  0.00    +0.000 NA
ATOM      7  C   UNL     1       7.039   4.431  14.170  0.00  0.00    +0.000 A 
ATOM      8  N   UNL     1       7.495   5.429  14.982  0.00  0.00    +0.000 N 
ATOM      9  C   UNL     1       6.742   5.414  16.130  0.00  0.00    +0.000 A 
ATOM     10  H   UNL     1       8.267   6.054  14.780  0.00  0.00    +0.000 HD
BRANCH   9  11
ATOM     11  C   UNL     1       7.038   6.306  17.263  0.00  0.00    +0.000 C 
ATOM     12  F   UNL     1       7.835   7.354  16.973  0.00  0.00    +0.000 F 
ATOM     13  F   UNL     1       5.879   6.831  17.749  0.00  0.00    +0.000 F 
ATOM     14  F   UNL     1       7.601   5.625  18.290  0.00  0.00    +0.000 F 
ENDBRANCH   9  11
ENDBRANCH   2   5
BRANCH   1  15
ATOM     15  C   UNL     1       4.243   3.411  19.183  0.00  0.00    +0.000 C 
BRANCH  15  16
ATOM     16  C   UNL     1       4.000   4.622  20.082  0.00  0.00    +0.000 C 
BRANCH  16  18
ATOM     17  C   UNL     1       1.564   3.989  19.647  0.00  0.00    +0.000 C 
ATOM     18  C   UNL     1       2.522   5.041  20.223  0.00  0.00    +0.000 C 
BRANCH  18  19
ATOM     19  C   UNL     1       2.253   6.449  19.712  0.00  0.00    +0.000 A 
ATOM     20  C   UNL     1       1.626   7.380  20.561  0.00  0.00    +0.000 A 
ATOM     21  C   UNL     1       1.301   8.661  20.104  0.00  0.00    +0.000 A 
ATOM     22  C   UNL     1       1.599   9.034  18.797  0.00  0.00    +0.000 A 
ATOM     23  C   UNL     1       2.244   8.135  17.953  0.00  0.00    +0.000 A 
ATOM     24  C   UNL     1       2.574   6.857  18.408  0.00  0.00    +0.000 A 
ENDBRANCH  18  19
ENDBRANCH  16  18
ENDBRANCH  15  16
ENDBRANCH   1  15
TORSDOF 6
ENDMDL
MODEL 9
REMARK VINA RESULT:      -7.5      2.027      2.587
REMARK  Name = 
REMARK  7 active torsions:
REMARK  status: ('A' for Active; 'I' for Inactive)
REMARK    1  A    between atoms: C_1  and  C_2
REMARK    2  A    between atoms: C_2  and  C_3
REMARK    3  A    between atoms: C_2  and  C_17
REMARK    4  A    between atoms: C_3  and  C_4
REMARK    5  A    between atoms: C_4  and  N_5
REMARK    6  A    between atoms: C_6  and  C_8
REMARK    7  A    between atoms: C_12  and  C_13
REMARK                            x       y       z     vdW  Elec       q    Type
REMARK                         _______ _______ _______ _____ _____    ______ ____
ROOT
ATOM      1  N   UNL     1       4.103   2.663  18.067  0.00  0.00    +0.000 N 
ATOM      2  C   UNL     1       4.436   3.575  17.094  0.00  0.00    +0.000 C 
ATOM      3  O   UNL     1       3.685   3.902  16.182  0.00  0.00    +0.000 OA
ATOM      4  H   UNL     1       4.821   2.420  18.743  0.00  0.00    +0.000 HD
ENDROOT
BRANCH   2   5
ATOM      5  C   UNL     1       5.772   4.145  17.262  0.00  0.00    +0.000 A 
ATOM      6  N   UNL     1       6.346   4.396  18.502  0.00  0.00    +0.000 NA
ATOM      7  C   UNL     1       7.555   4.843  18.250  0.00  0.00    +0.000 A 
ATOM      8  N   UNL     1       7.776   4.951  16.907  0.00  0.00    +0.000 N 
ATOM      9  C   UNL     1       6.634   4.545  16.260  0.00  0.00    +0.000 A 
ATOM     10  H   UNL     1       8.623   5.292  16.469  0.00  0.00    +0.000 HD
BRANCH   9  11
ATOM     11  C   UNL     1       6.501   4.629  14.796  0.00  0.00    +0.000 C 
ATOM     12  F   UNL     1       5.504   5.423  14.358  0.00  0.00    +0.000 F 
ATOM     13  F   UNL     1       7.649   5.125  14.258  0.00  0.00    +0.000 F 
ATOM     14  F   UNL     1       6.329   3.402  14.248  0.00  0.00    +0.000 F 
ENDBRANCH   9  11
ENDBRANCH   2   5
BRANCH   1  15
ATOM     15  C   UNL     1       2.788   2.063  18.134  0.00  0.00    +0.000 C 
BRANCH  15  16
ATOM     16  C   UNL     1       1.751   3.033  18.698  0.00  0.00    +0.000 C 
BRANCH  16  18
ATOM     17  C   UNL     1       1.449   3.247  21.225  0.00  0.00    +0.000 C 
ATOM     18  C   UNL     1       2.183   3.769  19.984  0.00  0.00    +0.000 C 
BRANCH  18  19
ATOM     19  C   UNL     1       2.136   5.283  19.844  0.00  0.00    +0.000 A 
ATOM     20  C   UNL     1       1.590   6.054  20.887  0.00  0.00    +0.000 A 
ATOM     21  C   UNL     1       1.466   7.441  20.765  0.00  0.00    +0.000 A 
ATOM     22  C   UNL     1       1.889   8.081  19.604  0.00  0.00    +0.000 A 
ATOM     23  C   UNL     1       2.458   7.338  18.574  0.00  0.00    +0.000 A 
ATOM     24  C   UNL     1       2.587   5.953  18.696  0.00  0.00    +0.000 A 
ENDBRANCH  18  19
ENDBRANCH  16  18
ENDBRANCH  15  16
ENDBRANCH   1  15
TORSDOF 6
ENDMDL
