MODEL 1
REMARK VINA RESULT:      -8.5      0.000      0.000
REMARK  Name = 
REMARK  2 active torsions:
REMARK  status: ('A' for Active; 'I' for Inactive)
REMARK    1  A    between atoms: C_1  and  C_2
REMARK    2  A    between atoms: C_3  and  C_4
REMARK                            x       y       z     vdW  Elec       q    Type
REMARK                         _______ _______ _______ _____ _____    ______ ____
ROOT
ATOM      1  C   UNL     1       3.341   7.174  17.710  0.00  0.00    +0.000 C 
ATOM      2  C   UNL     1       4.050   6.027  18.370  0.00  0.00    +0.000 C 
ATOM      3  C   UNL     1       5.370   5.767  18.179  0.00  0.00    +0.000 C 
ATOM      4  C   UNL     1       5.997   5.005  19.304  0.00  0.00    +0.000 C 
ATOM      5  O   UNL     1       7.095   5.309  19.753  0.00  0.00    +0.000 OA
ATOM      6  O   UNL     1       5.350   3.860  19.640  0.00  0.00    +0.000 OA
ATOM      7  C   UNL     1       3.918   3.884  19.704  0.00  0.00    +0.000 C 
ATOM      8  C   UNL     1       3.380   2.472  19.460  0.00  0.00    +0.000 C 
ATOM      9  C   UNL     1       1.870   2.406  19.697  0.00  0.00    +0.000 C 
ATOM     10 CL   UNL     1       1.540   2.461  21.457  0.00  0.00    +0.000 Cl
ATOM     11  C   UNL     1       1.098   3.538  18.990  0.00  0.00    +0.000 C 
ATOM     12  C   UNL     1       1.755   4.928  19.110  0.00  0.00    +0.000 C 
ATOM     13  C   UNL     1       3.227   4.802  18.683  0.00  0.00    +0.000 C 
ENDROOT
BRANCH   3  14
ATOM     14  C   UNL     1       5.741   5.245  16.814  0.00  0.00    +0.000 A 
ATOM     15  C   UNL     1       4.921   4.368  16.100  0.00  0.00    +0.000 A 
ATOM     16  C   UNL     1       5.321   3.893  14.838  0.00  0.00    +0.000 A 
ATOM     17  C   UNL     1       6.541   4.284  14.283  0.00  0.00    +0.000 A 
ATOM     18  C   UNL     1       7.373   5.140  14.981  0.00  0.00    +0.000 A 
ATOM     19  C   UNL     1       6.975   5.613  16.231  0.00  0.00    +0.000 A 
ENDBRANCH   3  14
TORSDOF 1
ENDMDL
MODEL 2
REMARK VINA RESULT:      -8.5      0.077      1.106
REMARK  Name = 
REMARK  2 active torsions:
REMARK  status: ('A' for Active; 'I' for Inactive)
REMARK    1  A    between atoms: C_1  and  C_2
REMARK    2  A    between atoms: C_3  and  C_4
REMARK                            x       y       z     vdW  Elec       q    Type
REMARK                         _______ _______ _______ _____ _____    ______ ____
ROOT
ATOM      1  C   UNL     1       3.344   7.130  17.642  0.00  0.00    +0.000 C 
ATOM      2  C   UNL     1       4.060   5.999  18.320  0.00  0.00    +0.000 C 
ATOM      3  C   UNL     1       5.389   5.764  18.156  0.00  0.00    +0.000 C 
ATOM      4  C   UNL     1       6.008   5.017  19.296  0.00  0.00    +0.000 C 
ATOM      5  O   UNL     1       7.091   5.344  19.765  0.00  0.00    +0.000 OA
ATOM      6  O   UNL     1       5.376   3.862  19.624  0.00  0.00    +0.000 OA
ATOM      7  C   UNL     1       3.943   3.859  19.660  0.00  0.00    +0.000 C 
ATOM      8  C   UNL     1       3.436   2.436  19.412  0.00  0.00    +0.000 C 
ATOM      9  C   UNL     1       1.923   2.343  19.620  0.00  0.00    +0.000 C 
ATOM     10 CL   UNL     1       1.558   2.399  21.373  0.00  0.00    +0.000 Cl
ATOM     11  C   UNL     1       1.144   3.458  18.894  0.00  0.00    +0.000 C 
ATOM     12  C   UNL     1       1.772   4.860  19.020  0.00  0.00    +0.000 C 
ATOM     13  C   UNL     1       3.255   4.760  18.622  0.00  0.00    +0.000 C 
ENDROOT
BRANCH   3  14
ATOM     14  C   UNL     1       5.796   5.244  16.801  0.00  0.00    +0.000 A 
ATOM     15  C   UNL     1       6.999   5.608  16.190  0.00  0.00    +0.000 A 
ATOM     16  C   UNL     1       7.326   5.111  14.915  0.00  0.00    +0.000 A 
ATOM     17  C   UNL     1       6.455   4.254  14.240  0.00  0.00    +0.000 A 
ATOM     18  C   UNL     1       5.253   3.894  14.822  0.00  0.00    +0.000 A 
ATOM     19  C   UNL     1       4.931   4.384  16.086  0.00  0.00    +0.000 A 
ENDBRANCH   3  14
TORSDOF 1
ENDMDL
MODEL 3
REMARK VINA RESULT:      -7.8      2.057      3.218
REMARK  Name = 
REMARK  2 active torsions:
REMARK  status: ('A' for Active; 'I' for Inactive)
REMARK    1  A    between atoms: C_1  and  C_2
REMARK    2  A    between atoms: C_3  and  C_4
REMARK                            x       y       z     vdW  Elec       q    Type
REMARK                         _______ _______ _______ _____ _____    ______ ____
ROOT
ATOM      1  C   UNL     1       4.910   4.082  15.693  0.00  0.00    +0.000 C 
ATOM      2  C   UNL     1       4.230   4.853  16.787  0.00  0.00    +0.000 C 
ATOM      3  C   UNL     1       4.539   6.143  17.081  0.00  0.00    +0.000 C 
ATOM      4  C   UNL     1       3.424   6.885  17.750  0.00  0.00    +0.000 C 
ATOM      5  O   UNL     1       3.125   8.027  17.422  0.00  0.00    +0.000 OA
ATOM      6  O   UNL     1       2.919   6.273  18.851  0.00  0.00    +0.000 OA
ATOM      7  C   UNL     1       2.704   4.857  18.801  0.00  0.00    +0.000 C 
ATOM      8  C   UNL     1       2.761   4.289  20.221  0.00  0.00    +0.000 C 
ATOM      9  C   UNL     1       2.357   2.813  20.244  0.00  0.00    +0.000 C 
ATOM     10 CL   UNL     1       0.584   2.676  20.028  0.00  0.00    +0.000 Cl
ATOM     11  C   UNL     1       3.075   1.975  19.168  0.00  0.00    +0.000 C 
ATOM     12  C   UNL     1       3.152   2.647  17.783  0.00  0.00    +0.000 C 
ATOM     13  C   UNL     1       3.722   4.063  17.967  0.00  0.00    +0.000 C 
ENDROOT
BRANCH   3  14
ATOM     14  C   UNL     1       5.883   6.362  17.727  0.00  0.00    +0.000 A 
ATOM     15  C   UNL     1       6.364   5.540  18.750  0.00  0.00    +0.000 A 
ATOM     16  C   UNL     1       7.618   5.796  19.335  0.00  0.00    +0.000 A 
ATOM     17  C   UNL     1       8.396   6.875  18.908  0.00  0.00    +0.000 A 
ATOM     18  C   UNL     1       7.930   7.707  17.907  0.00  0.00    +0.000 A 
ATOM     19  C   UNL     1       6.689   7.452  17.326  0.00  0.00    +0.000 A 
ENDBRANCH   3  14
TORSDOF 1
ENDMDL
MODEL 4
REMARK VINA RESULT:      -7.7      2.061      3.333
REMARK  Name = 
REMARK  2 active torsions:
REMARK  status: ('A' for Active; 'I' for Inactive)
REMARK    1  A    between atoms: C_1  and  C_2
REMARK    2  A    between atoms: C_3  and  C_4
REMARK                            x       y       z     vdW  Elec       q    Type
REMARK                         _______ _______ _______ _____ _____    ______ ____
ROOT
ATOM      1  C   UNL     1       4.995   4.211  15.616  0.00  0.00    +0.000 C 
ATOM      2  C   UNL     1       4.287   4.929  16.728  0.00  0.00    +0.000 C 
ATOM      3  C   UNL     1       4.565   6.214  17.070  0.00  0.00    +0.000 C 
ATOM      4  C   UNL     1       3.428   6.909  17.751  0.00  0.00    +0.000 C 
ATOM      5  O   UNL     1       3.109   8.055  17.460  0.00  0.00    +0.000 OA
ATOM      6  O   UNL     1       2.922   6.249  18.824  0.00  0.00    +0.000 OA
ATOM      7  C   UNL     1       2.737   4.832  18.722  0.00  0.00    +0.000 C 
ATOM      8  C   UNL     1       2.789   4.216  20.122  0.00  0.00    +0.000 C 
ATOM      9  C   UNL     1       2.416   2.732  20.089  0.00  0.00    +0.000 C 
ATOM     10 CL   UNL     1       0.649   2.567  19.847  0.00  0.00    +0.000 Cl
ATOM     11  C   UNL     1       3.164   1.946  18.993  0.00  0.00    +0.000 C 
ATOM     12  C   UNL     1       3.243   2.668  17.633  0.00  0.00    +0.000 C 
ATOM     13  C   UNL     1       3.781   4.088  17.873  0.00  0.00    +0.000 C 
ENDROOT
BRANCH   3  14
ATOM     14  C   UNL     1       5.897   6.437  17.740  0.00  0.00    +0.000 A 
ATOM     15  C   UNL     1       6.762   7.467  17.361  0.00  0.00    +0.000 A 
ATOM     16  C   UNL     1       8.004   7.623  18.003  0.00  0.00    +0.000 A 
ATOM     17  C   UNL     1       8.393   6.750  19.022  0.00  0.00    +0.000 A 
ATOM     18  C   UNL     1       7.557   5.716  19.400  0.00  0.00    +0.000 A 
ATOM     19  C   UNL     1       6.325   5.564  18.766  0.00  0.00    +0.000 A 
ENDBRANCH   3  14
TORSDOF 1
ENDMDL
MODEL 5
REMARK VINA RESULT:      -7.5      1.624      2.039
REMARK  Name = 
REMARK  2 active torsions:
REMARK  status: ('A' for Active; 'I' for Inactive)
REMARK    1  A    between atoms: C_1  and  C_2
REMARK    2  A    between atoms: C_3  and  C_4
REMARK                            x       y       z     vdW  Elec       q    Type
REMARK                         _______ _______ _______ _____ _____    ______ ____
ROOT
ATOM      1  C   UNL     1       4.771   7.329  16.098  0.00  0.00    +0.000 C 
ATOM      2  C   UNL     1       5.230   6.008  16.643  0.00  0.00    +0.000 C 
ATOM      3  C   UNL     1       6.383   5.408  16.248  0.00  0.00    +0.000 C 
ATOM      4  C   UNL     1       6.941   4.461  17.264  0.00  0.00    +0.000 C 
ATOM      5  O   UNL     1       8.136   4.439  17.533  0.00  0.00    +0.000 OA
ATOM      6  O   UNL     1       6.064   3.522  17.702  0.00  0.00    +0.000 OA
ATOM      7  C   UNL     1       4.721   3.931  17.990  0.00  0.00    +0.000 C 
ATOM      8  C   UNL     1       3.786   2.729  17.840  0.00  0.00    +0.000 C 
ATOM      9  C   UNL     1       2.370   3.066  18.312  0.00  0.00    +0.000 C 
ATOM     10 CL   UNL     1       2.340   3.140  20.102  0.00  0.00    +0.000 Cl
ATOM     11  C   UNL     1       1.840   4.392  17.730  0.00  0.00    +0.000 C 
ATOM     12  C   UNL     1       2.862   5.545  17.739  0.00  0.00    +0.000 C 
ATOM     13  C   UNL     1       4.161   5.042  17.087  0.00  0.00    +0.000 C 
ENDROOT
BRANCH   3  14
ATOM     14  C   UNL     1       6.385   4.859  14.844  0.00  0.00    +0.000 A 
ATOM     15  C   UNL     1       5.396   3.987  14.381  0.00  0.00    +0.000 A 
ATOM     16  C   UNL     1       5.452   3.485  13.068  0.00  0.00    +0.000 A 
ATOM     17  C   UNL     1       6.495   3.844  12.212  0.00  0.00    +0.000 A 
ATOM     18  C   UNL     1       7.491   4.694  12.657  0.00  0.00    +0.000 A 
ATOM     19  C   UNL     1       7.434   5.194  13.957  0.00  0.00    +0.000 A 
ENDBRANCH   3  14
TORSDOF 1
ENDMDL
MODEL 6
REMARK VINA RESULT:      -6.7      1.480      2.335
REMARK  Name = 
REMARK  2 active torsions:
REMARK  status: ('A' for Active; 'I' for Inactive)
REMARK    1  A    between atoms: C_1  and  C_2
REMARK    2  A    between atoms: C_3  and  C_4
REMARK                            x       y       z     vdW  Elec       q    Type
REMARK                         _______ _______ _______ _____ _____    ______ ____
ROOT
ATOM      1  C   UNL     1       5.792   7.749  16.532  0.00  0.00    +0.000 C 
ATOM      2  C   UNL     1       5.944   6.359  17.076  0.00  0.00    +0.000 C 
ATOM      3  C   UNL     1       6.917   5.506  16.659  0.00  0.00    +0.000 C 
ATOM      4  C   UNL     1       7.264   4.458  17.669  0.00  0.00    +0.000 C 
ATOM      5  O   UNL     1       8.426   4.159  17.911  0.00  0.00    +0.000 OA
ATOM      6  O   UNL     1       6.203   3.749  18.135  0.00  0.00    +0.000 OA
ATOM      7  C   UNL     1       5.000   4.459  18.450  0.00  0.00    +0.000 C 
ATOM      8  C   UNL     1       3.808   3.507  18.331  0.00  0.00    +0.000 C 
ATOM      9  C   UNL     1       2.520   4.164  18.833  0.00  0.00    +0.000 C 
ATOM     10 CL   UNL     1       2.551   4.247  20.622  0.00  0.00    +0.000 Cl
ATOM     11  C   UNL     1       2.299   5.576  18.253  0.00  0.00    +0.000 C 
ATOM     12  C   UNL     1       3.561   6.461  18.230  0.00  0.00    +0.000 C 
ATOM     13  C   UNL     1       4.691   5.668  17.552  0.00  0.00    +0.000 C 
ENDROOT
BRANCH   3  14
ATOM     14  C   UNL     1       6.757   4.969  15.260  0.00  0.00    +0.000 A 
ATOM     15  C   UNL     1       7.630   5.309  14.223  0.00  0.00    +0.000 A 
ATOM     16  C   UNL     1       7.428   4.797  12.929  0.00  0.00    +0.000 A 
ATOM     17  C   UNL     1       6.353   3.947  12.659  0.00  0.00    +0.000 A 
ATOM     18  C   UNL     1       5.470   3.611  13.669  0.00  0.00    +0.000 A 
ATOM     19  C   UNL     1       5.672   4.116  14.952  0.00  0.00    +0.000 A 
ENDBRANCH   3  14
TORSDOF 1
ENDMDL
MODEL 7
REMARK VINA RESULT:      -6.5      7.647      9.762
REMARK  Name = 
REMARK  2 active torsions:
REMARK  status: ('A' for Active; 'I' for Inactive)
REMARK    1  A    between atoms: C_1  and  C_2
REMARK    2  A    between atoms: C_3  and  C_4
REMARK                            x       y       z     vdW  Elec       q    Type
REMARK                         _______ _______ _______ _____ _____    ______ ____
ROOT
ATOM      1  C   UNL     1       0.892   9.559  18.039  0.00  0.00    +0.000 C 
ATOM      2  C   UNL     1       0.033  10.689  18.528  0.00  0.00    +0.000 C 
ATOM      3  C   UNL     1       0.362  11.453  19.602  0.00  0.00    +0.000 C 
ATOM      4  C   UNL     1      -0.261  12.814  19.579  0.00  0.00    +0.000 C 
ATOM      5  O   UNL     1       0.379  13.818  19.865  0.00  0.00    +0.000 OA
ATOM      6  O   UNL     1      -1.608  12.816  19.411  0.00  0.00    +0.000 OA
ATOM      7  C   UNL     1      -2.171  11.921  18.444  0.00  0.00    +0.000 C 
ATOM      8  C   UNL     1      -3.619  11.608  18.832  0.00  0.00    +0.000 C 
ATOM      9  C   UNL     1      -4.324  10.803  17.738  0.00  0.00    +0.000 C 
ATOM     10 CL   UNL     1      -4.700  11.879  16.355  0.00  0.00    +0.000 Cl
ATOM     11  C   UNL     1      -3.496   9.599  17.245  0.00  0.00    +0.000 C 
ATOM     12  C   UNL     1      -2.001   9.902  17.023  0.00  0.00    +0.000 C 
ATOM     13  C   UNL     1      -1.452  10.571  18.294  0.00  0.00    +0.000 C 
ENDROOT
BRANCH   3  14
ATOM     14  C   UNL     1       0.269  10.768  20.942  0.00  0.00    +0.000 A 
ATOM     15  C   UNL     1       1.147   9.751  21.326  0.00  0.00    +0.000 A 
ATOM     16  C   UNL     1       1.007   9.129  22.580  0.00  0.00    +0.000 A 
ATOM     17  C   UNL     1      -0.011   9.513  23.456  0.00  0.00    +0.000 A 
ATOM     18  C   UNL     1      -0.898  10.507  23.088  0.00  0.00    +0.000 A 
ATOM     19  C   UNL     1      -0.758  11.125  21.846  0.00  0.00    +0.000 A 
ENDBRANCH   3  14
TORSDOF 1
ENDMDL
MODEL 8
REMARK VINA RESULT:      -6.5      7.665      9.759
REMARK  Name = 
REMARK  2 active torsions:
REMARK  status: ('A' for Active; 'I' for Inactive)
REMARK    1  A    between atoms: C_1  and  C_2
REMARK    2  A    between atoms: C_3  and  C_4
REMARK                            x       y       z     vdW  Elec       q    Type
REMARK                         _______ _______ _______ _____ _____    ______ ____
ROOT
ATOM      1  C   UNL     1       0.878   9.566  18.079  0.00  0.00    +0.000 C 
ATOM      2  C   UNL     1       0.009  10.698  18.547  0.00  0.00    +0.000 C 
ATOM      3  C   UNL     1       0.314  11.462  19.629  0.00  0.00    +0.000 C 
ATOM      4  C   UNL     1      -0.306  12.823  19.591  0.00  0.00    +0.000 C 
ATOM      5  O   UNL     1       0.329  13.827  19.891  0.00  0.00    +0.000 OA
ATOM      6  O   UNL     1      -1.649  12.827  19.392  0.00  0.00    +0.000 OA
ATOM      7  C   UNL     1      -2.192  11.932  18.413  0.00  0.00    +0.000 C 
ATOM      8  C   UNL     1      -3.647  11.621  18.769  0.00  0.00    +0.000 C 
ATOM      9  C   UNL     1      -4.329  10.816  17.659  0.00  0.00    +0.000 C 
ATOM     10 CL   UNL     1      -4.673  11.892  16.269  0.00  0.00    +0.000 Cl
ATOM     11  C   UNL     1      -3.491   9.612  17.186  0.00  0.00    +0.000 C 
ATOM     12  C   UNL     1      -1.991   9.913  16.997  0.00  0.00    +0.000 C 
ATOM     13  C   UNL     1      -1.470  10.581  18.280  0.00  0.00    +0.000 C 
ENDROOT
BRANCH   3  14
ATOM     14  C   UNL     1       0.190  10.778  20.966  0.00  0.00    +0.000 A 
ATOM     15  C   UNL     1      -0.796  11.123  21.894  0.00  0.00    +0.000 A 
ATOM     16  C   UNL     1      -0.859  10.469  23.138  0.00  0.00    +0.000 A 
ATOM     17  C   UNL     1       0.063   9.473  23.467  0.00  0.00    +0.000 A 
ATOM     18  C   UNL     1       1.055   9.128  22.567  0.00  0.00    +0.000 A 
ATOM     19  C   UNL     1       1.115   9.774  21.333  0.00  0.00    +0.000 A 
ENDBRANCH   3  14
TORSDOF 1
ENDMDL
MODEL 9
REMARK VINA RESULT:      -6.4      2.855      5.680
REMARK  Name = 
REMARK  2 active torsions:
REMARK  status: ('A' for Active; 'I' for Inactive)
REMARK    1  A    between atoms: C_1  and  C_2
REMARK    2  A    between atoms: C_3  and  C_4
REMARK                            x       y       z     vdW  Elec       q    Type
REMARK                         _______ _______ _______ _____ _____    ______ ____
ROOT
ATOM      1  C   UNL     1       3.244   7.073  19.454  0.00  0.00    +0.000 C 
ATOM      2  C   UNL     1       3.160   5.920  18.496  0.00  0.00    +0.000 C 
ATOM      3  C   UNL     1       2.199   4.963  18.578  0.00  0.00    +0.000 C 
ATOM      4  C   UNL     1       1.929   4.276  17.275  0.00  0.00    +0.000 C 
ATOM      5  O   UNL     1       0.788   4.048  16.894  0.00  0.00    +0.000 OA
ATOM      6  O   UNL     1       3.031   3.767  16.666  0.00  0.00    +0.000 OA
ATOM      7  C   UNL     1       4.223   4.562  16.649  0.00  0.00    +0.000 C 
ATOM      8  C   UNL     1       5.439   3.640  16.526  0.00  0.00    +0.000 C 
ATOM      9  C   UNL     1       6.725   4.444  16.320  0.00  0.00    +0.000 C 
ATOM     10 CL   UNL     1       6.767   5.082  14.646  0.00  0.00    +0.000 Cl
ATOM     11  C   UNL     1       6.876   5.608  17.320  0.00  0.00    +0.000 C 
ATOM     12  C   UNL     1       5.586   6.419  17.554  0.00  0.00    +0.000 C 
ATOM     13  C   UNL     1       4.455   5.434  17.893  0.00  0.00    +0.000 C 
ENDROOT
BRANCH   3  14
ATOM     14  C   UNL     1       2.316   4.018  19.746  0.00  0.00    +0.000 A 
ATOM     15  C   UNL     1       3.476   3.281  19.999  0.00  0.00    +0.000 A 
ATOM     16  C   UNL     1       3.531   2.396  21.091  0.00  0.00    +0.000 A 
ATOM     17  C   UNL     1       2.429   2.237  21.934  0.00  0.00    +0.000 A 
ATOM     18  C   UNL     1       1.267   2.947  21.692  0.00  0.00    +0.000 A 
ATOM     19  C   UNL     1       1.214   3.825  20.611  0.00  0.00    +0.000 A 
ENDBRANCH   3  14
TORSDOF 1
ENDMDL
