MODEL 1
REMARK VINA RESULT:      -8.9      0.000      0.000
REMARK  Name = 
REMARK  8 active torsions:
REMARK  status: ('A' for Active; 'I' for Inactive)
REMARK    1  A    between atoms: C_2  and  C_3
REMARK    2  A    between atoms: C_3  and  S_4
REMARK    3  A    between atoms: S_4  and  C_5
REMARK    4  A    between atoms: C_7  and  S_8
REMARK    5  A    between atoms: S_8  and  C_9
REMARK    6  A    between atoms: N_13  and  C_14
REMARK    7  A    between atoms: N_23  and  C_24
REMARK    8  A    between atoms: C_24  and  C_25
REMARK                            x       y       z     vdW  Elec       q    Type
REMARK                         _______ _______ _______ _____ _____    ______ ____
ROOT
ATOM      1  C   UNL     1       2.894   5.523  19.788  0.00  0.00    +0.000 A 
ATOM      2  C   UNL     1       3.737   5.515  18.672  0.00  0.00    +0.000 A 
ATOM      3  C   UNL     1       3.788   6.608  17.793  0.00  0.00    +0.000 A 
ATOM      4  C   UNL     1       2.969   7.721  18.054  0.00  0.00    +0.000 A 
ATOM      5  N   UNL     1       2.800   8.904  17.380  0.00  0.00    +0.000 NA
ATOM      6  N   UNL     1       1.900   9.629  18.030  0.00  0.00    +0.000 NA
ATOM      7  N   UNL     1       1.519   8.928  19.117  0.00  0.00    +0.000 N 
ATOM      8  C   UNL     1       2.142   7.708  19.175  0.00  0.00    +0.000 A 
ATOM      9  C   UNL     1       2.079   6.628  20.065  0.00  0.00    +0.000 A 
ENDROOT
BRANCH   1  10
ATOM     10  S   UNL     1       2.989   4.157  20.923  0.00  0.00    +0.000 S 
BRANCH  10  11
ATOM     11  C   UNL     1       1.238   3.586  20.995  0.00  0.00    +0.000 C 
BRANCH  11  13
ATOM     12  C   UNL     1       0.760   2.266  18.545  0.00  0.00    +0.000 C 
ATOM     13  C   UNL     1       0.981   2.876  19.676  0.00  0.00    +0.000 C 
ENDBRANCH  11  13
ENDBRANCH  10  11
ENDBRANCH   1  10
BRANCH   3  14
ATOM     14  S   UNL     1       4.768   6.576  16.327  0.00  0.00    +0.000 S 
BRANCH  14  15
ATOM     15  C   UNL     1       6.227   5.815  16.891  0.00  0.00    +0.000 A 
ATOM     16  C   UNL     1       6.810   5.759  18.138  0.00  0.00    +0.000 A 
ATOM     17  N   UNL     1       7.798   4.822  18.146  0.00  0.00    +0.000 NA
ATOM     18  N   UNL     1       7.841   4.264  16.945  0.00  0.00    +0.000 NA
ATOM     19  N   UNL     1       6.971   4.922  16.128  0.00  0.00    +0.000 N 
BRANCH  19  20
ATOM     20  C   UNL     1       6.970   4.646  14.734  0.00  0.00    +0.000 A 
ATOM     21  C   UNL     1       7.808   5.389  13.890  0.00  0.00    +0.000 A 
ATOM     22  C   UNL     1       7.809   5.150  12.514  0.00  0.00    +0.000 A 
ATOM     23  C   UNL     1       6.951   4.194  11.971  0.00  0.00    +0.000 A 
ATOM     24  C   UNL     1       6.102   3.468  12.803  0.00  0.00    +0.000 A 
ATOM     25  C   UNL     1       6.110   3.688  14.182  0.00  0.00    +0.000 A 
ENDBRANCH  19  20
ENDBRANCH  14  15
ENDBRANCH   3  14
BRANCH   7  26
ATOM     26  C   UNL     1       0.515   9.475  20.019  0.00  0.00    +0.000 C 
BRANCH  26  27
ATOM     27  C   UNL     1       0.165  10.902  19.661  0.00  0.00    +0.000 A 
ATOM     28  C   UNL     1       0.852  11.950  20.306  0.00  0.00    +0.000 A 
ATOM     29  C   UNL     1       0.540  13.285  20.046  0.00  0.00    +0.000 A 
ATOM     30  C   UNL     1      -0.452  13.600  19.124  0.00  0.00    +0.000 A 
ATOM     31  C   UNL     1      -1.121  12.579  18.451  0.00  0.00    +0.000 A 
ATOM     32  C   UNL     1      -0.814  11.239  18.713  0.00  0.00    +0.000 A 
ATOM     33 CL   UNL     1      -1.679  10.043  17.814  0.00  0.00    +0.000 Cl
ENDBRANCH  26  27
ENDBRANCH   7  26
TORSDOF 8
ENDMDL
MODEL 2
REMARK VINA RESULT:      -8.8      1.108      1.736
REMARK  Name = 
REMARK  8 active torsions:
REMARK  status: ('A' for Active; 'I' for Inactive)
REMARK    1  A    between atoms: C_2  and  C_3
REMARK    2  A    between atoms: C_3  and  S_4
REMARK    3  A    between atoms: S_4  and  C_5
REMARK    4  A    between atoms: C_7  and  S_8
REMARK    5  A    between atoms: S_8  and  C_9
REMARK    6  A    between atoms: N_13  and  C_14
REMARK    7  A    between atoms: N_23  and  C_24
REMARK    8  A    between atoms: C_24  and  C_25
REMARK                            x       y       z     vdW  Elec       q    Type
REMARK                         _______ _______ _______ _____ _____    ______ ____
ROOT
ATOM      1  C   UNL     1       2.753   5.619  19.700  0.00  0.00    +0.000 A 
ATOM      2  C   UNL     1       3.628   5.636  18.608  0.00  0.00    +0.000 A 
ATOM      3  C   UNL     1       3.727   6.760  17.775  0.00  0.00    +0.000 A 
ATOM      4  C   UNL     1       2.924   7.880  18.056  0.00  0.00    +0.000 A 
ATOM      5  N   UNL     1       2.798   9.091  17.425  0.00  0.00    +0.000 NA
ATOM      6  N   UNL     1       1.895   9.810  18.076  0.00  0.00    +0.000 NA
ATOM      7  N   UNL     1       1.467   9.076  19.124  0.00  0.00    +0.000 N 
ATOM      8  C   UNL     1       2.064   7.841  19.151  0.00  0.00    +0.000 A 
ATOM      9  C   UNL     1       1.953   6.730  19.997  0.00  0.00    +0.000 A 
ENDROOT
BRANCH   1  10
ATOM     10  S   UNL     1       2.786   4.208  20.782  0.00  0.00    +0.000 S 
BRANCH  10  11
ATOM     11  C   UNL     1       1.396   3.185  20.135  0.00  0.00    +0.000 C 
BRANCH  11  13
ATOM     12  C   UNL     1       2.334   2.059  17.721  0.00  0.00    +0.000 C 
ATOM     13  C   UNL     1       1.901   2.579  18.836  0.00  0.00    +0.000 C 
ENDBRANCH  11  13
ENDBRANCH  10  11
ENDBRANCH   1  10
BRANCH   3  14
ATOM     14  S   UNL     1       4.749   6.764  16.337  0.00  0.00    +0.000 S 
BRANCH  14  15
ATOM     15  C   UNL     1       6.178   5.959  16.915  0.00  0.00    +0.000 A 
ATOM     16  C   UNL     1       6.744   5.880  18.169  0.00  0.00    +0.000 A 
ATOM     17  N   UNL     1       7.704   4.915  18.184  0.00  0.00    +0.000 NA
ATOM     18  N   UNL     1       7.747   4.363  16.980  0.00  0.00    +0.000 NA
ATOM     19  N   UNL     1       6.907   5.050  16.156  0.00  0.00    +0.000 N 
BRANCH  19  20
ATOM     20  C   UNL     1       6.916   4.781  14.761  0.00  0.00    +0.000 A 
ATOM     21  C   UNL     1       6.079   3.777  14.253  0.00  0.00    +0.000 A 
ATOM     22  C   UNL     1       6.085   3.482  12.888  0.00  0.00    +0.000 A 
ATOM     23  C   UNL     1       6.951   4.162  12.031  0.00  0.00    +0.000 A 
ATOM     24  C   UNL     1       7.799   5.144  12.534  0.00  0.00    +0.000 A 
ATOM     25  C   UNL     1       7.784   5.460  13.895  0.00  0.00    +0.000 A 
ENDBRANCH  19  20
ENDBRANCH  14  15
ENDBRANCH   3  14
BRANCH   7  26
ATOM     26  C   UNL     1       0.449   9.609  20.018  0.00  0.00    +0.000 C 
BRANCH  26  27
ATOM     27  C   UNL     1      -0.658  10.297  19.251  0.00  0.00    +0.000 A 
ATOM     28  C   UNL     1      -1.164   9.679  18.090  0.00  0.00    +0.000 A 
ATOM     29  C   UNL     1      -2.155  10.290  17.321  0.00  0.00    +0.000 A 
ATOM     30  C   UNL     1      -2.672  11.522  17.704  0.00  0.00    +0.000 A 
ATOM     31  C   UNL     1      -2.209  12.135  18.868  0.00  0.00    +0.000 A 
ATOM     32  C   UNL     1      -1.212  11.528  19.639  0.00  0.00    +0.000 A 
ATOM     33 CL   UNL     1      -0.717  12.351  21.075  0.00  0.00    +0.000 Cl
ENDBRANCH  26  27
ENDBRANCH   7  26
TORSDOF 8
ENDMDL
MODEL 3
REMARK VINA RESULT:      -8.7      0.632      1.075
REMARK  Name = 
REMARK  8 active torsions:
REMARK  status: ('A' for Active; 'I' for Inactive)
REMARK    1  A    between atoms: C_2  and  C_3
REMARK    2  A    between atoms: C_3  and  S_4
REMARK    3  A    between atoms: S_4  and  C_5
REMARK    4  A    between atoms: C_7  and  S_8
REMARK    5  A    between atoms: S_8  and  C_9
REMARK    6  A    between atoms: N_13  and  C_14
REMARK    7  A    between atoms: N_23  and  C_24
REMARK    8  A    between atoms: C_24  and  C_25
REMARK                            x       y       z     vdW  Elec       q    Type
REMARK                         _______ _______ _______ _____ _____    ______ ____
ROOT
ATOM      1  C   UNL     1       2.759   5.528  19.707  0.00  0.00    +0.000 A 
ATOM      2  C   UNL     1       3.625   5.546  18.609  0.00  0.00    +0.000 A 
ATOM      3  C   UNL     1       3.733   6.679  17.788  0.00  0.00    +0.000 A 
ATOM      4  C   UNL     1       2.947   7.807  18.089  0.00  0.00    +0.000 A 
ATOM      5  N   UNL     1       2.833   9.027  17.473  0.00  0.00    +0.000 NA
ATOM      6  N   UNL     1       1.946   9.750  18.141  0.00  0.00    +0.000 NA
ATOM      7  N   UNL     1       1.516   9.009  19.183  0.00  0.00    +0.000 N 
ATOM      8  C   UNL     1       2.096   7.767  19.191  0.00  0.00    +0.000 A 
ATOM      9  C   UNL     1       1.976   6.646  20.024  0.00  0.00    +0.000 A 
ENDROOT
BRANCH   1  10
ATOM     10  S   UNL     1       2.782   4.104  20.773  0.00  0.00    +0.000 S 
BRANCH  10  11
ATOM     11  C   UNL     1       1.735   2.904  19.844  0.00  0.00    +0.000 C 
BRANCH  11  13
ATOM     12  C   UNL     1       3.506   1.486  18.163  0.00  0.00    +0.000 C 
ATOM     13  C   UNL     1       2.688   2.141  18.939  0.00  0.00    +0.000 C 
ENDBRANCH  11  13
ENDBRANCH  10  11
ENDBRANCH   1  10
BRANCH   3  14
ATOM     14  S   UNL     1       4.743   6.686  16.342  0.00  0.00    +0.000 S 
BRANCH  14  15
ATOM     15  C   UNL     1       6.181   5.890  16.910  0.00  0.00    +0.000 A 
ATOM     16  C   UNL     1       6.752   5.807  18.161  0.00  0.00    +0.000 A 
ATOM     17  N   UNL     1       7.721   4.850  18.166  0.00  0.00    +0.000 NA
ATOM     18  N   UNL     1       7.765   4.307  16.958  0.00  0.00    +0.000 NA
ATOM     19  N   UNL     1       6.915   4.992  16.142  0.00  0.00    +0.000 N 
BRANCH  19  20
ATOM     20  C   UNL     1       6.921   4.733  14.745  0.00  0.00    +0.000 A 
ATOM     21  C   UNL     1       6.085   3.732  14.232  0.00  0.00    +0.000 A 
ATOM     22  C   UNL     1       6.089   3.445  12.864  0.00  0.00    +0.000 A 
ATOM     23  C   UNL     1       6.952   4.133  12.011  0.00  0.00    +0.000 A 
ATOM     24  C   UNL     1       7.800   5.113  12.519  0.00  0.00    +0.000 A 
ATOM     25  C   UNL     1       7.787   5.419  13.882  0.00  0.00    +0.000 A 
ENDBRANCH  19  20
ENDBRANCH  14  15
ENDBRANCH   3  14
BRANCH   7  26
ATOM     26  C   UNL     1       0.513   9.546  20.092  0.00  0.00    +0.000 C 
BRANCH  26  27
ATOM     27  C   UNL     1       0.129  10.960  19.722  0.00  0.00    +0.000 A 
ATOM     28  C   UNL     1       0.827  12.030  20.317  0.00  0.00    +0.000 A 
ATOM     29  C   UNL     1       0.486  13.355  20.045  0.00  0.00    +0.000 A 
ATOM     30  C   UNL     1      -0.549  13.639  19.161  0.00  0.00    +0.000 A 
ATOM     31  C   UNL     1      -1.231  12.596  18.536  0.00  0.00    +0.000 A 
ATOM     32  C   UNL     1      -0.894  11.266  18.810  0.00  0.00    +0.000 A 
ATOM     33 CL   UNL     1      -1.780  10.042  17.972  0.00  0.00    +0.000 Cl
ENDBRANCH  26  27
ENDBRANCH   7  26
TORSDOF 8
ENDMDL
MODEL 4
REMARK VINA RESULT:      -7.9      5.503     11.587
REMARK  Name = 
REMARK  8 active torsions:
REMARK  status: ('A' for Active; 'I' for Inactive)
REMARK    1  A    between atoms: C_2  and  C_3
REMARK    2  A    between atoms: C_3  and  S_4
REMARK    3  A    between atoms: S_4  and  C_5
REMARK    4  A    between atoms: C_7  and  S_8
REMARK    5  A    between atoms: S_8  and  C_9
REMARK    6  A    between atoms: N_13  and  C_14
REMARK    7  A    between atoms: N_23  and  C_24
REMARK    8  A    between atoms: C_24  and  C_25
REMARK                            x       y       z     vdW  Elec       q    Type
REMARK                         _______ _______ _______ _____ _____    ______ ____
ROOT
ATOM      1  C   UNL     1      -2.475  12.596  20.370  0.00  0.00    +0.000 A 
ATOM      2  C   UNL     1      -3.566  12.340  19.531  0.00  0.00    +0.000 A 
ATOM      3  C   UNL     1      -3.449  11.479  18.430  0.00  0.00    +0.000 A 
ATOM      4  C   UNL     1      -2.206  10.871  18.179  0.00  0.00    +0.000 A 
ATOM      5  N   UNL     1      -1.796  10.011  17.192  0.00  0.00    +0.000 NA
ATOM      6  N   UNL     1      -0.516   9.731  17.388  0.00  0.00    +0.000 NA
ATOM      7  N   UNL     1      -0.120  10.384  18.500  0.00  0.00    +0.000 N 
ATOM      8  C   UNL     1      -1.136  11.137  19.030  0.00  0.00    +0.000 A 
ATOM      9  C   UNL     1      -1.233  11.992  20.136  0.00  0.00    +0.000 A 
ENDROOT
BRANCH   1  10
ATOM     10  S   UNL     1      -2.744  13.593  21.818  0.00  0.00    +0.000 S 
BRANCH  10  11
ATOM     11  C   UNL     1      -2.391  12.404  23.181  0.00  0.00    +0.000 C 
BRANCH  11  13
ATOM     12  C   UNL     1      -4.721  12.358  24.777  0.00  0.00    +0.000 C 
ATOM     13  C   UNL     1      -3.645  12.379  24.041  0.00  0.00    +0.000 C 
ENDBRANCH  11  13
ENDBRANCH  10  11
ENDBRANCH   1  10
BRANCH   3  14
ATOM     14  S   UNL     1      -4.784  11.223  17.305  0.00  0.00    +0.000 S 
BRANCH  14  15
ATOM     15  C   UNL     1      -6.154  11.221  18.375  0.00  0.00    +0.000 A 
ATOM     16  C   UNL     1      -6.695  10.237  19.173  0.00  0.00    +0.000 A 
ATOM     17  N   UNL     1      -7.598  10.783  20.034  0.00  0.00    +0.000 NA
ATOM     18  N   UNL     1      -7.629  12.090  19.819  0.00  0.00    +0.000 NA
ATOM     19  N   UNL     1      -6.842  12.373  18.743  0.00  0.00    +0.000 N 
BRANCH  19  20
ATOM     20  C   UNL     1      -6.857  13.680  18.184  0.00  0.00    +0.000 A 
ATOM     21  C   UNL     1      -6.565  14.777  19.007  0.00  0.00    +0.000 A 
ATOM     22  C   UNL     1      -6.595  16.073  18.486  0.00  0.00    +0.000 A 
ATOM     23  C   UNL     1      -6.948  16.280  17.153  0.00  0.00    +0.000 A 
ATOM     24  C   UNL     1      -7.261  15.195  16.338  0.00  0.00    +0.000 A 
ATOM     25  C   UNL     1      -7.214  13.895  16.846  0.00  0.00    +0.000 A 
ENDBRANCH  19  20
ENDBRANCH  14  15
ENDBRANCH   3  14
BRANCH   7  26
ATOM     26  C   UNL     1       1.259  10.275  18.955  0.00  0.00    +0.000 C 
BRANCH  26  27
ATOM     27  C   UNL     1       1.655   8.835  19.187  0.00  0.00    +0.000 A 
ATOM     28  C   UNL     1       2.293   8.131  18.146  0.00  0.00    +0.000 A 
ATOM     29  C   UNL     1       2.641   6.787  18.291  0.00  0.00    +0.000 A 
ATOM     30  C   UNL     1       2.376   6.125  19.484  0.00  0.00    +0.000 A 
ATOM     31  C   UNL     1       1.776   6.812  20.538  0.00  0.00    +0.000 A 
ATOM     32  C   UNL     1       1.421   8.158  20.395  0.00  0.00    +0.000 A 
ATOM     33 CL   UNL     1       0.703   8.932  21.763  0.00  0.00    +0.000 Cl
ENDBRANCH  26  27
ENDBRANCH   7  26
TORSDOF 8
ENDMDL
MODEL 5
REMARK VINA RESULT:      -7.8      4.274      6.995
REMARK  Name = 
REMARK  8 active torsions:
REMARK  status: ('A' for Active; 'I' for Inactive)
REMARK    1  A    between atoms: C_2  and  C_3
REMARK    2  A    between atoms: C_3  and  S_4
REMARK    3  A    between atoms: S_4  and  C_5
REMARK    4  A    between atoms: C_7  and  S_8
REMARK    5  A    between atoms: S_8  and  C_9
REMARK    6  A    between atoms: N_13  and  C_14
REMARK    7  A    between atoms: N_23  and  C_24
REMARK    8  A    between atoms: C_24  and  C_25
REMARK                            x       y       z     vdW  Elec       q    Type
REMARK                         _______ _______ _______ _____ _____    ______ ____
ROOT
ATOM      1  C   UNL     1      -1.142  11.105  18.932  0.00  0.00    +0.000 A 
ATOM      2  C   UNL     1      -0.375   9.966  19.204  0.00  0.00    +0.000 A 
ATOM      3  C   UNL     1       0.016   9.651  20.514  0.00  0.00    +0.000 A 
ATOM      4  C   UNL     1      -0.377  10.506  21.559  0.00  0.00    +0.000 A 
ATOM      5  N   UNL     1      -0.139  10.462  22.909  0.00  0.00    +0.000 NA
ATOM      6  N   UNL     1      -0.721  11.512  23.470  0.00  0.00    +0.000 NA
ATOM      7  N   UNL     1      -1.343  12.204  22.493  0.00  0.00    +0.000 N 
ATOM      8  C   UNL     1      -1.144  11.631  21.264  0.00  0.00    +0.000 A 
ATOM      9  C   UNL     1      -1.547  11.962  19.963  0.00  0.00    +0.000 A 
ENDROOT
BRANCH   1  10
ATOM     10  S   UNL     1      -1.707  11.359  17.265  0.00  0.00    +0.000 S 
BRANCH  10  11
ATOM     11  C   UNL     1      -2.755   9.871  16.977  0.00  0.00    +0.000 C 
BRANCH  11  13
ATOM     12  C   UNL     1      -3.569  10.017  14.276  0.00  0.00    +0.000 C 
ATOM     13  C   UNL     1      -3.193   9.950  15.523  0.00  0.00    +0.000 C 
ENDBRANCH  11  13
ENDBRANCH  10  11
ENDBRANCH   1  10
BRANCH   3  14
ATOM     14  S   UNL     1       1.066   8.277  20.864  0.00  0.00    +0.000 S 
BRANCH  14  15
ATOM     15  C   UNL     1       1.840   8.021  19.328  0.00  0.00    +0.000 A 
ATOM     16  C   UNL     1       2.310   8.901  18.379  0.00  0.00    +0.000 A 
ATOM     17  N   UNL     1       3.080   8.238  17.472  0.00  0.00    +0.000 NA
ATOM     18  N   UNL     1       3.129   6.964  17.834  0.00  0.00    +0.000 NA
ATOM     19  N   UNL     1       2.297   6.781  18.897  0.00  0.00    +0.000 N 
BRANCH  19  20
ATOM     20  C   UNL     1       2.018   5.463  19.352  0.00  0.00    +0.000 A 
ATOM     21  C   UNL     1       2.198   5.158  20.709  0.00  0.00    +0.000 A 
ATOM     22  C   UNL     1       1.951   3.865  21.176  0.00  0.00    +0.000 A 
ATOM     23  C   UNL     1       1.557   2.866  20.287  0.00  0.00    +0.000 A 
ATOM     24  C   UNL     1       1.398   3.159  18.935  0.00  0.00    +0.000 A 
ATOM     25  C   UNL     1       1.624   4.454  18.464  0.00  0.00    +0.000 A 
ENDBRANCH  19  20
ENDBRANCH  14  15
ENDBRANCH   3  14
BRANCH   7  26
ATOM     26  C   UNL     1      -2.061  13.430  22.815  0.00  0.00    +0.000 C 
BRANCH  26  27
ATOM     27  C   UNL     1      -3.513  13.156  23.134  0.00  0.00    +0.000 A 
ATOM     28  C   UNL     1      -3.844  12.654  24.409  0.00  0.00    +0.000 A 
ATOM     29  C   UNL     1      -5.162  12.342  24.743  0.00  0.00    +0.000 A 
ATOM     30  C   UNL     1      -6.180  12.542  23.816  0.00  0.00    +0.000 A 
ATOM     31  C   UNL     1      -5.878  13.069  22.561  0.00  0.00    +0.000 A 
ATOM     32  C   UNL     1      -4.556  13.377  22.222  0.00  0.00    +0.000 A 
ATOM     33 CL   UNL     1      -4.283  14.046  20.652  0.00  0.00    +0.000 Cl
ENDBRANCH  26  27
ENDBRANCH   7  26
TORSDOF 8
ENDMDL
MODEL 6
REMARK VINA RESULT:      -7.8      3.550      6.006
REMARK  Name = 
REMARK  8 active torsions:
REMARK  status: ('A' for Active; 'I' for Inactive)
REMARK    1  A    between atoms: C_2  and  C_3
REMARK    2  A    between atoms: C_3  and  S_4
REMARK    3  A    between atoms: S_4  and  C_5
REMARK    4  A    between atoms: C_7  and  S_8
REMARK    5  A    between atoms: S_8  and  C_9
REMARK    6  A    between atoms: N_13  and  C_14
REMARK    7  A    between atoms: N_23  and  C_24
REMARK    8  A    between atoms: C_24  and  C_25
REMARK                            x       y       z     vdW  Elec       q    Type
REMARK                         _______ _______ _______ _____ _____    ______ ____
ROOT
ATOM      1  C   UNL     1      -1.861  10.458  18.081  0.00  0.00    +0.000 A 
ATOM      2  C   UNL     1      -0.723   9.694  17.798  0.00  0.00    +0.000 A 
ATOM      3  C   UNL     1       0.536  10.052  18.303  0.00  0.00    +0.000 A 
ATOM      4  C   UNL     1       0.638  11.203  19.105  0.00  0.00    +0.000 A 
ATOM      5  N   UNL     1       1.715  11.794  19.716  0.00  0.00    +0.000 NA
ATOM      6  N   UNL     1       1.291  12.874  20.355  0.00  0.00    +0.000 NA
ATOM      7  N   UNL     1      -0.044  12.958  20.176  0.00  0.00    +0.000 N 
ATOM      8  C   UNL     1      -0.509  11.944  19.378  0.00  0.00    +0.000 A 
ATOM      9  C   UNL     1      -1.775  11.602  18.886  0.00  0.00    +0.000 A 
ENDROOT
BRANCH   1  10
ATOM     10  S   UNL     1      -3.437   9.861  17.515  0.00  0.00    +0.000 S 
BRANCH  10  11
ATOM     11  C   UNL     1      -3.852  11.061  16.179  0.00  0.00    +0.000 C 
BRANCH  11  13
ATOM     12  C   UNL     1      -2.991   9.857  13.774  0.00  0.00    +0.000 C 
ATOM     13  C   UNL     1      -3.389  10.413  14.884  0.00  0.00    +0.000 C 
ENDBRANCH  11  13
ENDBRANCH  10  11
ENDBRANCH   1  10
BRANCH   3  14
ATOM     14  S   UNL     1       1.997   9.160  17.874  0.00  0.00    +0.000 S 
BRANCH  14  15
ATOM     15  C   UNL     1       2.082   7.984  19.152  0.00  0.00    +0.000 A 
ATOM     16  C   UNL     1       1.525   7.954  20.412  0.00  0.00    +0.000 A 
ATOM     17  N   UNL     1       1.648   6.707  20.945  0.00  0.00    +0.000 NA
ATOM     18  N   UNL     1       2.248   5.938  20.047  0.00  0.00    +0.000 NA
ATOM     19  N   UNL     1       2.621   6.712  18.990  0.00  0.00    +0.000 N 
BRANCH  19  20
ATOM     20  C   UNL     1       3.456   6.165  17.978  0.00  0.00    +0.000 A 
ATOM     21  C   UNL     1       3.344   4.804  17.662  0.00  0.00    +0.000 A 
ATOM     22  C   UNL     1       4.169   4.239  16.686  0.00  0.00    +0.000 A 
ATOM     23  C   UNL     1       5.130   5.022  16.047  0.00  0.00    +0.000 A 
ATOM     24  C   UNL     1       5.260   6.370  16.374  0.00  0.00    +0.000 A 
ATOM     25  C   UNL     1       4.425   6.946  17.334  0.00  0.00    +0.000 A 
ENDBRANCH  19  20
ENDBRANCH  14  15
ENDBRANCH   3  14
BRANCH   7  26
ATOM     26  C   UNL     1      -0.787  14.067  20.757  0.00  0.00    +0.000 C 
BRANCH  26  27
ATOM     27  C   UNL     1      -1.835  13.582  21.733  0.00  0.00    +0.000 A 
ATOM     28  C   UNL     1      -1.516  12.511  22.593  0.00  0.00    +0.000 A 
ATOM     29  C   UNL     1      -2.459  11.995  23.483  0.00  0.00    +0.000 A 
ATOM     30  C   UNL     1      -3.732  12.549  23.545  0.00  0.00    +0.000 A 
ATOM     31  C   UNL     1      -4.057  13.630  22.727  0.00  0.00    +0.000 A 
ATOM     32  C   UNL     1      -3.116  14.147  21.830  0.00  0.00    +0.000 A 
ATOM     33 CL   UNL     1      -3.602  15.501  20.873  0.00  0.00    +0.000 Cl
ENDBRANCH  26  27
ENDBRANCH   7  26
TORSDOF 8
ENDMDL
MODEL 7
REMARK VINA RESULT:      -7.7      1.230      1.423
REMARK  Name = 
REMARK  8 active torsions:
REMARK  status: ('A' for Active; 'I' for Inactive)
REMARK    1  A    between atoms: C_2  and  C_3
REMARK    2  A    between atoms: C_3  and  S_4
REMARK    3  A    between atoms: S_4  and  C_5
REMARK    4  A    between atoms: C_7  and  S_8
REMARK    5  A    between atoms: S_8  and  C_9
REMARK    6  A    between atoms: N_13  and  C_14
REMARK    7  A    between atoms: N_23  and  C_24
REMARK    8  A    between atoms: C_24  and  C_25
REMARK                            x       y       z     vdW  Elec       q    Type
REMARK                         _______ _______ _______ _____ _____    ______ ____
ROOT
ATOM      1  C   UNL     1       2.672   5.638  19.756  0.00  0.00    +0.000 A 
ATOM      2  C   UNL     1       3.538   5.609  18.657  0.00  0.00    +0.000 A 
ATOM      3  C   UNL     1       3.649   6.709  17.792  0.00  0.00    +0.000 A 
ATOM      4  C   UNL     1       2.868   7.850  18.049  0.00  0.00    +0.000 A 
ATOM      5  N   UNL     1       2.758   9.045  17.385  0.00  0.00    +0.000 NA
ATOM      6  N   UNL     1       1.873   9.797  18.024  0.00  0.00    +0.000 NA
ATOM      7  N   UNL     1       1.442   9.100  19.095  0.00  0.00    +0.000 N 
ATOM      8  C   UNL     1       2.017   7.857  19.152  0.00  0.00    +0.000 A 
ATOM      9  C   UNL     1       1.894   6.771  20.029  0.00  0.00    +0.000 A 
ENDROOT
BRANCH   1  10
ATOM     10  S   UNL     1       2.691   4.257  20.877  0.00  0.00    +0.000 S 
BRANCH  10  11
ATOM     11  C   UNL     1       1.651   3.020  19.990  0.00  0.00    +0.000 C 
BRANCH  11  13
ATOM     12  C   UNL     1       3.434   1.532  18.384  0.00  0.00    +0.000 C 
ATOM     13  C   UNL     1       2.611   2.219  19.126  0.00  0.00    +0.000 C 
ENDBRANCH  11  13
ENDBRANCH  10  11
ENDBRANCH   1  10
BRANCH   3  14
ATOM     14  S   UNL     1       4.659   6.655  16.346  0.00  0.00    +0.000 S 
BRANCH  14  15
ATOM     15  C   UNL     1       6.110   5.915  16.954  0.00  0.00    +0.000 A 
ATOM     16  C   UNL     1       6.670   5.888  18.213  0.00  0.00    +0.000 A 
ATOM     17  N   UNL     1       7.662   4.957  18.259  0.00  0.00    +0.000 NA
ATOM     18  N   UNL     1       7.733   4.376  17.070  0.00  0.00    +0.000 NA
ATOM     19  N   UNL     1       6.875   5.012  16.223  0.00  0.00    +0.000 N 
BRANCH  19  20
ATOM     20  C   UNL     1       6.903   4.709  14.835  0.00  0.00    +0.000 A 
ATOM     21  C   UNL     1       7.793   5.402  14.003  0.00  0.00    +0.000 A 
ATOM     22  C   UNL     1       7.825   5.135  12.632  0.00  0.00    +0.000 A 
ATOM     23  C   UNL     1       6.946   4.202  12.083  0.00  0.00    +0.000 A 
ATOM     24  C   UNL     1       6.045   3.527  12.902  0.00  0.00    +0.000 A 
ATOM     25  C   UNL     1       6.022   3.774  14.277  0.00  0.00    +0.000 A 
ENDBRANCH  19  20
ENDBRANCH  14  15
ENDBRANCH   3  14
BRANCH   7  26
ATOM     26  C   UNL     1       0.441   9.676  19.983  0.00  0.00    +0.000 C 
BRANCH  26  27
ATOM     27  C   UNL     1       0.680  11.152  20.206  0.00  0.00    +0.000 A 
ATOM     28  C   UNL     1       1.428  11.870  19.250  0.00  0.00    +0.000 A 
ATOM     29  C   UNL     1       1.715  13.224  19.427  0.00  0.00    +0.000 A 
ATOM     30  C   UNL     1       1.248  13.892  20.554  0.00  0.00    +0.000 A 
ATOM     31  C   UNL     1       0.479  13.208  21.494  0.00  0.00    +0.000 A 
ATOM     32  C   UNL     1       0.193  11.850  21.322  0.00  0.00    +0.000 A 
ATOM     33 CL   UNL     1      -0.785  11.093  22.529  0.00  0.00    +0.000 Cl
ENDBRANCH  26  27
ENDBRANCH   7  26
TORSDOF 8
ENDMDL
MODEL 8
REMARK VINA RESULT:      -7.6      4.343      7.213
REMARK  Name = 
REMARK  8 active torsions:
REMARK  status: ('A' for Active; 'I' for Inactive)
REMARK    1  A    between atoms: C_2  and  C_3
REMARK    2  A    between atoms: C_3  and  S_4
REMARK    3  A    between atoms: S_4  and  C_5
REMARK    4  A    between atoms: C_7  and  S_8
REMARK    5  A    between atoms: S_8  and  C_9
REMARK    6  A    between atoms: N_13  and  C_14
REMARK    7  A    between atoms: N_23  and  C_24
REMARK    8  A    between atoms: C_24  and  C_25
REMARK                            x       y       z     vdW  Elec       q    Type
REMARK                         _______ _______ _______ _____ _____    ______ ____
ROOT
ATOM      1  C   UNL     1      -1.529  11.030  18.683  0.00  0.00    +0.000 A 
ATOM      2  C   UNL     1      -0.679   9.972  19.022  0.00  0.00    +0.000 A 
ATOM      3  C   UNL     1      -0.153   9.850  20.317  0.00  0.00    +0.000 A 
ATOM      4  C   UNL     1      -0.495  10.818  21.278  0.00  0.00    +0.000 A 
ATOM      5  N   UNL     1      -0.133  10.963  22.593  0.00  0.00    +0.000 NA
ATOM      6  N   UNL     1      -0.719  12.052  23.069  0.00  0.00    +0.000 NA
ATOM      7  N   UNL     1      -1.465  12.581  22.078  0.00  0.00    +0.000 N 
ATOM      8  C   UNL     1      -1.347  11.860  20.918  0.00  0.00    +0.000 A 
ATOM      9  C   UNL     1      -1.885  11.997  19.632  0.00  0.00    +0.000 A 
ENDROOT
BRANCH   1  10
ATOM     10  S   UNL     1      -2.257  11.037  17.060  0.00  0.00    +0.000 S 
BRANCH  10  11
ATOM     11  C   UNL     1      -3.910  10.284  17.371  0.00  0.00    +0.000 C 
BRANCH  11  13
ATOM     12  C   UNL     1      -5.763  12.409  17.205  0.00  0.00    +0.000 C 
ATOM     13  C   UNL     1      -4.908  11.427  17.282  0.00  0.00    +0.000 C 
ENDBRANCH  11  13
ENDBRANCH  10  11
ENDBRANCH   1  10
BRANCH   3  14
ATOM     14  S   UNL     1       0.999   8.581  20.736  0.00  0.00    +0.000 S 
BRANCH  14  15
ATOM     15  C   UNL     1       1.804   8.317  19.217  0.00  0.00    +0.000 A 
ATOM     16  C   UNL     1       2.259   9.191  18.254  0.00  0.00    +0.000 A 
ATOM     17  N   UNL     1       3.064   8.535  17.374  0.00  0.00    +0.000 NA
ATOM     18  N   UNL     1       3.150   7.271  17.765  0.00  0.00    +0.000 NA
ATOM     19  N   UNL     1       2.309   7.083  18.820  0.00  0.00    +0.000 N 
BRANCH  19  20
ATOM     20  C   UNL     1       2.068   5.768  19.302  0.00  0.00    +0.000 A 
ATOM     21  C   UNL     1       1.699   4.765  18.394  0.00  0.00    +0.000 A 
ATOM     22  C   UNL     1       1.438   3.470  18.846  0.00  0.00    +0.000 A 
ATOM     23  C   UNL     1       1.509   3.179  20.208  0.00  0.00    +0.000 A 
ATOM     24  C   UNL     1       1.853   4.177  21.116  0.00  0.00    +0.000 A 
ATOM     25  C   UNL     1       2.136   5.470  20.669  0.00  0.00    +0.000 A 
ENDBRANCH  19  20
ENDBRANCH  14  15
ENDBRANCH   3  14
BRANCH   7  26
ATOM     26  C   UNL     1      -2.217  13.807  22.309  0.00  0.00    +0.000 C 
BRANCH  26  27
ATOM     27  C   UNL     1      -3.695  13.606  22.063  0.00  0.00    +0.000 A 
ATOM     28  C   UNL     1      -4.246  14.052  20.845  0.00  0.00    +0.000 A 
ATOM     29  C   UNL     1      -5.611  13.931  20.582  0.00  0.00    +0.000 A 
ATOM     30  C   UNL     1      -6.451  13.347  21.524  0.00  0.00    +0.000 A 
ATOM     31  C   UNL     1      -5.921  12.869  22.721  0.00  0.00    +0.000 A 
ATOM     32  C   UNL     1      -4.553  12.992  22.989  0.00  0.00    +0.000 A 
ATOM     33 CL   UNL     1      -3.985  12.351  24.490  0.00  0.00    +0.000 Cl
ENDBRANCH  26  27
ENDBRANCH   7  26
TORSDOF 8
ENDMDL
MODEL 9
REMARK VINA RESULT:      -7.6      3.582      6.248
REMARK  Name = 
REMARK  8 active torsions:
REMARK  status: ('A' for Active; 'I' for Inactive)
REMARK    1  A    between atoms: C_2  and  C_3
REMARK    2  A    between atoms: C_3  and  S_4
REMARK    3  A    between atoms: S_4  and  C_5
REMARK    4  A    between atoms: C_7  and  S_8
REMARK    5  A    between atoms: S_8  and  C_9
REMARK    6  A    between atoms: N_13  and  C_14
REMARK    7  A    between atoms: N_23  and  C_24
REMARK    8  A    between atoms: C_24  and  C_25
REMARK                            x       y       z     vdW  Elec       q    Type
REMARK                         _______ _______ _______ _____ _____    ______ ____
ROOT
ATOM      1  C   UNL     1      -1.878  10.479  17.965  0.00  0.00    +0.000 A 
ATOM      2  C   UNL     1      -0.710   9.743  17.737  0.00  0.00    +0.000 A 
ATOM      3  C   UNL     1       0.517  10.138  18.292  0.00  0.00    +0.000 A 
ATOM      4  C   UNL     1       0.554  11.298  19.086  0.00  0.00    +0.000 A 
ATOM      5  N   UNL     1       1.588  11.922  19.737  0.00  0.00    +0.000 NA
ATOM      6  N   UNL     1       1.109  12.996  20.348  0.00  0.00    +0.000 NA
ATOM      7  N   UNL     1      -0.218  13.043  20.110  0.00  0.00    +0.000 N 
ATOM      8  C   UNL     1      -0.622  12.011  19.303  0.00  0.00    +0.000 A 
ATOM      9  C   UNL     1      -1.857  11.631  18.761  0.00  0.00    +0.000 A 
ENDROOT
BRANCH   1  10
ATOM     10  S   UNL     1      -3.413   9.836  17.337  0.00  0.00    +0.000 S 
BRANCH  10  11
ATOM     11  C   UNL     1      -4.283  11.366  16.790  0.00  0.00    +0.000 C 
BRANCH  11  13
ATOM     12  C   UNL     1      -6.722  11.410  18.214  0.00  0.00    +0.000 C 
ATOM     13  C   UNL     1      -5.596  11.389  17.556  0.00  0.00    +0.000 C 
ENDBRANCH  11  13
ENDBRANCH  10  11
ENDBRANCH   1  10
BRANCH   3  14
ATOM     14  S   UNL     1       2.017   9.281  17.934  0.00  0.00    +0.000 S 
BRANCH  14  15
ATOM     15  C   UNL     1       2.052   8.085  19.196  0.00  0.00    +0.000 A 
ATOM     16  C   UNL     1       1.476   8.053  20.446  0.00  0.00    +0.000 A 
ATOM     17  N   UNL     1       1.558   6.795  20.962  0.00  0.00    +0.000 NA
ATOM     18  N   UNL     1       2.151   6.023  20.063  0.00  0.00    +0.000 NA
ATOM     19  N   UNL     1       2.561   6.803  19.023  0.00  0.00    +0.000 N 
BRANCH  19  20
ATOM     20  C   UNL     1       3.397   6.249  18.016  0.00  0.00    +0.000 A 
ATOM     21  C   UNL     1       3.312   4.878  17.736  0.00  0.00    +0.000 A 
ATOM     22  C   UNL     1       4.139   4.307  16.765  0.00  0.00    +0.000 A 
ATOM     23  C   UNL     1       5.075   5.094  16.096  0.00  0.00    +0.000 A 
ATOM     24  C   UNL     1       5.179   6.452  16.387  0.00  0.00    +0.000 A 
ATOM     25  C   UNL     1       4.342   7.034  17.342  0.00  0.00    +0.000 A 
ENDBRANCH  19  20
ENDBRANCH  14  15
ENDBRANCH   3  14
BRANCH   7  26
ATOM     26  C   UNL     1      -1.014  14.137  20.649  0.00  0.00    +0.000 C 
BRANCH  26  27
ATOM     27  C   UNL     1      -1.998  13.648  21.687  0.00  0.00    +0.000 A 
ATOM     28  C   UNL     1      -1.610  12.605  22.552  0.00  0.00    +0.000 A 
ATOM     29  C   UNL     1      -2.493  12.086  23.499  0.00  0.00    +0.000 A 
ATOM     30  C   UNL     1      -3.776  12.610  23.614  0.00  0.00    +0.000 A 
ATOM     31  C   UNL     1      -4.169  13.664  22.791  0.00  0.00    +0.000 A 
ATOM     32  C   UNL     1      -3.288  14.184  21.837  0.00  0.00    +0.000 A 
ATOM     33 CL   UNL     1      -3.856  15.504  20.878  0.00  0.00    +0.000 Cl
ENDBRANCH  26  27
ENDBRANCH   7  26
TORSDOF 8
ENDMDL
