MODEL 1
REMARK VINA RESULT:      -8.1      0.000      0.000
REMARK  Name = 
REMARK  2 active torsions:
REMARK  status: ('A' for Active; 'I' for Inactive)
REMARK    1  A    between atoms: C_4  and  N_5
REMARK    2  A    between atoms: N_10  and  C_11
REMARK                            x       y       z     vdW  Elec       q    Type
REMARK                         _______ _______ _______ _____ _____    ______ ____
ROOT
ATOM      1  N   UNL     1       1.180   8.963  19.961  0.00  0.00    +0.000 N 
ATOM      2  N   UNL     1       1.542   9.592  18.800  0.00  0.00    +0.000 NA
ATOM      3  C   UNL     1       2.268   8.684  18.140  0.00  0.00    +0.000 A 
ATOM      4  C   UNL     1       2.368   7.460  18.816  0.00  0.00    +0.000 A 
ATOM      5  C   UNL     1       2.969   6.205  18.604  0.00  0.00    +0.000 A 
ATOM      6  N   UNL     1       3.722   5.900  17.468  0.00  0.00    +0.000 N 
ATOM      7  N   UNL     1       2.769   5.255  19.552  0.00  0.00    +0.000 NA
ATOM      8  C   UNL     1       2.027   5.548  20.633  0.00  0.00    +0.000 A 
ATOM      9  N   UNL     1       1.443   6.712  20.935  0.00  0.00    +0.000 NA
ATOM     10  C   UNL     1       1.649   7.648  19.986  0.00  0.00    +0.000 A 
ATOM     11  H   UNL     1       3.993   6.708  16.923  0.00  0.00    +0.000 HD
ENDROOT
BRANCH   6  12
ATOM     12  C   UNL     1       4.758   4.861  17.600  0.00  0.00    +0.000 C 
ATOM     13  C   UNL     1       4.649   3.874  16.425  0.00  0.00    +0.000 C 
ATOM     14  C   UNL     1       5.147   4.327  15.053  0.00  0.00    +0.000 C 
ATOM     15  C   UNL     1       6.657   4.252  14.841  0.00  0.00    +0.000 C 
ATOM     16  C   UNL     1       7.512   5.108  15.764  0.00  0.00    +0.000 C 
ATOM     17  C   UNL     1       7.337   4.805  17.249  0.00  0.00    +0.000 C 
ATOM     18  C   UNL     1       6.126   5.515  17.845  0.00  0.00    +0.000 C 
ENDBRANCH   6  12
BRANCH   1  22
ATOM     19  C   UNL     1      -1.087  11.088  22.853  0.00  0.00    +0.000 A 
ATOM     20  C   UNL     1      -0.984  11.563  21.548  0.00  0.00    +0.000 A 
ATOM     21  C   UNL     1      -0.234  10.860  20.599  0.00  0.00    +0.000 A 
ATOM     22  C   UNL     1       0.415   9.662  20.947  0.00  0.00    +0.000 A 
ATOM     23  C   UNL     1       0.304   9.196  22.265  0.00  0.00    +0.000 A 
ATOM     24  C   UNL     1      -0.442   9.908  23.211  0.00  0.00    +0.000 A 
ENDBRANCH   1  22
TORSDOF 2
ENDMDL
MODEL 2
REMARK VINA RESULT:      -8.1      0.054      1.007
REMARK  Name = 
REMARK  2 active torsions:
REMARK  status: ('A' for Active; 'I' for Inactive)
REMARK    1  A    between atoms: C_4  and  N_5
REMARK    2  A    between atoms: N_10  and  C_11
REMARK                            x       y       z     vdW  Elec       q    Type
REMARK                         _______ _______ _______ _____ _____    ______ ____
ROOT
ATOM      1  N   UNL     1       1.168   9.022  19.940  0.00  0.00    +0.000 N 
ATOM      2  N   UNL     1       1.530   9.640  18.772  0.00  0.00    +0.000 NA
ATOM      3  C   UNL     1       2.258   8.726  18.122  0.00  0.00    +0.000 A 
ATOM      4  C   UNL     1       2.359   7.510  18.811  0.00  0.00    +0.000 A 
ATOM      5  C   UNL     1       2.962   6.253  18.611  0.00  0.00    +0.000 A 
ATOM      6  N   UNL     1       3.716   5.939  17.478  0.00  0.00    +0.000 N 
ATOM      7  N   UNL     1       2.763   5.313  19.569  0.00  0.00    +0.000 NA
ATOM      8  C   UNL     1       2.021   5.616  20.646  0.00  0.00    +0.000 A 
ATOM      9  N   UNL     1       1.435   6.781  20.936  0.00  0.00    +0.000 NA
ATOM     10  C   UNL     1       1.640   7.708  19.978  0.00  0.00    +0.000 A 
ATOM     11  H   UNL     1       3.986   6.742  16.925  0.00  0.00    +0.000 HD
ENDROOT
BRANCH   6  12
ATOM     12  C   UNL     1       4.753   4.902  17.622  0.00  0.00    +0.000 C 
ATOM     13  C   UNL     1       4.635   3.892  16.466  0.00  0.00    +0.000 C 
ATOM     14  C   UNL     1       5.120   4.320  15.082  0.00  0.00    +0.000 C 
ATOM     15  C   UNL     1       6.628   4.240  14.858  0.00  0.00    +0.000 C 
ATOM     16  C   UNL     1       7.491   5.115  15.756  0.00  0.00    +0.000 C 
ATOM     17  C   UNL     1       7.329   4.841  17.248  0.00  0.00    +0.000 C 
ATOM     18  C   UNL     1       6.124   5.561  17.842  0.00  0.00    +0.000 C 
ENDBRANCH   6  12
BRANCH   1  22
ATOM     19  C   UNL     1      -1.104  11.077  22.879  0.00  0.00    +0.000 A 
ATOM     20  C   UNL     1      -0.415   9.911  23.206  0.00  0.00    +0.000 A 
ATOM     21  C   UNL     1       0.330   9.236  22.233  0.00  0.00    +0.000 A 
ATOM     22  C   UNL     1       0.403   9.730  20.918  0.00  0.00    +0.000 A 
ATOM     23  C   UNL     1      -0.296  10.905  20.603  0.00  0.00    +0.000 A 
ATOM     24  C   UNL     1      -1.046  11.571  21.579  0.00  0.00    +0.000 A 
ENDBRANCH   1  22
TORSDOF 2
ENDMDL
MODEL 3
REMARK VINA RESULT:      -7.7      2.075      3.562
REMARK  Name = 
REMARK  2 active torsions:
REMARK  status: ('A' for Active; 'I' for Inactive)
REMARK    1  A    between atoms: C_4  and  N_5
REMARK    2  A    between atoms: N_10  and  C_11
REMARK                            x       y       z     vdW  Elec       q    Type
REMARK                         _______ _______ _______ _____ _____    ______ ____
ROOT
ATOM      1  N   UNL     1       0.159   9.939  20.953  0.00  0.00    +0.000 N 
ATOM      2  N   UNL     1       0.257   9.035  21.978  0.00  0.00    +0.000 NA
ATOM      3  C   UNL     1       1.021   8.054  21.486  0.00  0.00    +0.000 A 
ATOM      4  C   UNL     1       1.459   8.299  20.178  0.00  0.00    +0.000 A 
ATOM      5  C   UNL     1       2.254   7.652  19.213  0.00  0.00    +0.000 A 
ATOM      6  N   UNL     1       2.857   6.410  19.427  0.00  0.00    +0.000 N 
ATOM      7  N   UNL     1       2.449   8.300  18.037  0.00  0.00    +0.000 NA
ATOM      8  C   UNL     1       1.883   9.502  17.844  0.00  0.00    +0.000 A 
ATOM      9  N   UNL     1       1.094  10.180  18.683  0.00  0.00    +0.000 NA
ATOM     10  C   UNL     1       0.907   9.526  19.848  0.00  0.00    +0.000 A 
ATOM     11  H   UNL     1       2.499   5.910  20.231  0.00  0.00    +0.000 HD
ENDROOT
BRANCH   6  12
ATOM     12  C   UNL     1       3.131   5.577  18.244  0.00  0.00    +0.000 C 
ATOM     13  C   UNL     1       4.455   4.819  18.444  0.00  0.00    +0.000 C 
ATOM     14  C   UNL     1       4.468   3.629  19.401  0.00  0.00    +0.000 C 
ATOM     15  C   UNL     1       3.925   2.320  18.834  0.00  0.00    +0.000 C 
ATOM     16  C   UNL     1       2.469   2.327  18.392  0.00  0.00    +0.000 C 
ATOM     17  C   UNL     1       2.142   3.355  17.313  0.00  0.00    +0.000 C 
ATOM     18  C   UNL     1       1.889   4.743  17.894  0.00  0.00    +0.000 C 
ENDBRANCH   6  12
BRANCH   1  22
ATOM     19  C   UNL     1      -2.190  13.435  21.482  0.00  0.00    +0.000 A 
ATOM     20  C   UNL     1      -1.413  12.941  22.528  0.00  0.00    +0.000 A 
ATOM     21  C   UNL     1      -0.643  11.787  22.349  0.00  0.00    +0.000 A 
ATOM     22  C   UNL     1      -0.634  11.119  21.112  0.00  0.00    +0.000 A 
ATOM     23  C   UNL     1      -1.421  11.627  20.068  0.00  0.00    +0.000 A 
ATOM     24  C   UNL     1      -2.195  12.778  20.256  0.00  0.00    +0.000 A 
ENDBRANCH   1  22
TORSDOF 2
ENDMDL
MODEL 4
REMARK VINA RESULT:      -7.7      2.210      3.937
REMARK  Name = 
REMARK  2 active torsions:
REMARK  status: ('A' for Active; 'I' for Inactive)
REMARK    1  A    between atoms: C_4  and  N_5
REMARK    2  A    between atoms: N_10  and  C_11
REMARK                            x       y       z     vdW  Elec       q    Type
REMARK                         _______ _______ _______ _____ _____    ______ ____
ROOT
ATOM      1  N   UNL     1       0.058  10.665  22.098  0.00  0.00    +0.000 N 
ATOM      2  N   UNL     1       0.541   9.912  23.135  0.00  0.00    +0.000 NA
ATOM      3  C   UNL     1       1.190   8.904  22.543  0.00  0.00    +0.000 A 
ATOM      4  C   UNL     1       1.179   8.988  21.144  0.00  0.00    +0.000 A 
ATOM      5  C   UNL     1       1.684   8.248  20.057  0.00  0.00    +0.000 A 
ATOM      6  N   UNL     1       2.421   7.071  20.211  0.00  0.00    +0.000 N 
ATOM      7  N   UNL     1       1.452   8.739  18.814  0.00  0.00    +0.000 NA
ATOM      8  C   UNL     1       0.760   9.881  18.674  0.00  0.00    +0.000 A 
ATOM      9  N   UNL     1       0.220  10.634  19.637  0.00  0.00    +0.000 NA
ATOM     10  C   UNL     1       0.456  10.137  20.868  0.00  0.00    +0.000 A 
ATOM     11  H   UNL     1       2.371   6.670  21.139  0.00  0.00    +0.000 HD
ENDROOT
BRANCH   6  12
ATOM     12  C   UNL     1       2.380   6.098  19.106  0.00  0.00    +0.000 C 
ATOM     13  C   UNL     1       3.754   6.044  18.416  0.00  0.00    +0.000 C 
ATOM     14  C   UNL     1       4.894   5.323  19.133  0.00  0.00    +0.000 C 
ATOM     15  C   UNL     1       4.891   3.801  19.014  0.00  0.00    +0.000 C 
ATOM     16  C   UNL     1       3.680   3.081  19.588  0.00  0.00    +0.000 C 
ATOM     17  C   UNL     1       2.348   3.497  18.972  0.00  0.00    +0.000 C 
ATOM     18  C   UNL     1       1.790   4.769  19.603  0.00  0.00    +0.000 C 
ENDBRANCH   6  12
BRANCH   1  22
ATOM     19  C   UNL     1      -2.352  14.069  22.891  0.00  0.00    +0.000 A 
ATOM     20  C   UNL     1      -2.799  12.793  23.226  0.00  0.00    +0.000 A 
ATOM     21  C   UNL     1      -2.002  11.674  22.960  0.00  0.00    +0.000 A 
ATOM     22  C   UNL     1      -0.738  11.824  22.363  0.00  0.00    +0.000 A 
ATOM     23  C   UNL     1      -0.300  13.114  22.030  0.00  0.00    +0.000 A 
ATOM     24  C   UNL     1      -1.105  14.228  22.292  0.00  0.00    +0.000 A 
ENDBRANCH   1  22
TORSDOF 2
ENDMDL
MODEL 5
REMARK VINA RESULT:      -7.7      2.119      3.509
REMARK  Name = 
REMARK  2 active torsions:
REMARK  status: ('A' for Active; 'I' for Inactive)
REMARK    1  A    between atoms: C_4  and  N_5
REMARK    2  A    between atoms: N_10  and  C_11
REMARK                            x       y       z     vdW  Elec       q    Type
REMARK                         _______ _______ _______ _____ _____    ______ ____
ROOT
ATOM      1  N   UNL     1       0.166   9.997  20.809  0.00  0.00    +0.000 N 
ATOM      2  N   UNL     1       0.196   9.096  21.841  0.00  0.00    +0.000 NA
ATOM      3  C   UNL     1       0.953   8.092  21.387  0.00  0.00    +0.000 A 
ATOM      4  C   UNL     1       1.453   8.318  20.097  0.00  0.00    +0.000 A 
ATOM      5  C   UNL     1       2.271   7.645  19.170  0.00  0.00    +0.000 A 
ATOM      6  N   UNL     1       2.831   6.388  19.416  0.00  0.00    +0.000 N 
ATOM      7  N   UNL     1       2.533   8.280  18.000  0.00  0.00    +0.000 NA
ATOM      8  C   UNL     1       2.008   9.496  17.778  0.00  0.00    +0.000 A 
ATOM      9  N   UNL     1       1.203  10.199  18.580  0.00  0.00    +0.000 NA
ATOM     10  C   UNL     1       0.949   9.558  19.739  0.00  0.00    +0.000 A 
ATOM     11  H   UNL     1       2.425   5.903  20.206  0.00  0.00    +0.000 HD
ENDROOT
BRANCH   6  12
ATOM     12  C   UNL     1       3.132   5.541  18.249  0.00  0.00    +0.000 C 
ATOM     13  C   UNL     1       4.451   4.785  18.489  0.00  0.00    +0.000 C 
ATOM     14  C   UNL     1       4.440   3.606  19.461  0.00  0.00    +0.000 C 
ATOM     15  C   UNL     1       3.910   2.291  18.896  0.00  0.00    +0.000 C 
ATOM     16  C   UNL     1       2.464   2.294  18.419  0.00  0.00    +0.000 C 
ATOM     17  C   UNL     1       2.164   3.310  17.321  0.00  0.00    +0.000 C 
ATOM     18  C   UNL     1       1.899   4.704  17.879  0.00  0.00    +0.000 C 
ENDBRANCH   6  12
BRANCH   1  22
ATOM     19  C   UNL     1      -2.122  13.560  21.104  0.00  0.00    +0.000 A 
ATOM     20  C   UNL     1      -2.268  12.716  20.006  0.00  0.00    +0.000 A 
ATOM     21  C   UNL     1      -1.510  11.544  19.912  0.00  0.00    +0.000 A 
ATOM     22  C   UNL     1      -0.601  11.198  20.928  0.00  0.00    +0.000 A 
ATOM     23  C   UNL     1      -0.464  12.057  22.028  0.00  0.00    +0.000 A 
ATOM     24  C   UNL     1      -1.220  13.232  22.112  0.00  0.00    +0.000 A 
ENDBRANCH   1  22
TORSDOF 2
ENDMDL
MODEL 6
REMARK VINA RESULT:      -7.6      0.885      1.299
REMARK  Name = 
REMARK  2 active torsions:
REMARK  status: ('A' for Active; 'I' for Inactive)
REMARK    1  A    between atoms: C_4  and  N_5
REMARK    2  A    between atoms: N_10  and  C_11
REMARK                            x       y       z     vdW  Elec       q    Type
REMARK                         _______ _______ _______ _____ _____    ______ ____
ROOT
ATOM      1  N   UNL     1       1.271   9.715  19.596  0.00  0.00    +0.000 N 
ATOM      2  N   UNL     1       1.620  10.077  18.322  0.00  0.00    +0.000 NA
ATOM      3  C   UNL     1       2.214   8.991  17.817  0.00  0.00    +0.000 A 
ATOM      4  C   UNL     1       2.238   7.911  18.709  0.00  0.00    +0.000 A 
ATOM      5  C   UNL     1       2.703   6.582  18.714  0.00  0.00    +0.000 A 
ATOM      6  N   UNL     1       3.352   5.995  17.625  0.00  0.00    +0.000 N 
ATOM      7  N   UNL     1       2.473   5.851  19.834  0.00  0.00    +0.000 NA
ATOM      8  C   UNL     1       1.830   6.414  20.869  0.00  0.00    +0.000 A 
ATOM      9  N   UNL     1       1.380   7.669  20.969  0.00  0.00    +0.000 NA
ATOM     10  C   UNL     1       1.614   8.386  19.851  0.00  0.00    +0.000 A 
ATOM     11  H   UNL     1       3.664   6.655  16.925  0.00  0.00    +0.000 HD
ENDROOT
BRANCH   6  12
ATOM     12  C   UNL     1       4.290   4.895  17.909  0.00  0.00    +0.000 C 
ATOM     13  C   UNL     1       4.360   3.952  16.695  0.00  0.00    +0.000 C 
ATOM     14  C   UNL     1       5.132   4.418  15.462  0.00  0.00    +0.000 C 
ATOM     15  C   UNL     1       6.649   4.264  15.536  0.00  0.00    +0.000 C 
ATOM     16  C   UNL     1       7.354   5.043  16.638  0.00  0.00    +0.000 C 
ATOM     17  C   UNL     1       6.884   4.705  18.049  0.00  0.00    +0.000 C 
ATOM     18  C   UNL     1       5.618   5.463  18.435  0.00  0.00    +0.000 C 
ENDBRANCH   6  12
BRANCH   1  22
ATOM     19  C   UNL     1      -0.648  12.486  22.177  0.00  0.00    +0.000 A 
ATOM     20  C   UNL     1      -0.999  11.138  22.201  0.00  0.00    +0.000 A 
ATOM     21  C   UNL     1      -0.365  10.230  21.346  0.00  0.00    +0.000 A 
ATOM     22  C   UNL     1       0.639  10.662  20.463  0.00  0.00    +0.000 A 
ATOM     23  C   UNL     1       0.983  12.021  20.449  0.00  0.00    +0.000 A 
ATOM     24  C   UNL     1       0.340  12.926  21.301  0.00  0.00    +0.000 A 
ENDBRANCH   1  22
TORSDOF 2
ENDMDL
MODEL 7
REMARK VINA RESULT:      -7.4      2.248      3.891
REMARK  Name = 
REMARK  2 active torsions:
REMARK  status: ('A' for Active; 'I' for Inactive)
REMARK    1  A    between atoms: C_4  and  N_5
REMARK    2  A    between atoms: N_10  and  C_11
REMARK                            x       y       z     vdW  Elec       q    Type
REMARK                         _______ _______ _______ _____ _____    ______ ____
ROOT
ATOM      1  N   UNL     1      -0.054  10.741  21.908  0.00  0.00    +0.000 N 
ATOM      2  N   UNL     1       0.463  10.033  22.960  0.00  0.00    +0.000 NA
ATOM      3  C   UNL     1       1.158   9.044  22.389  0.00  0.00    +0.000 A 
ATOM      4  C   UNL     1       1.144   9.098  20.989  0.00  0.00    +0.000 A 
ATOM      5  C   UNL     1       1.684   8.360  19.918  0.00  0.00    +0.000 A 
ATOM      6  N   UNL     1       2.475   7.221  20.096  0.00  0.00    +0.000 N 
ATOM      7  N   UNL     1       1.430   8.813  18.665  0.00  0.00    +0.000 NA
ATOM      8  C   UNL     1       0.686   9.919  18.501  0.00  0.00    +0.000 A 
ATOM      9  N   UNL     1       0.111  10.666  19.448  0.00  0.00    +0.000 NA
ATOM     10  C   UNL     1       0.369  10.206  20.689  0.00  0.00    +0.000 A 
ATOM     11  H   UNL     1       2.443   6.838  21.031  0.00  0.00    +0.000 HD
ENDROOT
BRANCH   6  12
ATOM     12  C   UNL     1       2.479   6.224  19.012  0.00  0.00    +0.000 C 
ATOM     13  C   UNL     1       3.904   6.080  18.450  0.00  0.00    +0.000 C 
ATOM     14  C   UNL     1       4.934   5.318  19.283  0.00  0.00    +0.000 C 
ATOM     15  C   UNL     1       4.858   3.796  19.195  0.00  0.00    +0.000 C 
ATOM     16  C   UNL     1       3.562   3.156  19.670  0.00  0.00    +0.000 C 
ATOM     17  C   UNL     1       2.315   3.627  18.927  0.00  0.00    +0.000 C 
ATOM     18  C   UNL     1       1.774   4.941  19.479  0.00  0.00    +0.000 C 
ENDBRANCH   6  12
BRANCH   1  22
ATOM     19  C   UNL     1      -2.531  14.117  22.601  0.00  0.00    +0.000 A 
ATOM     20  C   UNL     1      -1.456  14.199  21.719  0.00  0.00    +0.000 A 
ATOM     21  C   UNL     1      -0.641  13.084  21.496  0.00  0.00    +0.000 A 
ATOM     22  C   UNL     1      -0.902  11.867  22.149  0.00  0.00    +0.000 A 
ATOM     23  C   UNL     1      -1.987  11.799  23.035  0.00  0.00    +0.000 A 
ATOM     24  C   UNL     1      -2.794  12.920  23.259  0.00  0.00    +0.000 A 
ENDBRANCH   1  22
TORSDOF 2
ENDMDL
MODEL 8
REMARK VINA RESULT:      -7.3      1.907      3.561
REMARK  Name = 
REMARK  2 active torsions:
REMARK  status: ('A' for Active; 'I' for Inactive)
REMARK    1  A    between atoms: C_4  and  N_5
REMARK    2  A    between atoms: N_10  and  C_11
REMARK                            x       y       z     vdW  Elec       q    Type
REMARK                         _______ _______ _______ _____ _____    ______ ____
ROOT
ATOM      1  N   UNL     1      -0.224  10.254  21.368  0.00  0.00    +0.000 N 
ATOM      2  N   UNL     1       0.054   9.308  22.320  0.00  0.00    +0.000 NA
ATOM      3  C   UNL     1       0.841   8.427  21.694  0.00  0.00    +0.000 A 
ATOM      4  C   UNL     1       1.119   8.779  20.367  0.00  0.00    +0.000 A 
ATOM      5  C   UNL     1       1.860   8.258  19.289  0.00  0.00    +0.000 A 
ATOM      6  N   UNL     1       2.582   7.064  19.365  0.00  0.00    +0.000 N 
ATOM      7  N   UNL     1       1.877   8.982  18.142  0.00  0.00    +0.000 NA
ATOM      8  C   UNL     1       1.197  10.139  18.083  0.00  0.00    +0.000 A 
ATOM      9  N   UNL     1       0.446  10.698  19.037  0.00  0.00    +0.000 NA
ATOM     10  C   UNL     1       0.436   9.969  20.171  0.00  0.00    +0.000 A 
ATOM     11  H   UNL     1       2.352   6.492  20.167  0.00  0.00    +0.000 HD
ENDROOT
BRANCH   6  12
ATOM     12  C   UNL     1       2.799   6.323  18.111  0.00  0.00    +0.000 C 
ATOM     13  C   UNL     1       4.300   6.318  17.769  0.00  0.00    +0.000 C 
ATOM     14  C   UNL     1       5.221   5.406  18.577  0.00  0.00    +0.000 C 
ATOM     15  C   UNL     1       5.227   3.938  18.159  0.00  0.00    +0.000 C 
ATOM     16  C   UNL     1       3.903   3.197  18.274  0.00  0.00    +0.000 C 
ATOM     17  C   UNL     1       2.767   3.803  17.456  0.00  0.00    +0.000 C 
ATOM     18  C   UNL     1       2.089   4.963  18.178  0.00  0.00    +0.000 C 
ENDBRANCH   6  12
BRANCH   1  22
ATOM     19  C   UNL     1      -2.812  13.476  22.337  0.00  0.00    +0.000 A 
ATOM     20  C   UNL     1      -2.432  12.557  23.313  0.00  0.00    +0.000 A 
ATOM     21  C   UNL     1      -1.581  11.496  22.988  0.00  0.00    +0.000 A 
ATOM     22  C   UNL     1      -1.091  11.349  21.678  0.00  0.00    +0.000 A 
ATOM     23  C   UNL     1      -1.482  12.280  20.706  0.00  0.00    +0.000 A 
ATOM     24  C   UNL     1      -2.340  13.335  21.036  0.00  0.00    +0.000 A 
ENDBRANCH   1  22
TORSDOF 2
ENDMDL
MODEL 9
REMARK VINA RESULT:      -7.2      2.702      4.021
REMARK  Name = 
REMARK  2 active torsions:
REMARK  status: ('A' for Active; 'I' for Inactive)
REMARK    1  A    between atoms: C_4  and  N_5
REMARK    2  A    between atoms: N_10  and  C_11
REMARK                            x       y       z     vdW  Elec       q    Type
REMARK                         _______ _______ _______ _____ _____    ______ ____
ROOT
ATOM      1  N   UNL     1       1.527  10.732  18.693  0.00  0.00    +0.000 N 
ATOM      2  N   UNL     1       1.982  10.274  17.485  0.00  0.00    +0.000 NA
ATOM      3  C   UNL     1       2.178   8.966  17.675  0.00  0.00    +0.000 A 
ATOM      4  C   UNL     1       1.833   8.538  18.964  0.00  0.00    +0.000 A 
ATOM      5  C   UNL     1       1.823   7.330  19.688  0.00  0.00    +0.000 A 
ATOM      6  N   UNL     1       2.241   6.112  19.146  0.00  0.00    +0.000 N 
ATOM      7  N   UNL     1       1.355   7.375  20.960  0.00  0.00    +0.000 NA
ATOM      8  C   UNL     1       0.936   8.546  21.468  0.00  0.00    +0.000 A 
ATOM      9  N   UNL     1       0.934   9.742  20.873  0.00  0.00    +0.000 NA
ATOM     10  C   UNL     1       1.401   9.686  19.609  0.00  0.00    +0.000 A 
ATOM     11  H   UNL     1       2.760   6.200  18.282  0.00  0.00    +0.000 HD
ENDROOT
BRANCH   6  12
ATOM     12  C   UNL     1       2.753   5.095  20.082  0.00  0.00    +0.000 C 
ATOM     13  C   UNL     1       1.597   4.187  20.537  0.00  0.00    +0.000 C 
ATOM     14  C   UNL     1       1.065   3.148  19.551  0.00  0.00    +0.000 C 
ATOM     15  C   UNL     1       1.887   1.867  19.435  0.00  0.00    +0.000 C 
ATOM     16  C   UNL     1       3.321   2.027  18.950  0.00  0.00    +0.000 C 
ATOM     17  C   UNL     1       4.184   2.936  19.819  0.00  0.00    +0.000 C 
ATOM     18  C   UNL     1       3.992   4.411  19.483  0.00  0.00    +0.000 C 
ENDBRANCH   6  12
BRANCH   1  22
ATOM     19  C   UNL     1       0.643  14.852  19.206  0.00  0.00    +0.000 A 
ATOM     20  C   UNL     1      -0.380  13.931  18.994  0.00  0.00    +0.000 A 
ATOM     21  C   UNL     1      -0.083  12.575  18.823  0.00  0.00    +0.000 A 
ATOM     22  C   UNL     1       1.247  12.123  18.874  0.00  0.00    +0.000 A 
ATOM     23  C   UNL     1       2.267  13.061  19.088  0.00  0.00    +0.000 A 
ATOM     24  C   UNL     1       1.965  14.417  19.250  0.00  0.00    +0.000 A 
ENDBRANCH   1  22
TORSDOF 2
ENDMDL
