MODEL 1
REMARK VINA RESULT:      -7.7      0.000      0.000
REMARK  Name = 
REMARK  5 active torsions:
REMARK  status: ('A' for Active; 'I' for Inactive)
REMARK    1  A    between atoms: C_1  and  C_2
REMARK    2  A    between atoms: N_9  and  C_10
REMARK    3  A    between atoms: C_10  and  C_11
REMARK    4  A    between atoms: C_18  and  C_19
REMARK    5  A    between atoms: N_23  and  C_24
REMARK                            x       y       z     vdW  Elec       q    Type
REMARK                         _______ _______ _______ _____ _____    ______ ____
ROOT
ATOM      1  C   UNL     1       2.172  10.672  17.920  0.00  0.00    +0.000 C 
ATOM      2  C   UNL     1       1.100  10.552  19.020  0.00  0.00    +0.000 C 
ATOM      3  C   UNL     1      -0.351  10.464  18.553  0.00  0.00    +0.000 A 
ATOM      4  C   UNL     1      -0.697   9.921  17.303  0.00  0.00    +0.000 A 
ATOM      5  C   UNL     1      -2.023   9.890  16.878  0.00  0.00    +0.000 A 
ATOM      6  C   UNL     1      -3.022  10.405  17.699  0.00  0.00    +0.000 A 
ATOM      7  C   UNL     1      -2.696  10.917  18.954  0.00  0.00    +0.000 A 
ATOM      8  C   UNL     1      -1.372  10.933  19.414  0.00  0.00    +0.000 A 
ATOM      9  N   UNL     1      -1.066  11.317  20.717  0.00  0.00    +0.000 N 
ATOM     10  C   UNL     1      -0.543  10.253  21.587  0.00  0.00    +0.000 C 
ATOM     11  C   UNL     1       0.986  10.044  21.437  0.00  0.00    +0.000 C 
ATOM     12  C   UNL     1       1.536   9.304  22.662  0.00  0.00    +0.000 C 
ATOM     13  N   UNL     1       1.366   9.546  20.080  0.00  0.00    +0.000 N 
ATOM     14  C   UNL     1       1.585   8.242  19.638  0.00  0.00    +0.000 C 
ATOM     15  O   UNL     1       1.795   7.994  18.453  0.00  0.00    +0.000 OA
ATOM     16  N   UNL     1       1.574   7.248  20.582  0.00  0.00    +0.000 N 
ATOM     17  H   UNL     1       0.924   7.378  21.334  0.00  0.00    +0.000 HD
ENDROOT
BRANCH  16  18
ATOM     18  C   UNL     1       1.979   5.905  20.355  0.00  0.00    +0.000 A 
ATOM     19  C   UNL     1       1.162   4.795  20.580  0.00  0.00    +0.000 A 
ATOM     20  C   UNL     1       1.666   3.507  20.407  0.00  0.00    +0.000 A 
ATOM     21  C   UNL     1       2.974   3.365  19.972  0.00  0.00    +0.000 A 
ATOM     22  N   UNL     1       3.780   4.407  19.682  0.00  0.00    +0.000 NA
ATOM     23  C   UNL     1       3.261   5.648  19.877  0.00  0.00    +0.000 A 
ENDBRANCH  16  18
BRANCH   9  24
ATOM     24  C   UNL     1      -1.450  12.627  21.246  0.00  0.00    +0.000 C 
BRANCH  24  25
ATOM     25  C   UNL     1      -2.731  12.613  22.053  0.00  0.00    +0.000 A 
ATOM     26  C   UNL     1      -3.971  12.882  21.460  0.00  0.00    +0.000 A 
ATOM     27  C   UNL     1      -5.131  12.971  22.227  0.00  0.00    +0.000 A 
ATOM     28  C   UNL     1      -5.075  12.752  23.600  0.00  0.00    +0.000 A 
ATOM     29  C   UNL     1      -3.864  12.411  24.197  0.00  0.00    +0.000 A 
ATOM     30  C   UNL     1      -2.699  12.337  23.431  0.00  0.00    +0.000 A 
ENDBRANCH  24  25
ENDBRANCH   9  24
TORSDOF 3
ENDMDL
MODEL 2
REMARK VINA RESULT:      -7.4      1.536      2.619
REMARK  Name = 
REMARK  5 active torsions:
REMARK  status: ('A' for Active; 'I' for Inactive)
REMARK    1  A    between atoms: C_1  and  C_2
REMARK    2  A    between atoms: N_9  and  C_10
REMARK    3  A    between atoms: C_10  and  C_11
REMARK    4  A    between atoms: C_18  and  C_19
REMARK    5  A    between atoms: N_23  and  C_24
REMARK                            x       y       z     vdW  Elec       q    Type
REMARK                         _______ _______ _______ _____ _____    ______ ____
ROOT
ATOM      1  C   UNL     1       2.265  10.525  17.919  0.00  0.00    +0.000 C 
ATOM      2  C   UNL     1       1.201  10.431  19.029  0.00  0.00    +0.000 C 
ATOM      3  C   UNL     1      -0.256  10.381  18.576  0.00  0.00    +0.000 A 
ATOM      4  C   UNL     1      -0.629   9.850  17.329  0.00  0.00    +0.000 A 
ATOM      5  C   UNL     1      -1.960   9.855  16.916  0.00  0.00    +0.000 A 
ATOM      6  C   UNL     1      -2.937  10.394  17.748  0.00  0.00    +0.000 A 
ATOM      7  C   UNL     1      -2.585  10.895  19.001  0.00  0.00    +0.000 A 
ATOM      8  C   UNL     1      -1.257  10.876  19.447  0.00  0.00    +0.000 A 
ATOM      9  N   UNL     1      -0.928  11.249  20.749  0.00  0.00    +0.000 N 
ATOM     10  C   UNL     1      -0.425  10.169  21.611  0.00  0.00    +0.000 C 
ATOM     11  C   UNL     1       1.097   9.921  21.445  0.00  0.00    +0.000 C 
ATOM     12  C   UNL     1       1.639   9.164  22.664  0.00  0.00    +0.000 C 
ATOM     13  N   UNL     1       1.450   9.416  20.084  0.00  0.00    +0.000 N 
ATOM     14  C   UNL     1       1.631   8.107  19.637  0.00  0.00    +0.000 C 
ATOM     15  O   UNL     1       1.823   7.857  18.450  0.00  0.00    +0.000 OA
ATOM     16  N   UNL     1       1.604   7.113  20.580  0.00  0.00    +0.000 N 
ATOM     17  H   UNL     1       0.965   7.258  21.339  0.00  0.00    +0.000 HD
ENDROOT
BRANCH  16  18
ATOM     18  C   UNL     1       1.971   5.760  20.347  0.00  0.00    +0.000 A 
ATOM     19  C   UNL     1       1.101   4.678  20.497  0.00  0.00    +0.000 A 
ATOM     20  C   UNL     1       1.566   3.375  20.325  0.00  0.00    +0.000 A 
ATOM     21  C   UNL     1       2.892   3.192  19.966  0.00  0.00    +0.000 A 
ATOM     22  N   UNL     1       3.752   4.207  19.748  0.00  0.00    +0.000 NA
ATOM     23  C   UNL     1       3.269   5.463  19.940  0.00  0.00    +0.000 A 
ENDBRANCH  16  18
BRANCH   9  24
ATOM     24  C   UNL     1      -1.273  12.568  21.283  0.00  0.00    +0.000 C 
BRANCH  24  25
ATOM     25  C   UNL     1      -0.505  13.708  20.648  0.00  0.00    +0.000 A 
ATOM     26  C   UNL     1      -1.165  14.773  20.021  0.00  0.00    +0.000 A 
ATOM     27  C   UNL     1      -0.454  15.763  19.347  0.00  0.00    +0.000 A 
ATOM     28  C   UNL     1       0.938  15.725  19.323  0.00  0.00    +0.000 A 
ATOM     29  C   UNL     1       1.614  14.714  20.002  0.00  0.00    +0.000 A 
ATOM     30  C   UNL     1       0.900  13.714  20.665  0.00  0.00    +0.000 A 
ENDBRANCH  24  25
ENDBRANCH   9  24
TORSDOF 3
ENDMDL
MODEL 3
REMARK VINA RESULT:      -7.2      3.591      6.196
REMARK  Name = 
REMARK  5 active torsions:
REMARK  status: ('A' for Active; 'I' for Inactive)
REMARK    1  A    between atoms: C_1  and  C_2
REMARK    2  A    between atoms: N_9  and  C_10
REMARK    3  A    between atoms: C_10  and  C_11
REMARK    4  A    between atoms: C_18  and  C_19
REMARK    5  A    between atoms: N_23  and  C_24
REMARK                            x       y       z     vdW  Elec       q    Type
REMARK                         _______ _______ _______ _____ _____    ______ ____
ROOT
ATOM      1  C   UNL     1      -1.549  11.768  18.551  0.00  0.00    +0.000 C 
ATOM      2  C   UNL     1      -1.320  12.177  20.019  0.00  0.00    +0.000 C 
ATOM      3  C   UNL     1      -0.806  11.090  20.959  0.00  0.00    +0.000 A 
ATOM      4  C   UNL     1      -0.023  10.018  20.497  0.00  0.00    +0.000 A 
ATOM      5  C   UNL     1       0.399   9.012  21.365  0.00  0.00    +0.000 A 
ATOM      6  C   UNL     1       0.040   9.066  22.709  0.00  0.00    +0.000 A 
ATOM      7  C   UNL     1      -0.709  10.141  23.186  0.00  0.00    +0.000 A 
ATOM      8  C   UNL     1      -1.122  11.177  22.337  0.00  0.00    +0.000 A 
ATOM      9  N   UNL     1      -1.750  12.314  22.839  0.00  0.00    +0.000 N 
ATOM     10  C   UNL     1      -0.985  13.565  22.728  0.00  0.00    +0.000 C 
ATOM     11  C   UNL     1      -1.146  14.254  21.349  0.00  0.00    +0.000 C 
ATOM     12  C   UNL     1      -0.748  15.731  21.452  0.00  0.00    +0.000 C 
ATOM     13  N   UNL     1      -0.573  13.443  20.232  0.00  0.00    +0.000 N 
ATOM     14  C   UNL     1       0.684  13.514  19.632  0.00  0.00    +0.000 C 
ATOM     15  O   UNL     1       1.036  12.698  18.784  0.00  0.00    +0.000 OA
ATOM     16  N   UNL     1       1.505  14.544  20.015  0.00  0.00    +0.000 N 
ATOM     17  H   UNL     1       1.437  14.811  20.978  0.00  0.00    +0.000 HD
ENDROOT
BRANCH  16  18
ATOM     18  C   UNL     1       2.721  14.896  19.371  0.00  0.00    +0.000 A 
ATOM     19  C   UNL     1       2.797  15.442  18.088  0.00  0.00    +0.000 A 
ATOM     20  C   UNL     1       4.037  15.685  17.500  0.00  0.00    +0.000 A 
ATOM     21  C   UNL     1       5.178  15.408  18.236  0.00  0.00    +0.000 A 
ATOM     22  N   UNL     1       5.155  14.941  19.500  0.00  0.00    +0.000 NA
ATOM     23  C   UNL     1       3.929  14.701  20.036  0.00  0.00    +0.000 A 
ENDBRANCH  16  18
BRANCH   9  24
ATOM     24  C   UNL     1      -2.984  12.231  23.624  0.00  0.00    +0.000 C 
BRANCH  24  25
ATOM     25  C   UNL     1      -4.153  12.972  23.012  0.00  0.00    +0.000 A 
ATOM     26  C   UNL     1      -4.864  13.940  23.734  0.00  0.00    +0.000 A 
ATOM     27  C   UNL     1      -6.002  14.541  23.203  0.00  0.00    +0.000 A 
ATOM     28  C   UNL     1      -6.428  14.213  21.919  0.00  0.00    +0.000 A 
ATOM     29  C   UNL     1      -5.693  13.307  21.158  0.00  0.00    +0.000 A 
ATOM     30  C   UNL     1      -4.560  12.694  21.695  0.00  0.00    +0.000 A 
ENDBRANCH  24  25
ENDBRANCH   9  24
TORSDOF 3
ENDMDL
MODEL 4
REMARK VINA RESULT:      -7.1      3.718      6.477
REMARK  Name = 
REMARK  5 active torsions:
REMARK  status: ('A' for Active; 'I' for Inactive)
REMARK    1  A    between atoms: C_1  and  C_2
REMARK    2  A    between atoms: N_9  and  C_10
REMARK    3  A    between atoms: C_10  and  C_11
REMARK    4  A    between atoms: C_18  and  C_19
REMARK    5  A    between atoms: N_23  and  C_24
REMARK                            x       y       z     vdW  Elec       q    Type
REMARK                         _______ _______ _______ _____ _____    ______ ____
ROOT
ATOM      1  C   UNL     1      -1.467  12.177  18.570  0.00  0.00    +0.000 C 
ATOM      2  C   UNL     1      -1.295  12.475  20.072  0.00  0.00    +0.000 C 
ATOM      3  C   UNL     1      -0.766  11.335  20.939  0.00  0.00    +0.000 A 
ATOM      4  C   UNL     1       0.071  10.333  20.418  0.00  0.00    +0.000 A 
ATOM      5  C   UNL     1       0.507   9.277  21.216  0.00  0.00    +0.000 A 
ATOM      6  C   UNL     1       0.109   9.210  22.548  0.00  0.00    +0.000 A 
ATOM      7  C   UNL     1      -0.695  10.216  23.086  0.00  0.00    +0.000 A 
ATOM      8  C   UNL     1      -1.123  11.300  22.309  0.00  0.00    +0.000 A 
ATOM      9  N   UNL     1      -1.809  12.370  22.879  0.00  0.00    +0.000 N 
ATOM     10  C   UNL     1      -1.090  13.652  22.891  0.00  0.00    +0.000 C 
ATOM     11  C   UNL     1      -1.239  14.444  21.566  0.00  0.00    +0.000 C 
ATOM     12  C   UNL     1      -0.902  15.921  21.798  0.00  0.00    +0.000 C 
ATOM     13  N   UNL     1      -0.604  13.746  20.407  0.00  0.00    +0.000 N 
ATOM     14  C   UNL     1       0.665  13.911  19.854  0.00  0.00    +0.000 C 
ATOM     15  O   UNL     1       1.072  13.179  18.955  0.00  0.00    +0.000 OA
ATOM     16  N   UNL     1       1.434  14.936  20.341  0.00  0.00    +0.000 N 
ATOM     17  H   UNL     1       1.329  15.123  21.320  0.00  0.00    +0.000 HD
ENDROOT
BRANCH  16  18
ATOM     18  C   UNL     1       2.654  15.383  19.766  0.00  0.00    +0.000 A 
ATOM     19  C   UNL     1       3.904  14.837  20.063  0.00  0.00    +0.000 A 
ATOM     20  C   UNL     1       5.060  15.389  19.514  0.00  0.00    +0.000 A 
ATOM     21  C   UNL     1       4.927  16.458  18.642  0.00  0.00    +0.000 A 
ATOM     22  N   UNL     1       3.739  16.978  18.276  0.00  0.00    +0.000 NA
ATOM     23  C   UNL     1       2.634  16.426  18.843  0.00  0.00    +0.000 A 
ENDBRANCH  16  18
BRANCH   9  24
ATOM     24  C   UNL     1      -3.060  12.179  23.617  0.00  0.00    +0.000 C 
BRANCH  24  25
ATOM     25  C   UNL     1      -4.249  12.889  23.005  0.00  0.00    +0.000 A 
ATOM     26  C   UNL     1      -4.585  12.720  21.656  0.00  0.00    +0.000 A 
ATOM     27  C   UNL     1      -5.614  13.457  21.073  0.00  0.00    +0.000 A 
ATOM     28  C   UNL     1      -6.353  14.350  21.845  0.00  0.00    +0.000 A 
ATOM     29  C   UNL     1      -6.081  14.478  23.205  0.00  0.00    +0.000 A 
ATOM     30  C   UNL     1      -5.040  13.750  23.784  0.00  0.00    +0.000 A 
ENDBRANCH  24  25
ENDBRANCH   9  24
TORSDOF 3
ENDMDL
MODEL 5
REMARK VINA RESULT:      -7.1      2.691      7.989
REMARK  Name = 
REMARK  5 active torsions:
REMARK  status: ('A' for Active; 'I' for Inactive)
REMARK    1  A    between atoms: C_1  and  C_2
REMARK    2  A    between atoms: N_9  and  C_10
REMARK    3  A    between atoms: C_10  and  C_11
REMARK    4  A    between atoms: C_18  and  C_19
REMARK    5  A    between atoms: N_23  and  C_24
REMARK                            x       y       z     vdW  Elec       q    Type
REMARK                         _______ _______ _______ _____ _____    ______ ____
ROOT
ATOM      1  C   UNL     1      -0.322  13.583  19.959  0.00  0.00    +0.000 C 
ATOM      2  C   UNL     1      -0.364  12.061  19.724  0.00  0.00    +0.000 C 
ATOM      3  C   UNL     1      -0.347  11.176  20.967  0.00  0.00    +0.000 A 
ATOM      4  C   UNL     1      -0.863  11.616  22.199  0.00  0.00    +0.000 A 
ATOM      5  C   UNL     1      -0.797  10.808  23.333  0.00  0.00    +0.000 A 
ATOM      6  C   UNL     1      -0.212   9.548  23.249  0.00  0.00    +0.000 A 
ATOM      7  C   UNL     1       0.275   9.087  22.026  0.00  0.00    +0.000 A 
ATOM      8  C   UNL     1       0.195   9.872  20.867  0.00  0.00    +0.000 A 
ATOM      9  N   UNL     1       0.555   9.359  19.623  0.00  0.00    +0.000 N 
ATOM     10  C   UNL     1      -0.544   9.195  18.661  0.00  0.00    +0.000 C 
ATOM     11  C   UNL     1      -0.864  10.494  17.877  0.00  0.00    +0.000 C 
ATOM     12  C   UNL     1      -1.642  10.158  16.600  0.00  0.00    +0.000 C 
ATOM     13  N   UNL     1      -1.387  11.581  18.760  0.00  0.00    +0.000 N 
ATOM     14  C   UNL     1      -2.704  11.945  19.040  0.00  0.00    +0.000 C 
ATOM     15  O   UNL     1      -2.965  12.808  19.875  0.00  0.00    +0.000 OA
ATOM     16  N   UNL     1      -3.694  11.314  18.333  0.00  0.00    +0.000 N 
ATOM     17  H   UNL     1      -3.518  10.352  18.113  0.00  0.00    +0.000 HD
ENDROOT
BRANCH  16  18
ATOM     18  C   UNL     1      -5.063  11.695  18.332  0.00  0.00    +0.000 A 
ATOM     19  C   UNL     1      -5.694  12.334  17.263  0.00  0.00    +0.000 A 
ATOM     20  C   UNL     1      -7.021  12.746  17.376  0.00  0.00    +0.000 A 
ATOM     21  C   UNL     1      -7.697  12.469  18.553  0.00  0.00    +0.000 A 
ATOM     22  N   UNL     1      -7.150  11.799  19.587  0.00  0.00    +0.000 NA
ATOM     23  C   UNL     1      -5.850  11.426  19.449  0.00  0.00    +0.000 A 
ENDBRANCH  16  18
BRANCH   9  24
ATOM     24  C   UNL     1       1.890   8.811  19.371  0.00  0.00    +0.000 C 
BRANCH  24  25
ATOM     25  C   UNL     1       1.939   7.298  19.352  0.00  0.00    +0.000 A 
ATOM     26  C   UNL     1       2.183   6.590  18.169  0.00  0.00    +0.000 A 
ATOM     27  C   UNL     1       2.122   5.199  18.137  0.00  0.00    +0.000 A 
ATOM     28  C   UNL     1       1.855   4.488  19.303  0.00  0.00    +0.000 A 
ATOM     29  C   UNL     1       1.681   5.170  20.505  0.00  0.00    +0.000 A 
ATOM     30  C   UNL     1       1.727   6.565  20.533  0.00  0.00    +0.000 A 
ENDBRANCH  24  25
ENDBRANCH   9  24
TORSDOF 3
ENDMDL
MODEL 6
REMARK VINA RESULT:      -7.0      3.543      6.166
REMARK  Name = 
REMARK  5 active torsions:
REMARK  status: ('A' for Active; 'I' for Inactive)
REMARK    1  A    between atoms: C_1  and  C_2
REMARK    2  A    between atoms: N_9  and  C_10
REMARK    3  A    between atoms: C_10  and  C_11
REMARK    4  A    between atoms: C_18  and  C_19
REMARK    5  A    between atoms: N_23  and  C_24
REMARK                            x       y       z     vdW  Elec       q    Type
REMARK                         _______ _______ _______ _____ _____    ______ ____
ROOT
ATOM      1  C   UNL     1      -0.700  11.022  18.306  0.00  0.00    +0.000 C 
ATOM      2  C   UNL     1      -0.874  11.774  19.640  0.00  0.00    +0.000 C 
ATOM      3  C   UNL     1      -0.578  10.984  20.913  0.00  0.00    +0.000 A 
ATOM      4  C   UNL     1       0.340   9.919  20.929  0.00  0.00    +0.000 A 
ATOM      5  C   UNL     1       0.562   9.183  22.091  0.00  0.00    +0.000 A 
ATOM      6  C   UNL     1      -0.132   9.503  23.254  0.00  0.00    +0.000 A 
ATOM      7  C   UNL     1      -1.021  10.578  23.259  0.00  0.00    +0.000 A 
ATOM      8  C   UNL     1      -1.240  11.349  22.109  0.00  0.00    +0.000 A 
ATOM      9  N   UNL     1      -2.021  12.502  22.152  0.00  0.00    +0.000 N 
ATOM     10  C   UNL     1      -1.302  13.764  21.927  0.00  0.00    +0.000 C 
ATOM     11  C   UNL     1      -1.130  14.104  20.424  0.00  0.00    +0.000 C 
ATOM     12  C   UNL     1      -0.830  15.598  20.256  0.00  0.00    +0.000 C 
ATOM     13  N   UNL     1      -0.257  13.122  19.711  0.00  0.00    +0.000 N 
ATOM     14  C   UNL     1       1.108  13.181  19.433  0.00  0.00    +0.000 C 
ATOM     15  O   UNL     1       1.698  12.233  18.920  0.00  0.00    +0.000 OA
ATOM     16  N   UNL     1       1.762  14.347  19.738  0.00  0.00    +0.000 N 
ATOM     17  H   UNL     1       1.438  14.818  20.561  0.00  0.00    +0.000 HD
ENDROOT
BRANCH  16  18
ATOM     18  C   UNL     1       3.089  14.664  19.341  0.00  0.00    +0.000 A 
ATOM     19  C   UNL     1       3.472  14.904  18.020  0.00  0.00    +0.000 A 
ATOM     20  C   UNL     1       4.812  15.130  17.707  0.00  0.00    +0.000 A 
ATOM     21  C   UNL     1       5.733  15.149  18.742  0.00  0.00    +0.000 A 
ATOM     22  N   UNL     1       5.402  14.985  20.038  0.00  0.00    +0.000 NA
ATOM     23  C   UNL     1       4.090  14.752  20.305  0.00  0.00    +0.000 A 
ENDBRANCH  16  18
BRANCH   9  24
ATOM     24  C   UNL     1      -3.411  12.476  22.613  0.00  0.00    +0.000 C 
BRANCH  24  25
ATOM     25  C   UNL     1      -4.405  12.996  21.596  0.00  0.00    +0.000 A 
ATOM     26  C   UNL     1      -5.312  14.014  21.916  0.00  0.00    +0.000 A 
ATOM     27  C   UNL     1      -6.293  14.414  21.012  0.00  0.00    +0.000 A 
ATOM     28  C   UNL     1      -6.357  13.828  19.751  0.00  0.00    +0.000 A 
ATOM     29  C   UNL     1      -5.419  12.865  19.388  0.00  0.00    +0.000 A 
ATOM     30  C   UNL     1      -4.445  12.454  20.300  0.00  0.00    +0.000 A 
ENDBRANCH  24  25
ENDBRANCH   9  24
TORSDOF 3
ENDMDL
MODEL 7
REMARK VINA RESULT:      -7.0      4.068      6.425
REMARK  Name = 
REMARK  5 active torsions:
REMARK  status: ('A' for Active; 'I' for Inactive)
REMARK    1  A    between atoms: C_1  and  C_2
REMARK    2  A    between atoms: N_9  and  C_10
REMARK    3  A    between atoms: C_10  and  C_11
REMARK    4  A    between atoms: C_18  and  C_19
REMARK    5  A    between atoms: N_23  and  C_24
REMARK                            x       y       z     vdW  Elec       q    Type
REMARK                         _______ _______ _______ _____ _____    ______ ____
ROOT
ATOM      1  C   UNL     1      -1.381  11.795  18.198  0.00  0.00    +0.000 C 
ATOM      2  C   UNL     1      -1.466  12.577  19.522  0.00  0.00    +0.000 C 
ATOM      3  C   UNL     1      -1.246  11.776  20.804  0.00  0.00    +0.000 A 
ATOM      4  C   UNL     1      -0.445  10.621  20.830  0.00  0.00    +0.000 A 
ATOM      5  C   UNL     1      -0.294   9.881  22.000  0.00  0.00    +0.000 A 
ATOM      6  C   UNL     1      -0.944  10.287  23.162  0.00  0.00    +0.000 A 
ATOM      7  C   UNL     1      -1.715  11.449  23.158  0.00  0.00    +0.000 A 
ATOM      8  C   UNL     1      -1.860  12.223  21.999  0.00  0.00    +0.000 A 
ATOM      9  N   UNL     1      -2.516  13.453  22.030  0.00  0.00    +0.000 N 
ATOM     10  C   UNL     1      -1.670  14.630  21.785  0.00  0.00    +0.000 C 
ATOM     11  C   UNL     1      -1.472  14.931  20.277  0.00  0.00    +0.000 C 
ATOM     12  C   UNL     1      -1.019  16.383  20.088  0.00  0.00    +0.000 C 
ATOM     13  N   UNL     1      -0.711  13.854  19.573  0.00  0.00    +0.000 N 
ATOM     14  C   UNL     1       0.651  13.767  19.287  0.00  0.00    +0.000 C 
ATOM     15  O   UNL     1       1.135  12.756  18.784  0.00  0.00    +0.000 OA
ATOM     16  N   UNL     1       1.425  14.861  19.574  0.00  0.00    +0.000 N 
ATOM     17  H   UNL     1       1.157  15.373  20.393  0.00  0.00    +0.000 HD
ENDROOT
BRANCH  16  18
ATOM     18  C   UNL     1       2.775  15.033  19.166  0.00  0.00    +0.000 A 
ATOM     19  C   UNL     1       3.162  15.350  17.863  0.00  0.00    +0.000 A 
ATOM     20  C   UNL     1       4.514  15.421  17.530  0.00  0.00    +0.000 A 
ATOM     21  C   UNL     1       5.449  15.210  18.531  0.00  0.00    +0.000 A 
ATOM     22  N   UNL     1       5.123  14.963  19.816  0.00  0.00    +0.000 NA
ATOM     23  C   UNL     1       3.797  14.886  20.101  0.00  0.00    +0.000 A 
ENDBRANCH  16  18
BRANCH   9  24
ATOM     24  C   UNL     1      -3.898  13.577  22.498  0.00  0.00    +0.000 C 
BRANCH  24  25
ATOM     25  C   UNL     1      -4.927  13.048  21.521  0.00  0.00    +0.000 A 
ATOM     26  C   UNL     1      -6.137  12.497  21.962  0.00  0.00    +0.000 A 
ATOM     27  C   UNL     1      -7.031  11.915  21.067  0.00  0.00    +0.000 A 
ATOM     28  C   UNL     1      -6.747  11.912  19.704  0.00  0.00    +0.000 A 
ATOM     29  C   UNL     1      -5.584  12.519  19.239  0.00  0.00    +0.000 A 
ATOM     30  C   UNL     1      -4.681  13.088  20.138  0.00  0.00    +0.000 A 
ENDBRANCH  24  25
ENDBRANCH   9  24
TORSDOF 3
ENDMDL
MODEL 8
REMARK VINA RESULT:      -7.0      2.737      8.048
REMARK  Name = 
REMARK  5 active torsions:
REMARK  status: ('A' for Active; 'I' for Inactive)
REMARK    1  A    between atoms: C_1  and  C_2
REMARK    2  A    between atoms: N_9  and  C_10
REMARK    3  A    between atoms: C_10  and  C_11
REMARK    4  A    between atoms: C_18  and  C_19
REMARK    5  A    between atoms: N_23  and  C_24
REMARK                            x       y       z     vdW  Elec       q    Type
REMARK                         _______ _______ _______ _____ _____    ______ ____
ROOT
ATOM      1  C   UNL     1      -0.315  13.649  20.037  0.00  0.00    +0.000 C 
ATOM      2  C   UNL     1      -0.374  12.131  19.780  0.00  0.00    +0.000 C 
ATOM      3  C   UNL     1      -0.353  11.228  21.011  0.00  0.00    +0.000 A 
ATOM      4  C   UNL     1      -0.855  11.654  22.253  0.00  0.00    +0.000 A 
ATOM      5  C   UNL     1      -0.786  10.830  23.374  0.00  0.00    +0.000 A 
ATOM      6  C   UNL     1      -0.213   9.567  23.267  0.00  0.00    +0.000 A 
ATOM      7  C   UNL     1       0.259   9.119  22.033  0.00  0.00    +0.000 A 
ATOM      8  C   UNL     1       0.176   9.921  20.887  0.00  0.00    +0.000 A 
ATOM      9  N   UNL     1       0.521   9.423  19.632  0.00  0.00    +0.000 N 
ATOM     10  C   UNL     1      -0.588   9.282  18.678  0.00  0.00    +0.000 C 
ATOM     11  C   UNL     1      -0.903  10.595  17.916  0.00  0.00    +0.000 C 
ATOM     12  C   UNL     1      -1.695  10.284  16.641  0.00  0.00    +0.000 C 
ATOM     13  N   UNL     1      -1.409  11.674  18.819  0.00  0.00    +0.000 N 
ATOM     14  C   UNL     1      -2.720  12.045  19.116  0.00  0.00    +0.000 C 
ATOM     15  O   UNL     1      -2.967  12.898  19.965  0.00  0.00    +0.000 OA
ATOM     16  N   UNL     1      -3.722  11.433  18.408  0.00  0.00    +0.000 N 
ATOM     17  H   UNL     1      -3.556  10.473  18.173  0.00  0.00    +0.000 HD
ENDROOT
BRANCH  16  18
ATOM     18  C   UNL     1      -5.087  11.826  18.425  0.00  0.00    +0.000 A 
ATOM     19  C   UNL     1      -5.951  11.603  19.498  0.00  0.00    +0.000 A 
ATOM     20  C   UNL     1      -7.298  11.950  19.399  0.00  0.00    +0.000 A 
ATOM     21  C   UNL     1      -7.737  12.553  18.232  0.00  0.00    +0.000 A 
ATOM     22  N   UNL     1      -6.928  12.846  17.194  0.00  0.00    +0.000 NA
ATOM     23  C   UNL     1      -5.625  12.480  17.319  0.00  0.00    +0.000 A 
ENDBRANCH  16  18
BRANCH   9  24
ATOM     24  C   UNL     1       1.848   8.867  19.361  0.00  0.00    +0.000 C 
BRANCH  24  25
ATOM     25  C   UNL     1       1.888   7.354  19.337  0.00  0.00    +0.000 A 
ATOM     26  C   UNL     1       1.660   6.598  20.494  0.00  0.00    +0.000 A 
ATOM     27  C   UNL     1       1.802   5.212  20.488  0.00  0.00    +0.000 A 
ATOM     28  C   UNL     1       2.137   4.553  19.308  0.00  0.00    +0.000 A 
ATOM     29  C   UNL     1       2.296   5.280  18.131  0.00  0.00    +0.000 A 
ATOM     30  C   UNL     1       2.168   6.670  18.141  0.00  0.00    +0.000 A 
ENDBRANCH  24  25
ENDBRANCH   9  24
TORSDOF 3
ENDMDL
MODEL 9
REMARK VINA RESULT:      -7.0      3.663      6.372
REMARK  Name = 
REMARK  5 active torsions:
REMARK  status: ('A' for Active; 'I' for Inactive)
REMARK    1  A    between atoms: C_1  and  C_2
REMARK    2  A    between atoms: N_9  and  C_10
REMARK    3  A    between atoms: C_10  and  C_11
REMARK    4  A    between atoms: C_18  and  C_19
REMARK    5  A    between atoms: N_23  and  C_24
REMARK                            x       y       z     vdW  Elec       q    Type
REMARK                         _______ _______ _______ _____ _____    ______ ____
ROOT
ATOM      1  C   UNL     1       0.295  10.542  18.100  0.00  0.00    +0.000 C 
ATOM      2  C   UNL     1      -0.251  11.563  19.117  0.00  0.00    +0.000 C 
ATOM      3  C   UNL     1      -0.322  11.108  20.572  0.00  0.00    +0.000 A 
ATOM      4  C   UNL     1       0.559  10.144  21.092  0.00  0.00    +0.000 A 
ATOM      5  C   UNL     1       0.449   9.710  22.412  0.00  0.00    +0.000 A 
ATOM      6  C   UNL     1      -0.547  10.236  23.229  0.00  0.00    +0.000 A 
ATOM      7  C   UNL     1      -1.406  11.218  22.736  0.00  0.00    +0.000 A 
ATOM      8  C   UNL     1      -1.297  11.688  21.420  0.00  0.00    +0.000 A 
ATOM      9  N   UNL     1      -2.063  12.761  20.971  0.00  0.00    +0.000 N 
ATOM     10  C   UNL     1      -1.316  13.987  20.656  0.00  0.00    +0.000 C 
ATOM     11  C   UNL     1      -0.729  13.987  19.221  0.00  0.00    +0.000 C 
ATOM     12  C   UNL     1      -0.401  15.421  18.789  0.00  0.00    +0.000 C 
ATOM     13  N   UNL     1       0.314  12.934  19.029  0.00  0.00    +0.000 N 
ATOM     14  C   UNL     1       1.702  13.026  19.127  0.00  0.00    +0.000 C 
ATOM     15  O   UNL     1       2.418  12.031  19.036  0.00  0.00    +0.000 OA
ATOM     16  N   UNL     1       2.238  14.274  19.311  0.00  0.00    +0.000 N 
ATOM     17  H   UNL     1       1.692  14.896  19.878  0.00  0.00    +0.000 HD
ENDROOT
BRANCH  16  18
ATOM     18  C   UNL     1       3.621  14.587  19.227  0.00  0.00    +0.000 A 
ATOM     19  C   UNL     1       4.331  14.668  18.027  0.00  0.00    +0.000 A 
ATOM     20  C   UNL     1       5.705  14.902  18.039  0.00  0.00    +0.000 A 
ATOM     21  C   UNL     1       6.329  15.089  19.263  0.00  0.00    +0.000 A 
ATOM     22  N   UNL     1       5.675  15.083  20.442  0.00  0.00    +0.000 NA
ATOM     23  C   UNL     1       4.339  14.836  20.393  0.00  0.00    +0.000 A 
ENDBRANCH  16  18
BRANCH   9  24
ATOM     24  C   UNL     1      -3.526  12.740  21.028  0.00  0.00    +0.000 C 
BRANCH  24  25
ATOM     25  C   UNL     1      -4.189  12.442  19.700  0.00  0.00    +0.000 A 
ATOM     26  C   UNL     1      -3.546  11.678  18.718  0.00  0.00    +0.000 A 
ATOM     27  C   UNL     1      -4.115  11.496  17.460  0.00  0.00    +0.000 A 
ATOM     28  C   UNL     1      -5.362  12.047  17.175  0.00  0.00    +0.000 A 
ATOM     29  C   UNL     1      -6.050  12.749  18.162  0.00  0.00    +0.000 A 
ATOM     30  C   UNL     1      -5.472  12.943  19.418  0.00  0.00    +0.000 A 
ENDBRANCH  24  25
ENDBRANCH   9  24
TORSDOF 3
ENDMDL
