MODEL 1
REMARK VINA RESULT:      -7.8      0.000      0.000
REMARK  Name = 
REMARK  7 active torsions:
REMARK  status: ('A' for Active; 'I' for Inactive)
REMARK    1  A    between atoms: C_1  and  N_2
REMARK    2  A    between atoms: N_2  and  C_3
REMARK    3  A    between atoms: C_6  and  C_7
REMARK    4  A    between atoms: N_9  and  C_10
REMARK    5  A    between atoms: C_13  and  N_14
REMARK    6  A    between atoms: C_18  and  N_19
REMARK    7  A    between atoms: C_23  and  C_24
REMARK                            x       y       z     vdW  Elec       q    Type
REMARK                         _______ _______ _______ _____ _____    ______ ____
ROOT
ATOM      1  C   UNL     1      -0.196  12.233  18.834  0.00  0.00    +0.000 A 
ATOM      2  C   UNL     1       0.916  11.422  18.976  0.00  0.00    +0.000 A 
ATOM      3  N   UNL     1       0.501  10.127  18.891  0.00  0.00    +0.000 N 
ATOM      4  N   UNL     1      -0.789  10.051  18.496  0.00  0.00    +0.000 NA
ATOM      5  C   UNL     1      -1.255  11.315  18.543  0.00  0.00    +0.000 A 
ENDROOT
BRANCH   1  11
ATOM      6  C   UNL     1       3.615  15.181  17.817  0.00  0.00    +0.000 C 
ATOM      7  N   UNL     1       3.178  15.096  19.212  0.00  0.00    +0.000 N 
ATOM      8  C   UNL     1       4.249  14.880  20.180  0.00  0.00    +0.000 C 
ATOM      9  C   UNL     1       1.885  14.663  19.451  0.00  0.00    +0.000 C 
ATOM     10  N   UNL     1       1.103  14.253  18.510  0.00  0.00    +0.000 NA
ATOM     11  C   UNL     1      -0.212  13.737  18.918  0.00  0.00    +0.000 C 
ATOM     12  N   UNL     1      -0.735  14.138  20.238  0.00  0.00    +0.000 NA
ATOM     13  C   UNL     1       0.157  14.568  21.056  0.00  0.00    +0.000 C 
ATOM     14  N   UNL     1      -0.176  14.875  22.334  0.00  0.00    +0.000 N 
ATOM     15  N   UNL     1       1.449  14.738  20.732  0.00  0.00    +0.000 N 
ATOM     16  H   UNL     1      -1.186  14.820  22.442  0.00  0.00    +0.000 HD
ATOM     17  H   UNL     1       0.162  15.771  22.656  0.00  0.00    +0.000 HD
ATOM     18  H   UNL     1       2.049  15.146  21.421  0.00  0.00    +0.000 HD
ENDBRANCH   1  11
BRANCH   5  19
ATOM     19  C   UNL     1      -2.673  11.588  18.263  0.00  0.00    +0.000 A 
ATOM     20  C   UNL     1      -3.217  11.392  16.986  0.00  0.00    +0.000 A 
ATOM     21  C   UNL     1      -4.573  11.613  16.734  0.00  0.00    +0.000 A 
ATOM     22  C   UNL     1      -5.400  12.070  17.755  0.00  0.00    +0.000 A 
ATOM     23  C   UNL     1      -4.865  12.302  19.019  0.00  0.00    +0.000 A 
ATOM     24 CL   UNL     1      -5.888  12.886  20.275  0.00  0.00    +0.000 Cl
ATOM     25  C   UNL     1      -3.515  12.064  19.278  0.00  0.00    +0.000 A 
ENDBRANCH   5  19
BRANCH   3  26
ATOM     26  C   UNL     1       1.266   8.943  19.089  0.00  0.00    +0.000 A 
ATOM     27  C   UNL     1       1.896   8.366  17.970  0.00  0.00    +0.000 A 
ATOM     28  C   UNL     1       2.710   7.235  18.108  0.00  0.00    +0.000 A 
ATOM     29  C   UNL     1       2.888   6.651  19.368  0.00  0.00    +0.000 A 
ATOM     30  C   UNL     1       2.251   7.185  20.492  0.00  0.00    +0.000 A 
ATOM     31  C   UNL     1       1.444   8.325  20.339  0.00  0.00    +0.000 A 
BRANCH  29  32
ATOM     32  N   UNL     1       3.736   5.459  19.513  0.00  0.00    +0.000 N 
ATOM     33  O   UNL     1       4.949   5.590  19.298  0.00  0.00    +0.000 OA
ATOM     34  O   UNL     1       3.183   4.403  19.843  0.00  0.00    +0.000 OA
ENDBRANCH  29  32
BRANCH  31  35
ATOM     35  N   UNL     1       0.696   8.720  21.517  0.00  0.00    +0.000 N 
ATOM     36  O   UNL     1       1.243   9.512  22.292  0.00  0.00    +0.000 OA
ATOM     37  O   UNL     1      -0.451   8.267  21.622  0.00  0.00    +0.000 OA
ENDBRANCH  31  35
ENDBRANCH   3  26
TORSDOF 5
ENDMDL
MODEL 2
REMARK VINA RESULT:      -7.6      2.242      2.793
REMARK  Name = 
REMARK  7 active torsions:
REMARK  status: ('A' for Active; 'I' for Inactive)
REMARK    1  A    between atoms: C_1  and  N_2
REMARK    2  A    between atoms: N_2  and  C_3
REMARK    3  A    between atoms: C_6  and  C_7
REMARK    4  A    between atoms: N_9  and  C_10
REMARK    5  A    between atoms: C_13  and  N_14
REMARK    6  A    between atoms: C_18  and  N_19
REMARK    7  A    between atoms: C_23  and  C_24
REMARK                            x       y       z     vdW  Elec       q    Type
REMARK                         _______ _______ _______ _____ _____    ______ ____
ROOT
ATOM      1  C   UNL     1       0.057  13.242  20.991  0.00  0.00    +0.000 A 
ATOM      2  C   UNL     1       0.996  12.429  20.381  0.00  0.00    +0.000 A 
ATOM      3  N   UNL     1       0.415  11.218  20.157  0.00  0.00    +0.000 N 
ATOM      4  N   UNL     1      -0.914  11.259  20.400  0.00  0.00    +0.000 NA
ATOM      5  C   UNL     1      -1.134  12.450  20.991  0.00  0.00    +0.000 A 
ENDROOT
BRANCH   1  11
ATOM      6  C   UNL     1       0.188  17.236  18.114  0.00  0.00    +0.000 C 
ATOM      7  N   UNL     1       1.441  16.817  18.748  0.00  0.00    +0.000 N 
ATOM      8  C   UNL     1       2.591  16.750  17.853  0.00  0.00    +0.000 C 
ATOM      9  C   UNL     1       1.349  16.018  19.875  0.00  0.00    +0.000 C 
ATOM     10  N   UNL     1       0.224  15.564  20.317  0.00  0.00    +0.000 NA
ATOM     11  C   UNL     1       0.284  14.653  21.469  0.00  0.00    +0.000 C 
ATOM     12  N   UNL     1       1.492  14.683  22.316  0.00  0.00    +0.000 NA
ATOM     13  C   UNL     1       2.523  15.205  21.755  0.00  0.00    +0.000 C 
ATOM     14  N   UNL     1       3.721  15.205  22.387  0.00  0.00    +0.000 N 
ATOM     15  N   UNL     1       2.505  15.769  20.536  0.00  0.00    +0.000 N 
ATOM     16  H   UNL     1       3.602  14.861  23.338  0.00  0.00    +0.000 HD
ATOM     17  H   UNL     1       4.196  16.097  22.395  0.00  0.00    +0.000 HD
ATOM     18  H   UNL     1       3.346  16.210  20.218  0.00  0.00    +0.000 HD
ENDBRANCH   1  11
BRANCH   5  19
ATOM     19  C   UNL     1      -2.478  12.789  21.484  0.00  0.00    +0.000 A 
ATOM     20  C   UNL     1      -3.404  13.467  20.677  0.00  0.00    +0.000 A 
ATOM     21  C   UNL     1      -4.692  13.751  21.134  0.00  0.00    +0.000 A 
ATOM     22  C   UNL     1      -5.064  13.390  22.425  0.00  0.00    +0.000 A 
ATOM     23  C   UNL     1      -4.143  12.748  23.249  0.00  0.00    +0.000 A 
ATOM     24 CL   UNL     1      -4.600  12.319  24.853  0.00  0.00    +0.000 Cl
ATOM     25  C   UNL     1      -2.861  12.445  22.788  0.00  0.00    +0.000 A 
ENDBRANCH   5  19
BRANCH   3  26
ATOM     26  C   UNL     1       1.020  10.031  19.654  0.00  0.00    +0.000 A 
ATOM     27  C   UNL     1       1.383   9.996  18.294  0.00  0.00    +0.000 A 
ATOM     28  C   UNL     1       2.035   8.882  17.753  0.00  0.00    +0.000 A 
ATOM     29  C   UNL     1       2.314   7.774  18.563  0.00  0.00    +0.000 A 
ATOM     30  C   UNL     1       1.939   7.769  19.910  0.00  0.00    +0.000 A 
ATOM     31  C   UNL     1       1.293   8.898  20.440  0.00  0.00    +0.000 A 
BRANCH  29  32
ATOM     32  N   UNL     1       2.992   6.600  17.994  0.00  0.00    +0.000 N 
ATOM     33  O   UNL     1       4.113   6.771  17.499  0.00  0.00    +0.000 OA
ATOM     34  O   UNL     1       2.398   5.516  18.050  0.00  0.00    +0.000 OA
ENDBRANCH  29  32
BRANCH  31  35
ATOM     35  N   UNL     1       0.796   8.752  21.795  0.00  0.00    +0.000 N 
ATOM     36  O   UNL     1       1.501   9.206  22.705  0.00  0.00    +0.000 OA
ATOM     37  O   UNL     1      -0.316   8.226  21.923  0.00  0.00    +0.000 OA
ENDBRANCH  31  35
ENDBRANCH   3  26
TORSDOF 5
ENDMDL
MODEL 3
REMARK VINA RESULT:      -7.6      1.428      1.771
REMARK  Name = 
REMARK  7 active torsions:
REMARK  status: ('A' for Active; 'I' for Inactive)
REMARK    1  A    between atoms: C_1  and  N_2
REMARK    2  A    between atoms: N_2  and  C_3
REMARK    3  A    between atoms: C_6  and  C_7
REMARK    4  A    between atoms: N_9  and  C_10
REMARK    5  A    between atoms: C_13  and  N_14
REMARK    6  A    between atoms: C_18  and  N_19
REMARK    7  A    between atoms: C_23  and  C_24
REMARK                            x       y       z     vdW  Elec       q    Type
REMARK                         _______ _______ _______ _____ _____    ______ ____
ROOT
ATOM      1  C   UNL     1       0.048  11.646  18.683  0.00  0.00    +0.000 A 
ATOM      2  C   UNL     1       1.171  10.898  18.987  0.00  0.00    +0.000 A 
ATOM      3  N   UNL     1       0.905   9.600  18.670  0.00  0.00    +0.000 N 
ATOM      4  N   UNL     1      -0.254   9.491  17.984  0.00  0.00    +0.000 NA
ATOM      5  C   UNL     1      -0.832  10.706  18.060  0.00  0.00    +0.000 A 
ENDROOT
BRANCH   1  11
ATOM      6  C   UNL     1       3.569  15.046  18.140  0.00  0.00    +0.000 C 
ATOM      7  N   UNL     1       3.100  14.769  19.499  0.00  0.00    +0.000 N 
ATOM      8  C   UNL     1       4.156  14.554  20.484  0.00  0.00    +0.000 C 
ATOM      9  C   UNL     1       1.850  14.188  19.637  0.00  0.00    +0.000 C 
ATOM     10  N   UNL     1       1.144  13.807  18.626  0.00  0.00    +0.000 NA
ATOM     11  C   UNL     1      -0.124  13.124  18.922  0.00  0.00    +0.000 C 
ATOM     12  N   UNL     1      -0.726  13.326  20.254  0.00  0.00    +0.000 NA
ATOM     13  C   UNL     1       0.091  13.751  21.149  0.00  0.00    +0.000 C 
ATOM     14  N   UNL     1      -0.311  13.885  22.437  0.00  0.00    +0.000 N 
ATOM     15  N   UNL     1       1.369  14.081  20.899  0.00  0.00    +0.000 N 
ATOM     16  H   UNL     1      -1.314  13.719  22.497  0.00  0.00    +0.000 HD
ATOM     17  H   UNL     1      -0.076  14.769  22.865  0.00  0.00    +0.000 HD
ATOM     18  H   UNL     1       1.903  14.468  21.652  0.00  0.00    +0.000 HD
ENDBRANCH   1  11
BRANCH   5  19
ATOM     19  C   UNL     1      -2.173  10.920  17.494  0.00  0.00    +0.000 A 
ATOM     20  C   UNL     1      -3.189  11.544  18.234  0.00  0.00    +0.000 A 
ATOM     21  C   UNL     1      -4.448  11.781  17.679  0.00  0.00    +0.000 A 
ATOM     22  C   UNL     1      -4.721  11.366  16.380  0.00  0.00    +0.000 A 
ATOM     23  C   UNL     1      -3.733  10.714  15.647  0.00  0.00    +0.000 A 
ATOM     24 CL   UNL     1      -4.082  10.182  14.046  0.00  0.00    +0.000 Cl
ATOM     25  C   UNL     1      -2.468  10.492  16.192  0.00  0.00    +0.000 A 
ENDBRANCH   5  19
BRANCH   3  26
ATOM     26  C   UNL     1       1.713   8.453  18.909  0.00  0.00    +0.000 A 
ATOM     27  C   UNL     1       2.438   7.915  17.829  0.00  0.00    +0.000 A 
ATOM     28  C   UNL     1       3.296   6.824  18.011  0.00  0.00    +0.000 A 
ATOM     29  C   UNL     1       3.423   6.239  19.277  0.00  0.00    +0.000 A 
ATOM     30  C   UNL     1       2.693   6.733  20.362  0.00  0.00    +0.000 A 
ATOM     31  C   UNL     1       1.843   7.834  20.165  0.00  0.00    +0.000 A 
BRANCH  29  32
ATOM     32  N   UNL     1       4.318   5.089  19.468  0.00  0.00    +0.000 N 
ATOM     33  O   UNL     1       3.796   3.987  19.683  0.00  0.00    +0.000 OA
ATOM     34  O   UNL     1       5.536   5.296  19.400  0.00  0.00    +0.000 OA
ENDBRANCH  29  32
BRANCH  31  35
ATOM     35  N   UNL     1       1.006   8.184  21.296  0.00  0.00    +0.000 N 
ATOM     36  O   UNL     1       1.500   8.922  22.156  0.00  0.00    +0.000 OA
ATOM     37  O   UNL     1      -0.153   7.751  21.282  0.00  0.00    +0.000 OA
ENDBRANCH  31  35
ENDBRANCH   3  26
TORSDOF 5
ENDMDL
MODEL 4
REMARK VINA RESULT:      -7.5      0.968      1.392
REMARK  Name = 
REMARK  7 active torsions:
REMARK  status: ('A' for Active; 'I' for Inactive)
REMARK    1  A    between atoms: C_1  and  N_2
REMARK    2  A    between atoms: N_2  and  C_3
REMARK    3  A    between atoms: C_6  and  C_7
REMARK    4  A    between atoms: N_9  and  C_10
REMARK    5  A    between atoms: C_13  and  N_14
REMARK    6  A    between atoms: C_18  and  N_19
REMARK    7  A    between atoms: C_23  and  C_24
REMARK                            x       y       z     vdW  Elec       q    Type
REMARK                         _______ _______ _______ _____ _____    ______ ____
ROOT
ATOM      1  C   UNL     1      -0.205  12.716  19.278  0.00  0.00    +0.000 A 
ATOM      2  C   UNL     1       0.850  11.848  19.066  0.00  0.00    +0.000 A 
ATOM      3  N   UNL     1       0.369  10.577  19.159  0.00  0.00    +0.000 N 
ATOM      4  N   UNL     1      -0.981  10.567  19.215  0.00  0.00    +0.000 NA
ATOM      5  C   UNL     1      -1.344  11.855  19.379  0.00  0.00    +0.000 A 
ENDROOT
BRANCH   1  11
ATOM      6  C   UNL     1       3.527  15.409  17.525  0.00  0.00    +0.000 C 
ATOM      7  N   UNL     1       3.340  15.375  18.978  0.00  0.00    +0.000 N 
ATOM      8  C   UNL     1       4.550  15.111  19.748  0.00  0.00    +0.000 C 
ATOM      9  C   UNL     1       2.086  15.026  19.452  0.00  0.00    +0.000 C 
ATOM     10  N   UNL     1       1.128  14.647  18.674  0.00  0.00    +0.000 NA
ATOM     11  C   UNL     1      -0.121  14.220  19.320  0.00  0.00    +0.000 C 
ATOM     12  N   UNL     1      -0.379  14.675  20.700  0.00  0.00    +0.000 NA
ATOM     13  C   UNL     1       0.666  15.065  21.337  0.00  0.00    +0.000 C 
ATOM     14  N   UNL     1       0.583  15.415  22.643  0.00  0.00    +0.000 N 
ATOM     15  N   UNL     1       1.888  15.151  20.786  0.00  0.00    +0.000 N 
ATOM     16  H   UNL     1      -0.395  15.423  22.929  0.00  0.00    +0.000 HD
ATOM     17  H   UNL     1       1.022  16.294  22.876  0.00  0.00    +0.000 HD
ATOM     18  H   UNL     1       2.623  15.533  21.348  0.00  0.00    +0.000 HD
ENDBRANCH   1  11
BRANCH   5  19
ATOM     19  C   UNL     1      -2.759  12.202  19.578  0.00  0.00    +0.000 A 
ATOM     20  C   UNL     1      -3.189  12.895  20.719  0.00  0.00    +0.000 A 
ATOM     21  C   UNL     1      -4.527  13.258  20.884  0.00  0.00    +0.000 A 
ATOM     22  C   UNL     1      -5.465  12.902  19.922  0.00  0.00    +0.000 A 
ATOM     23  C   UNL     1      -5.058  12.183  18.801  0.00  0.00    +0.000 A 
ATOM     24 CL   UNL     1      -6.225  11.724  17.620  0.00  0.00    +0.000 Cl
ATOM     25  C   UNL     1      -3.718  11.834  18.623  0.00  0.00    +0.000 A 
ENDBRANCH   5  19
BRANCH   3  26
ATOM     26  C   UNL     1       1.099   9.355  19.125  0.00  0.00    +0.000 A 
ATOM     27  C   UNL     1       1.621   8.929  17.888  0.00  0.00    +0.000 A 
ATOM     28  C   UNL     1       2.397   7.767  17.798  0.00  0.00    +0.000 A 
ATOM     29  C   UNL     1       2.644   7.001  18.944  0.00  0.00    +0.000 A 
ATOM     30  C   UNL     1       2.113   7.384  20.180  0.00  0.00    +0.000 A 
ATOM     31  C   UNL     1       1.343   8.557  20.256  0.00  0.00    +0.000 A 
BRANCH  29  32
ATOM     32  N   UNL     1       3.453   5.777  18.850  0.00  0.00    +0.000 N 
ATOM     33  O   UNL     1       4.396   5.652  19.642  0.00  0.00    +0.000 OA
ATOM     34  O   UNL     1       3.136   4.949  17.987  0.00  0.00    +0.000 OA
ENDBRANCH  29  32
BRANCH  31  35
ATOM     35  N   UNL     1       0.701   8.798  21.533  0.00  0.00    +0.000 N 
ATOM     36  O   UNL     1       1.317   9.490  22.352  0.00  0.00    +0.000 OA
ATOM     37  O   UNL     1      -0.435   8.329  21.678  0.00  0.00    +0.000 OA
ENDBRANCH  31  35
ENDBRANCH   3  26
TORSDOF 5
ENDMDL
MODEL 5
REMARK VINA RESULT:      -7.5      1.118      1.412
REMARK  Name = 
REMARK  7 active torsions:
REMARK  status: ('A' for Active; 'I' for Inactive)
REMARK    1  A    between atoms: C_1  and  N_2
REMARK    2  A    between atoms: N_2  and  C_3
REMARK    3  A    between atoms: C_6  and  C_7
REMARK    4  A    between atoms: N_9  and  C_10
REMARK    5  A    between atoms: C_13  and  N_14
REMARK    6  A    between atoms: C_18  and  N_19
REMARK    7  A    between atoms: C_23  and  C_24
REMARK                            x       y       z     vdW  Elec       q    Type
REMARK                         _______ _______ _______ _____ _____    ______ ____
ROOT
ATOM      1  C   UNL     1      -1.072  12.537  19.713  0.00  0.00    +0.000 A 
ATOM      2  C   UNL     1       0.111  11.822  19.764  0.00  0.00    +0.000 A 
ATOM      3  N   UNL     1      -0.133  10.577  19.267  0.00  0.00    +0.000 N 
ATOM      4  N   UNL     1      -1.359  10.505  18.704  0.00  0.00    +0.000 NA
ATOM      5  C   UNL     1      -1.978  11.654  19.043  0.00  0.00    +0.000 A 
ENDROOT
BRANCH   1  11
ATOM      6  C   UNL     1       2.282  16.138  19.553  0.00  0.00    +0.000 C 
ATOM      7  N   UNL     1       1.913  15.614  20.870  0.00  0.00    +0.000 N 
ATOM      8  C   UNL     1       3.039  15.286  21.740  0.00  0.00    +0.000 C 
ATOM      9  C   UNL     1       0.697  14.962  20.980  0.00  0.00    +0.000 C 
ATOM     10  N   UNL     1      -0.060  14.724  19.962  0.00  0.00    +0.000 NA
ATOM     11  C   UNL     1      -1.281  13.943  20.211  0.00  0.00    +0.000 C 
ATOM     12  N   UNL     1      -1.801  13.890  21.590  0.00  0.00    +0.000 NA
ATOM     13  C   UNL     1      -0.942  14.195  22.496  0.00  0.00    +0.000 C 
ATOM     14  N   UNL     1      -1.263  14.092  23.808  0.00  0.00    +0.000 N 
ATOM     15  N   UNL     1       0.304  14.622  22.231  0.00  0.00    +0.000 N 
ATOM     16  H   UNL     1      -2.254  13.872  23.898  0.00  0.00    +0.000 HD
ATOM     17  H   UNL     1      -1.033  14.901  24.367  0.00  0.00    +0.000 HD
ATOM     18  H   UNL     1       0.872  14.901  23.007  0.00  0.00    +0.000 HD
ENDBRANCH   1  11
BRANCH   5  19
ATOM     19  C   UNL     1      -3.385  11.869  18.671  0.00  0.00    +0.000 A 
ATOM     20  C   UNL     1      -3.841  11.632  17.366  0.00  0.00    +0.000 A 
ATOM     21  C   UNL     1      -5.185  11.798  17.027  0.00  0.00    +0.000 A 
ATOM     22  C   UNL     1      -6.091  12.239  17.986  0.00  0.00    +0.000 A 
ATOM     23  C   UNL     1      -5.645  12.512  19.277  0.00  0.00    +0.000 A 
ATOM     24 CL   UNL     1      -6.765  13.076  20.457  0.00  0.00    +0.000 Cl
ATOM     25  C   UNL     1      -4.305  12.328  19.623  0.00  0.00    +0.000 A 
ENDBRANCH   5  19
BRANCH   3  26
ATOM     26  C   UNL     1       0.749   9.460  19.223  0.00  0.00    +0.000 A 
ATOM     27  C   UNL     1       1.342   9.132  17.988  0.00  0.00    +0.000 A 
ATOM     28  C   UNL     1       2.262   8.081  17.890  0.00  0.00    +0.000 A 
ATOM     29  C   UNL     1       2.586   7.328  19.025  0.00  0.00    +0.000 A 
ATOM     30  C   UNL     1       1.991   7.612  20.258  0.00  0.00    +0.000 A 
ATOM     31  C   UNL     1       1.075   8.675  20.342  0.00  0.00    +0.000 A 
BRANCH  29  32
ATOM     32  N   UNL     1       3.547   6.220  18.922  0.00  0.00    +0.000 N 
ATOM     33  O   UNL     1       4.176   6.104  17.862  0.00  0.00    +0.000 OA
ATOM     34  O   UNL     1       3.667   5.477  19.904  0.00  0.00    +0.000 OA
ENDBRANCH  29  32
BRANCH  31  35
ATOM     35  N   UNL     1       0.386   8.803  21.611  0.00  0.00    +0.000 N 
ATOM     36  O   UNL     1      -0.674   8.179  21.742  0.00  0.00    +0.000 OA
ATOM     37  O   UNL     1       0.942   9.490  22.477  0.00  0.00    +0.000 OA
ENDBRANCH  31  35
ENDBRANCH   3  26
TORSDOF 5
ENDMDL
MODEL 6
REMARK VINA RESULT:      -7.5      1.618      1.965
REMARK  Name = 
REMARK  7 active torsions:
REMARK  status: ('A' for Active; 'I' for Inactive)
REMARK    1  A    between atoms: C_1  and  N_2
REMARK    2  A    between atoms: N_2  and  C_3
REMARK    3  A    between atoms: C_6  and  C_7
REMARK    4  A    between atoms: N_9  and  C_10
REMARK    5  A    between atoms: C_13  and  N_14
REMARK    6  A    between atoms: C_18  and  N_19
REMARK    7  A    between atoms: C_23  and  C_24
REMARK                            x       y       z     vdW  Elec       q    Type
REMARK                         _______ _______ _______ _____ _____    ______ ____
ROOT
ATOM      1  C   UNL     1      -0.200  12.926  19.671  0.00  0.00    +0.000 A 
ATOM      2  C   UNL     1       0.747  12.036  19.197  0.00  0.00    +0.000 A 
ATOM      3  N   UNL     1       0.344  10.779  19.536  0.00  0.00    +0.000 N 
ATOM      4  N   UNL     1      -0.915  10.784  20.025  0.00  0.00    +0.000 NA
ATOM      5  C   UNL     1      -1.229  12.083  20.199  0.00  0.00    +0.000 A 
ENDROOT
BRANCH   1  11
ATOM      6  C   UNL     1       3.433  15.478  17.541  0.00  0.00    +0.000 C 
ATOM      7  N   UNL     1       3.296  15.580  18.996  0.00  0.00    +0.000 N 
ATOM      8  C   UNL     1       4.536  15.402  19.745  0.00  0.00    +0.000 C 
ATOM      9  C   UNL     1       2.065  15.265  19.545  0.00  0.00    +0.000 C 
ATOM     10  N   UNL     1       1.086  14.805  18.841  0.00  0.00    +0.000 NA
ATOM     11  C   UNL     1      -0.135  14.427  19.568  0.00  0.00    +0.000 C 
ATOM     12  N   UNL     1      -0.351  15.008  20.908  0.00  0.00    +0.000 NA
ATOM     13  C   UNL     1       0.710  15.466  21.468  0.00  0.00    +0.000 C 
ATOM     14  N   UNL     1       0.667  15.937  22.738  0.00  0.00    +0.000 N 
ATOM     15  N   UNL     1       1.911  15.512  20.868  0.00  0.00    +0.000 N 
ATOM     16  H   UNL     1      -0.300  15.962  23.056  0.00  0.00    +0.000 HD
ATOM     17  H   UNL     1       1.102  16.838  22.871  0.00  0.00    +0.000 HD
ATOM     18  H   UNL     1       2.660  15.953  21.365  0.00  0.00    +0.000 HD
ENDBRANCH   1  11
BRANCH   5  19
ATOM     19  C   UNL     1      -2.512  12.454  20.816  0.00  0.00    +0.000 A 
ATOM     20  C   UNL     1      -3.616  12.834  20.037  0.00  0.00    +0.000 A 
ATOM     21  C   UNL     1      -4.843  13.146  20.624  0.00  0.00    +0.000 A 
ATOM     22  C   UNL     1      -4.976  13.116  22.009  0.00  0.00    +0.000 A 
ATOM     23  C   UNL     1      -3.878  12.775  22.795  0.00  0.00    +0.000 A 
ATOM     24 CL   UNL     1      -4.040  12.758  24.510  0.00  0.00    +0.000 Cl
ATOM     25  C   UNL     1      -2.655  12.444  22.210  0.00  0.00    +0.000 A 
ENDBRANCH   5  19
BRANCH   3  26
ATOM     26  C   UNL     1       1.047   9.554  19.362  0.00  0.00    +0.000 A 
ATOM     27  C   UNL     1       1.510   9.232  18.072  0.00  0.00    +0.000 A 
ATOM     28  C   UNL     1       2.257   8.070  17.845  0.00  0.00    +0.000 A 
ATOM     29  C   UNL     1       2.535   7.200  18.906  0.00  0.00    +0.000 A 
ATOM     30  C   UNL     1       2.063   7.478  20.193  0.00  0.00    +0.000 A 
ATOM     31  C   UNL     1       1.321   8.652  20.406  0.00  0.00    +0.000 A 
BRANCH  29  32
ATOM     32  N   UNL     1       3.313   5.976  18.669  0.00  0.00    +0.000 N 
ATOM     33  O   UNL     1       3.339   5.528  17.514  0.00  0.00    +0.000 OA
ATOM     34  O   UNL     1       3.896   5.474  19.638  0.00  0.00    +0.000 OA
ENDBRANCH  29  32
BRANCH  31  35
ATOM     35  N   UNL     1       0.736   8.788  21.725  0.00  0.00    +0.000 N 
ATOM     36  O   UNL     1       1.367   9.451  22.556  0.00  0.00    +0.000 OA
ATOM     37  O   UNL     1      -0.373   8.267  21.895  0.00  0.00    +0.000 OA
ENDBRANCH  31  35
ENDBRANCH   3  26
TORSDOF 5
ENDMDL
MODEL 7
REMARK VINA RESULT:      -7.4      1.583      2.208
REMARK  Name = 
REMARK  7 active torsions:
REMARK  status: ('A' for Active; 'I' for Inactive)
REMARK    1  A    between atoms: C_1  and  N_2
REMARK    2  A    between atoms: N_2  and  C_3
REMARK    3  A    between atoms: C_6  and  C_7
REMARK    4  A    between atoms: N_9  and  C_10
REMARK    5  A    between atoms: C_13  and  N_14
REMARK    6  A    between atoms: C_18  and  N_19
REMARK    7  A    between atoms: C_23  and  C_24
REMARK                            x       y       z     vdW  Elec       q    Type
REMARK                         _______ _______ _______ _____ _____    ______ ____
ROOT
ATOM      1  C   UNL     1      -0.192  12.778  20.516  0.00  0.00    +0.000 A 
ATOM      2  C   UNL     1       0.876  11.950  20.220  0.00  0.00    +0.000 A 
ATOM      3  N   UNL     1       0.375  10.798  19.693  0.00  0.00    +0.000 N 
ATOM      4  N   UNL     1      -0.947  10.910  19.437  0.00  0.00    +0.000 NA
ATOM      5  C   UNL     1      -1.327  12.069  20.010  0.00  0.00    +0.000 A 
ENDROOT
BRANCH   1  11
ATOM      6  C   UNL     1      -0.481  17.091  18.156  0.00  0.00    +0.000 C 
ATOM      7  N   UNL     1       0.811  16.725  18.743  0.00  0.00    +0.000 N 
ATOM      8  C   UNL     1       1.958  16.886  17.856  0.00  0.00    +0.000 C 
ATOM      9  C   UNL     1       0.806  15.787  19.761  0.00  0.00    +0.000 C 
ATOM     10  N   UNL     1      -0.264  15.170  20.136  0.00  0.00    +0.000 NA
ATOM     11  C   UNL     1      -0.107  14.134  21.166  0.00  0.00    +0.000 C 
ATOM     12  N   UNL     1       1.096  14.182  22.019  0.00  0.00    +0.000 NA
ATOM     13  C   UNL     1       2.066  14.871  21.535  0.00  0.00    +0.000 C 
ATOM     14  N   UNL     1       3.261  14.914  22.172  0.00  0.00    +0.000 N 
ATOM     15  N   UNL     1       1.985  15.576  20.395  0.00  0.00    +0.000 N 
ATOM     16  H   UNL     1       3.182  14.444  23.072  0.00  0.00    +0.000 HD
ATOM     17  H   UNL     1       3.643  15.841  22.294  0.00  0.00    +0.000 HD
ATOM     18  H   UNL     1       2.775  16.136  20.141  0.00  0.00    +0.000 HD
ENDBRANCH   1  11
BRANCH   5  19
ATOM     19  C   UNL     1      -2.745  12.461  20.007  0.00  0.00    +0.000 A 
ATOM     20  C   UNL     1      -3.276  13.293  21.004  0.00  0.00    +0.000 A 
ATOM     21  C   UNL     1      -4.612  13.697  20.975  0.00  0.00    +0.000 A 
ATOM     22  C   UNL     1      -5.450  13.244  19.961  0.00  0.00    +0.000 A 
ATOM     23  C   UNL     1      -4.944  12.390  18.984  0.00  0.00    +0.000 A 
ATOM     24 CL   UNL     1      -5.989  11.815  17.741  0.00  0.00    +0.000 Cl
ATOM     25  C   UNL     1      -3.604  12.000  19.000  0.00  0.00    +0.000 A 
ENDBRANCH   5  19
BRANCH   3  26
ATOM     26  C   UNL     1       1.080   9.611  19.343  0.00  0.00    +0.000 A 
ATOM     27  C   UNL     1       1.526   9.472  18.015  0.00  0.00    +0.000 A 
ATOM     28  C   UNL     1       2.275   8.356  17.622  0.00  0.00    +0.000 A 
ATOM     29  C   UNL     1       2.570   7.350  18.551  0.00  0.00    +0.000 A 
ATOM     30  C   UNL     1       2.115   7.448  19.870  0.00  0.00    +0.000 A 
ATOM     31  C   UNL     1       1.372   8.578  20.250  0.00  0.00    +0.000 A 
BRANCH  29  32
ATOM     32  N   UNL     1       3.350   6.175  18.138  0.00  0.00    +0.000 N 
ATOM     33  O   UNL     1       4.585   6.268  18.167  0.00  0.00    +0.000 OA
ATOM     34  O   UNL     1       2.722   5.167  17.790  0.00  0.00    +0.000 OA
ENDBRANCH  29  32
BRANCH  31  35
ATOM     35  N   UNL     1       0.804   8.528  21.584  0.00  0.00    +0.000 N 
ATOM     36  O   UNL     1       1.487   8.992  22.504  0.00  0.00    +0.000 OA
ATOM     37  O   UNL     1      -0.340   8.067  21.682  0.00  0.00    +0.000 OA
ENDBRANCH  31  35
ENDBRANCH   3  26
TORSDOF 5
ENDMDL
MODEL 8
REMARK VINA RESULT:      -7.3      1.977      2.695
REMARK  Name = 
REMARK  7 active torsions:
REMARK  status: ('A' for Active; 'I' for Inactive)
REMARK    1  A    between atoms: C_1  and  N_2
REMARK    2  A    between atoms: N_2  and  C_3
REMARK    3  A    between atoms: C_6  and  C_7
REMARK    4  A    between atoms: N_9  and  C_10
REMARK    5  A    between atoms: C_13  and  N_14
REMARK    6  A    between atoms: C_18  and  N_19
REMARK    7  A    between atoms: C_23  and  C_24
REMARK                            x       y       z     vdW  Elec       q    Type
REMARK                         _______ _______ _______ _____ _____    ______ ____
ROOT
ATOM      1  C   UNL     1      -0.236  13.169  20.983  0.00  0.00    +0.000 A 
ATOM      2  C   UNL     1       0.764  12.389  20.431  0.00  0.00    +0.000 A 
ATOM      3  N   UNL     1       0.229  11.171  20.139  0.00  0.00    +0.000 N 
ATOM      4  N   UNL     1      -1.115  11.180  20.279  0.00  0.00    +0.000 NA
ATOM      5  C   UNL     1      -1.406  12.353  20.875  0.00  0.00    +0.000 A 
ENDROOT
BRANCH   1  11
ATOM      6  C   UNL     1      -0.403  17.259  18.246  0.00  0.00    +0.000 C 
ATOM      7  N   UNL     1       0.887  16.891  18.836  0.00  0.00    +0.000 N 
ATOM      8  C   UNL     1       2.017  16.920  17.913  0.00  0.00    +0.000 C 
ATOM      9  C   UNL     1       0.868  16.050  19.936  0.00  0.00    +0.000 C 
ATOM     10  N   UNL     1      -0.217  15.518  20.387  0.00  0.00    +0.000 NA
ATOM     11  C   UNL     1      -0.078  14.573  21.505  0.00  0.00    +0.000 C 
ATOM     12  N   UNL     1       1.147  14.645  22.324  0.00  0.00    +0.000 NA
ATOM     13  C   UNL     1       2.133  15.243  21.759  0.00  0.00    +0.000 C 
ATOM     14  N   UNL     1       3.345  15.291  22.363  0.00  0.00    +0.000 N 
ATOM     15  N   UNL     1       2.053  15.846  20.561  0.00  0.00    +0.000 N 
ATOM     16  H   UNL     1       3.268  14.909  23.304  0.00  0.00    +0.000 HD
ATOM     17  H   UNL     1       3.768  16.208  22.392  0.00  0.00    +0.000 HD
ATOM     18  H   UNL     1       2.859  16.345  20.239  0.00  0.00    +0.000 HD
ENDBRANCH   1  11
BRANCH   5  19
ATOM     19  C   UNL     1      -2.791  12.654  21.268  0.00  0.00    +0.000 A 
ATOM     20  C   UNL     1      -3.194  12.621  22.612  0.00  0.00    +0.000 A 
ATOM     21  C   UNL     1      -4.499  12.948  22.986  0.00  0.00    +0.000 A 
ATOM     22  C   UNL     1      -5.434  13.281  22.012  0.00  0.00    +0.000 A 
ATOM     23  C   UNL     1      -5.058  13.284  20.671  0.00  0.00    +0.000 A 
ATOM     24 CL   UNL     1      -6.224  13.677  19.466  0.00  0.00    +0.000 Cl
ATOM     25  C   UNL     1      -3.749  12.976  20.296  0.00  0.00    +0.000 A 
ENDBRANCH   5  19
BRANCH   3  26
ATOM     26  C   UNL     1       0.898  10.008  19.662  0.00  0.00    +0.000 A 
ATOM     27  C   UNL     1       1.324   9.991  18.320  0.00  0.00    +0.000 A 
ATOM     28  C   UNL     1       2.038   8.902  17.806  0.00  0.00    +0.000 A 
ATOM     29  C   UNL     1       2.317   7.801  18.625  0.00  0.00    +0.000 A 
ATOM     30  C   UNL     1       1.880   7.776  19.953  0.00  0.00    +0.000 A 
ATOM     31  C   UNL     1       1.172   8.881  20.456  0.00  0.00    +0.000 A 
BRANCH  29  32
ATOM     32  N   UNL     1       3.060   6.653  18.085  0.00  0.00    +0.000 N 
ATOM     33  O   UNL     1       4.108   6.888  17.468  0.00  0.00    +0.000 OA
ATOM     34  O   UNL     1       2.591   5.525  18.285  0.00  0.00    +0.000 OA
ENDBRANCH  29  32
BRANCH  31  35
ATOM     35  N   UNL     1       0.618   8.712  21.786  0.00  0.00    +0.000 N 
ATOM     36  O   UNL     1       1.253   9.203  22.727  0.00  0.00    +0.000 OA
ATOM     37  O   UNL     1      -0.470   8.129  21.863  0.00  0.00    +0.000 OA
ENDBRANCH  31  35
ENDBRANCH   3  26
TORSDOF 5
ENDMDL
MODEL 9
REMARK VINA RESULT:      -7.3      1.364      1.986
REMARK  Name = 
REMARK  7 active torsions:
REMARK  status: ('A' for Active; 'I' for Inactive)
REMARK    1  A    between atoms: C_1  and  N_2
REMARK    2  A    between atoms: N_2  and  C_3
REMARK    3  A    between atoms: C_6  and  C_7
REMARK    4  A    between atoms: N_9  and  C_10
REMARK    5  A    between atoms: C_13  and  N_14
REMARK    6  A    between atoms: C_18  and  N_19
REMARK    7  A    between atoms: C_23  and  C_24
REMARK                            x       y       z     vdW  Elec       q    Type
REMARK                         _______ _______ _______ _____ _____    ______ ____
ROOT
ATOM      1  C   UNL     1      -0.227  12.957  19.630  0.00  0.00    +0.000 A 
ATOM      2  C   UNL     1       0.735  12.071  19.180  0.00  0.00    +0.000 A 
ATOM      3  N   UNL     1       0.319  10.812  19.492  0.00  0.00    +0.000 N 
ATOM      4  N   UNL     1      -0.957  10.813  19.936  0.00  0.00    +0.000 NA
ATOM      5  C   UNL     1      -1.275  12.111  20.112  0.00  0.00    +0.000 A 
ENDROOT
BRANCH   1  11
ATOM      6  C   UNL     1       3.408  15.523  17.520  0.00  0.00    +0.000 C 
ATOM      7  N   UNL     1       3.277  15.607  18.977  0.00  0.00    +0.000 N 
ATOM      8  C   UNL     1       4.519  15.415  19.718  0.00  0.00    +0.000 C 
ATOM      9  C   UNL     1       2.046  15.289  19.526  0.00  0.00    +0.000 C 
ATOM     10  N   UNL     1       1.063  14.842  18.820  0.00  0.00    +0.000 NA
ATOM     11  C   UNL     1      -0.156  14.460  19.546  0.00  0.00    +0.000 C 
ATOM     12  N   UNL     1      -0.366  15.024  20.894  0.00  0.00    +0.000 NA
ATOM     13  C   UNL     1       0.699  15.472  21.456  0.00  0.00    +0.000 C 
ATOM     14  N   UNL     1       0.662  15.926  22.732  0.00  0.00    +0.000 N 
ATOM     15  N   UNL     1       1.898  15.521  20.853  0.00  0.00    +0.000 N 
ATOM     16  H   UNL     1      -0.303  15.951  23.054  0.00  0.00    +0.000 HD
ATOM     17  H   UNL     1       1.101  16.824  22.875  0.00  0.00    +0.000 HD
ATOM     18  H   UNL     1       2.650  15.952  21.353  0.00  0.00    +0.000 HD
ENDBRANCH   1  11
BRANCH   5  19
ATOM     19  C   UNL     1      -2.579  12.477  20.686  0.00  0.00    +0.000 A 
ATOM     20  C   UNL     1      -2.765  12.577  22.074  0.00  0.00    +0.000 A 
ATOM     21  C   UNL     1      -3.992  12.965  22.614  0.00  0.00    +0.000 A 
ATOM     22  C   UNL     1      -5.067  13.227  21.771  0.00  0.00    +0.000 A 
ATOM     23  C   UNL     1      -4.906  13.098  20.394  0.00  0.00    +0.000 A 
ATOM     24 CL   UNL     1      -6.245  13.405  19.354  0.00  0.00    +0.000 Cl
ATOM     25  C   UNL     1      -3.675  12.729  19.850  0.00  0.00    +0.000 A 
ENDBRANCH   5  19
BRANCH   3  26
ATOM     26  C   UNL     1       1.027   9.587  19.329  0.00  0.00    +0.000 A 
ATOM     27  C   UNL     1       1.494   9.257  18.043  0.00  0.00    +0.000 A 
ATOM     28  C   UNL     1       2.246   8.095  17.828  0.00  0.00    +0.000 A 
ATOM     29  C   UNL     1       2.523   7.234  18.897  0.00  0.00    +0.000 A 
ATOM     30  C   UNL     1       2.046   7.521  20.180  0.00  0.00    +0.000 A 
ATOM     31  C   UNL     1       1.300   8.695  20.381  0.00  0.00    +0.000 A 
BRANCH  29  32
ATOM     32  N   UNL     1       3.306   6.011  18.672  0.00  0.00    +0.000 N 
ATOM     33  O   UNL     1       3.561   5.305  19.656  0.00  0.00    +0.000 OA
ATOM     34  O   UNL     1       3.658   5.765  17.511  0.00  0.00    +0.000 OA
ENDBRANCH  29  32
BRANCH  31  35
ATOM     35  N   UNL     1       0.710   8.839  21.698  0.00  0.00    +0.000 N 
ATOM     36  O   UNL     1      -0.379   8.284  21.891  0.00  0.00    +0.000 OA
ATOM     37  O   UNL     1       1.370   9.467  22.535  0.00  0.00    +0.000 OA
ENDBRANCH  31  35
ENDBRANCH   3  26
TORSDOF 5
ENDMDL
