MODEL 1
REMARK VINA RESULT:      -9.0      0.000      0.000
REMARK  Name = 
REMARK  7 active torsions:
REMARK  status: ('A' for Active; 'I' for Inactive)
REMARK    1  A    between atoms: C_1  and  O_2
REMARK    2  A    between atoms: O_2  and  C_3
REMARK    3  A    between atoms: C_7  and  C_8
REMARK    4  A    between atoms: C_8  and  C_9
REMARK    5  A    between atoms: C_8  and  N_10
REMARK    6  A    between atoms: C_13  and  C_14
REMARK    7  A    between atoms: C_25  and  C_26
REMARK                            x       y       z     vdW  Elec       q    Type
REMARK                         _______ _______ _______ _____ _____    ______ ____
ROOT
ATOM      1  N   UNL     1       0.182  11.060  18.155  0.00  0.00    +0.000 N 
ATOM      2  C   UNL     1       0.736  10.004  18.854  0.00  0.00    +0.000 A 
ATOM      3  C   UNL     1       1.474   9.061  18.154  0.00  0.00    +0.000 A 
ATOM      4  C   UNL     1       2.054   8.028  18.864  0.00  0.00    +0.000 A 
ATOM      5  N   UNL     1       1.903   7.942  20.203  0.00  0.00    +0.000 NA
ATOM      6  C   UNL     1       1.170   8.893  20.805  0.00  0.00    +0.000 A 
ATOM      7  C   UNL     1       1.094   8.861  22.304  0.00  0.00    +0.000 C 
ATOM      8  N   UNL     1       0.559   9.909  20.183  0.00  0.00    +0.000 NA
ATOM      9  H   UNL     1       0.900  11.628  17.719  0.00  0.00    +0.000 HD
ENDROOT
BRANCH   4  10
ATOM     10  C   UNL     1       2.868   6.941  18.268  0.00  0.00    +0.000 A 
ATOM     11  C   UNL     1       2.570   5.604  18.587  0.00  0.00    +0.000 A 
ATOM     12  C   UNL     1       3.277   4.543  18.015  0.00  0.00    +0.000 A 
ATOM     13  C   UNL     1       4.300   4.771  17.121  0.00  0.00    +0.000 A 
ATOM     14  N   UNL     1       4.764   3.753  16.390  0.00  0.00    +0.000 NA
ATOM     15  C   UNL     1       5.780   4.013  15.550  0.00  0.00    +0.000 A 
ATOM     16  C   UNL     1       6.572   5.132  15.631  0.00  0.00    +0.000 A 
ATOM     17  C   UNL     1       5.993   6.228  16.256  0.00  0.00    +0.000 A 
ATOM     18  C   UNL     1       4.766   6.086  16.941  0.00  0.00    +0.000 A 
ATOM     19  C   UNL     1       3.991   7.161  17.447  0.00  0.00    +0.000 A 
ENDBRANCH   4  10
BRANCH   1  20
ATOM     20  C   UNL     1      -0.933  11.839  18.688  0.00  0.00    +0.000 C 
ATOM     21  C   UNL     1      -0.724  13.353  18.671  0.00  0.00    +0.000 C 
BRANCH  20  26
ATOM     22  C   UNL     1      -2.997  10.706  15.669  0.00  0.00    +0.000 A 
ATOM     23  C   UNL     1      -4.299  10.963  16.109  0.00  0.00    +0.000 A 
ATOM     24  C   UNL     1      -4.525  11.479  17.385  0.00  0.00    +0.000 A 
ATOM     25  C   UNL     1      -3.449  11.740  18.231  0.00  0.00    +0.000 A 
ATOM     26  C   UNL     1      -2.133  11.470  17.822  0.00  0.00    +0.000 A 
ATOM     27  C   UNL     1      -1.919  10.947  16.529  0.00  0.00    +0.000 A 
BRANCH  22  29
ATOM     28  C   UNL     1      -4.114   9.904  13.734  0.00  0.00    +0.000 C 
ATOM     29  O   UNL     1      -2.894  10.256  14.378  0.00  0.00    +0.000 OA
ENDBRANCH  22  29
ENDBRANCH  20  26
ENDBRANCH   1  20
TORSDOF 4
ENDMDL
MODEL 2
REMARK VINA RESULT:      -8.9      1.125      1.678
REMARK  Name = 
REMARK  7 active torsions:
REMARK  status: ('A' for Active; 'I' for Inactive)
REMARK    1  A    between atoms: C_1  and  O_2
REMARK    2  A    between atoms: O_2  and  C_3
REMARK    3  A    between atoms: C_7  and  C_8
REMARK    4  A    between atoms: C_8  and  C_9
REMARK    5  A    between atoms: C_8  and  N_10
REMARK    6  A    between atoms: C_13  and  C_14
REMARK    7  A    between atoms: C_25  and  C_26
REMARK                            x       y       z     vdW  Elec       q    Type
REMARK                         _______ _______ _______ _____ _____    ______ ____
ROOT
ATOM      1  N   UNL     1       0.431  11.096  18.066  0.00  0.00    +0.000 N 
ATOM      2  C   UNL     1       0.924  10.000  18.751  0.00  0.00    +0.000 A 
ATOM      3  C   UNL     1       1.641   9.046  18.045  0.00  0.00    +0.000 A 
ATOM      4  C   UNL     1       2.160   7.972  18.742  0.00  0.00    +0.000 A 
ATOM      5  N   UNL     1       1.971   7.858  20.073  0.00  0.00    +0.000 NA
ATOM      6  C   UNL     1       1.261   8.822  20.682  0.00  0.00    +0.000 A 
ATOM      7  C   UNL     1       1.144   8.755  22.177  0.00  0.00    +0.000 C 
ATOM      8  N   UNL     1       0.709   9.879  20.071  0.00  0.00    +0.000 NA
ATOM      9  H   UNL     1       1.184  11.644  17.663  0.00  0.00    +0.000 HD
ENDROOT
BRANCH   4  10
ATOM     10  C   UNL     1       2.945   6.868  18.138  0.00  0.00    +0.000 A 
ATOM     11  C   UNL     1       2.471   5.548  18.244  0.00  0.00    +0.000 A 
ATOM     12  C   UNL     1       3.149   4.480  17.652  0.00  0.00    +0.000 A 
ATOM     13  C   UNL     1       4.316   4.682  16.946  0.00  0.00    +0.000 A 
ATOM     14  N   UNL     1       4.784   3.701  16.169  0.00  0.00    +0.000 NA
ATOM     15  C   UNL     1       5.938   3.929  15.520  0.00  0.00    +0.000 A 
ATOM     16  C   UNL     1       6.814   4.934  15.849  0.00  0.00    +0.000 A 
ATOM     17  C   UNL     1       6.257   6.017  16.516  0.00  0.00    +0.000 A 
ATOM     18  C   UNL     1       4.931   5.946  16.997  0.00  0.00    +0.000 A 
ATOM     19  C   UNL     1       4.197   7.043  17.517  0.00  0.00    +0.000 A 
ENDBRANCH   4  10
BRANCH   1  20
ATOM     20  C   UNL     1      -0.665  11.906  18.591  0.00  0.00    +0.000 C 
ATOM     21  C   UNL     1      -0.512  13.411  18.372  0.00  0.00    +0.000 C 
BRANCH  20  26
ATOM     22  C   UNL     1      -4.353  11.338  17.734  0.00  0.00    +0.000 A 
ATOM     23  C   UNL     1      -4.261  10.352  16.749  0.00  0.00    +0.000 A 
ATOM     24  C   UNL     1      -3.016   9.879  16.335  0.00  0.00    +0.000 A 
ATOM     25  C   UNL     1      -1.852  10.392  16.904  0.00  0.00    +0.000 A 
ATOM     26  C   UNL     1      -1.915  11.400  17.881  0.00  0.00    +0.000 A 
ATOM     27  C   UNL     1      -3.182  11.869  18.289  0.00  0.00    +0.000 A 
BRANCH  22  29
ATOM     28  C   UNL     1      -6.469  10.618  18.533  0.00  0.00    +0.000 C 
ATOM     29  O   UNL     1      -5.628  11.682  18.101  0.00  0.00    +0.000 OA
ENDBRANCH  22  29
ENDBRANCH  20  26
ENDBRANCH   1  20
TORSDOF 4
ENDMDL
MODEL 3
REMARK VINA RESULT:      -8.7      3.640      9.136
REMARK  Name = 
REMARK  7 active torsions:
REMARK  status: ('A' for Active; 'I' for Inactive)
REMARK    1  A    between atoms: C_1  and  O_2
REMARK    2  A    between atoms: O_2  and  C_3
REMARK    3  A    between atoms: C_7  and  C_8
REMARK    4  A    between atoms: C_8  and  C_9
REMARK    5  A    between atoms: C_8  and  N_10
REMARK    6  A    between atoms: C_13  and  C_14
REMARK    7  A    between atoms: C_25  and  C_26
REMARK                            x       y       z     vdW  Elec       q    Type
REMARK                         _______ _______ _______ _____ _____    ______ ____
ROOT
ATOM      1  N   UNL     1       3.840   6.485  17.017  0.00  0.00    +0.000 N 
ATOM      2  C   UNL     1       3.130   6.586  18.200  0.00  0.00    +0.000 A 
ATOM      3  C   UNL     1       2.446   7.763  18.463  0.00  0.00    +0.000 A 
ATOM      4  C   UNL     1       1.712   7.844  19.630  0.00  0.00    +0.000 A 
ATOM      5  N   UNL     1       1.664   6.803  20.488  0.00  0.00    +0.000 NA
ATOM      6  C   UNL     1       2.358   5.700  20.162  0.00  0.00    +0.000 A 
ATOM      7  C   UNL     1       2.217   4.505  21.058  0.00  0.00    +0.000 C 
ATOM      8  N   UNL     1       3.110   5.556  19.062  0.00  0.00    +0.000 NA
ATOM      9  H   UNL     1       3.225   6.563  16.214  0.00  0.00    +0.000 HD
ENDROOT
BRANCH   4  10
ATOM     10  C   UNL     1       0.929   9.028  20.059  0.00  0.00    +0.000 A 
ATOM     11  C   UNL     1       0.861  10.151  19.216  0.00  0.00    +0.000 A 
ATOM     12  C   UNL     1       0.099  11.272  19.555  0.00  0.00    +0.000 A 
ATOM     13  C   UNL     1      -0.610  11.320  20.736  0.00  0.00    +0.000 A 
ATOM     14  N   UNL     1      -1.535  12.270  20.901  0.00  0.00    +0.000 NA
ATOM     15  C   UNL     1      -2.184  12.297  22.078  0.00  0.00    +0.000 A 
ATOM     16  C   UNL     1      -1.743  11.654  23.208  0.00  0.00    +0.000 A 
ATOM     17  C   UNL     1      -0.909  10.566  22.989  0.00  0.00    +0.000 A 
ATOM     18  C   UNL     1      -0.398  10.315  21.697  0.00  0.00    +0.000 A 
ATOM     19  C   UNL     1       0.298   9.139  21.314  0.00  0.00    +0.000 A 
ENDBRANCH   4  10
BRANCH   1  20
ATOM     20  C   UNL     1       4.911   5.508  16.839  0.00  0.00    +0.000 C 
ATOM     21  C   UNL     1       5.313   5.254  15.387  0.00  0.00    +0.000 C 
BRANCH  20  26
ATOM     22  C   UNL     1       7.762   7.828  17.910  0.00  0.00    +0.000 A 
ATOM     23  C   UNL     1       8.403   7.053  18.880  0.00  0.00    +0.000 A 
ATOM     24  C   UNL     1       7.912   5.791  19.215  0.00  0.00    +0.000 A 
ATOM     25  C   UNL     1       6.773   5.296  18.582  0.00  0.00    +0.000 A 
ATOM     26  C   UNL     1       6.097   6.064  17.619  0.00  0.00    +0.000 A 
ATOM     27  C   UNL     1       6.605   7.339  17.291  0.00  0.00    +0.000 A 
BRANCH  22  29
ATOM     28  C   UNL     1       8.922   9.731  18.727  0.00  0.00    +0.000 C 
ATOM     29  O   UNL     1       8.368   9.024  17.623  0.00  0.00    +0.000 OA
ENDBRANCH  22  29
ENDBRANCH  20  26
ENDBRANCH   1  20
TORSDOF 4
ENDMDL
MODEL 4
REMARK VINA RESULT:      -8.6      1.673      2.520
REMARK  Name = 
REMARK  7 active torsions:
REMARK  status: ('A' for Active; 'I' for Inactive)
REMARK    1  A    between atoms: C_1  and  O_2
REMARK    2  A    between atoms: O_2  and  C_3
REMARK    3  A    between atoms: C_7  and  C_8
REMARK    4  A    between atoms: C_8  and  C_9
REMARK    5  A    between atoms: C_8  and  N_10
REMARK    6  A    between atoms: C_13  and  C_14
REMARK    7  A    between atoms: C_25  and  C_26
REMARK                            x       y       z     vdW  Elec       q    Type
REMARK                         _______ _______ _______ _____ _____    ______ ____
ROOT
ATOM      1  N   UNL     1       0.266  11.443  18.892  0.00  0.00    +0.000 N 
ATOM      2  C   UNL     1       0.475  10.394  19.769  0.00  0.00    +0.000 A 
ATOM      3  C   UNL     1       1.169   9.282  19.316  0.00  0.00    +0.000 A 
ATOM      4  C   UNL     1       1.404   8.253  20.207  0.00  0.00    +0.000 A 
ATOM      5  N   UNL     1       0.968   8.332  21.482  0.00  0.00    +0.000 NA
ATOM      6  C   UNL     1       0.301   9.441  21.840  0.00  0.00    +0.000 A 
ATOM      7  C   UNL     1      -0.087   9.579  23.284  0.00  0.00    +0.000 C 
ATOM      8  N   UNL     1       0.015  10.467  21.028  0.00  0.00    +0.000 NA
ATOM      9  H   UNL     1       1.146  11.845  18.586  0.00  0.00    +0.000 HD
ENDROOT
BRANCH   4  10
ATOM     10  C   UNL     1       2.125   6.998  19.882  0.00  0.00    +0.000 A 
ATOM     11  C   UNL     1       2.912   6.937  18.719  0.00  0.00    +0.000 A 
ATOM     12  C   UNL     1       3.647   5.794  18.395  0.00  0.00    +0.000 A 
ATOM     13  C   UNL     1       3.620   4.678  19.203  0.00  0.00    +0.000 A 
ATOM     14  N   UNL     1       4.533   3.720  19.021  0.00  0.00    +0.000 NA
ATOM     15  C   UNL     1       4.454   2.637  19.812  0.00  0.00    +0.000 A 
ATOM     16  C   UNL     1       3.339   2.303  20.542  0.00  0.00    +0.000 A 
ATOM     17  C   UNL     1       2.492   3.357  20.853  0.00  0.00    +0.000 A 
ATOM     18  C   UNL     1       2.685   4.621  20.253  0.00  0.00    +0.000 A 
ATOM     19  C   UNL     1       2.013   5.812  20.634  0.00  0.00    +0.000 A 
ENDBRANCH   4  10
BRANCH   1  20
ATOM     20  C   UNL     1      -0.784  12.435  19.110  0.00  0.00    +0.000 C 
ATOM     21  C   UNL     1      -0.426  13.855  18.676  0.00  0.00    +0.000 C 
BRANCH  20  26
ATOM     22  C   UNL     1      -2.925  11.252  16.164  0.00  0.00    +0.000 A 
ATOM     23  C   UNL     1      -4.194  11.200  16.745  0.00  0.00    +0.000 A 
ATOM     24  C   UNL     1      -4.370  11.521  18.091  0.00  0.00    +0.000 A 
ATOM     25  C   UNL     1      -3.274  11.894  18.866  0.00  0.00    +0.000 A 
ATOM     26  C   UNL     1      -1.983  11.933  18.312  0.00  0.00    +0.000 A 
ATOM     27  C   UNL     1      -1.821  11.605  16.950  0.00  0.00    +0.000 A 
BRANCH  22  29
ATOM     28  C   UNL     1      -3.769   9.958  14.362  0.00  0.00    +0.000 C 
ATOM     29  O   UNL     1      -2.883  10.972  14.822  0.00  0.00    +0.000 OA
ENDBRANCH  22  29
ENDBRANCH  20  26
ENDBRANCH   1  20
TORSDOF 4
ENDMDL
MODEL 5
REMARK VINA RESULT:      -8.6      1.232      1.529
REMARK  Name = 
REMARK  7 active torsions:
REMARK  status: ('A' for Active; 'I' for Inactive)
REMARK    1  A    between atoms: C_1  and  O_2
REMARK    2  A    between atoms: O_2  and  C_3
REMARK    3  A    between atoms: C_7  and  C_8
REMARK    4  A    between atoms: C_8  and  C_9
REMARK    5  A    between atoms: C_8  and  N_10
REMARK    6  A    between atoms: C_13  and  C_14
REMARK    7  A    between atoms: C_25  and  C_26
REMARK                            x       y       z     vdW  Elec       q    Type
REMARK                         _______ _______ _______ _____ _____    ______ ____
ROOT
ATOM      1  N   UNL     1       0.388  11.497  18.901  0.00  0.00    +0.000 N 
ATOM      2  C   UNL     1       0.614  10.405  19.719  0.00  0.00    +0.000 A 
ATOM      3  C   UNL     1       1.274   9.306  19.189  0.00  0.00    +0.000 A 
ATOM      4  C   UNL     1       1.526   8.234  20.021  0.00  0.00    +0.000 A 
ATOM      5  N   UNL     1       1.140   8.258  21.314  0.00  0.00    +0.000 NA
ATOM      6  C   UNL     1       0.503   9.357  21.749  0.00  0.00    +0.000 A 
ATOM      7  C   UNL     1       0.171   9.432  23.211  0.00  0.00    +0.000 C 
ATOM      8  N   UNL     1       0.202  10.425  20.998  0.00  0.00    +0.000 NA
ATOM      9  H   UNL     1       1.261  11.902  18.582  0.00  0.00    +0.000 HD
ENDROOT
BRANCH   4  10
ATOM     10  C   UNL     1       2.216   6.986  19.611  0.00  0.00    +0.000 A 
ATOM     11  C   UNL     1       2.226   5.886  20.487  0.00  0.00    +0.000 A 
ATOM     12  C   UNL     1       2.821   4.674  20.128  0.00  0.00    +0.000 A 
ATOM     13  C   UNL     1       3.428   4.515  18.901  0.00  0.00    +0.000 A 
ATOM     14  N   UNL     1       3.736   3.284  18.481  0.00  0.00    +0.000 NA
ATOM     15  C   UNL     1       4.352   3.178  17.291  0.00  0.00    +0.000 A 
ATOM     16  C   UNL     1       4.967   4.225  16.652  0.00  0.00    +0.000 A 
ATOM     17  C   UNL     1       4.506   5.489  16.996  0.00  0.00    +0.000 A 
ATOM     18  C   UNL     1       3.625   5.647  18.089  0.00  0.00    +0.000 A 
ATOM     19  C   UNL     1       2.941   6.848  18.412  0.00  0.00    +0.000 A 
ENDBRANCH   4  10
BRANCH   1  20
ATOM     20  C   UNL     1      -0.639  12.491  19.205  0.00  0.00    +0.000 C 
ATOM     21  C   UNL     1      -0.418  13.859  18.561  0.00  0.00    +0.000 C 
BRANCH  20  26
ATOM     22  C   UNL     1      -3.119  10.530  17.046  0.00  0.00    +0.000 A 
ATOM     23  C   UNL     1      -4.339  10.901  17.617  0.00  0.00    +0.000 A 
ATOM     24  C   UNL     1      -4.375  11.764  18.712  0.00  0.00    +0.000 A 
ATOM     25  C   UNL     1      -3.187  12.260  19.246  0.00  0.00    +0.000 A 
ATOM     26  C   UNL     1      -1.946  11.885  18.706  0.00  0.00    +0.000 A 
ATOM     27  C   UNL     1      -1.926  11.011  17.598  0.00  0.00    +0.000 A 
BRANCH  22  29
ATOM     28  C   UNL     1      -3.195  10.384  14.678  0.00  0.00    +0.000 C 
ATOM     29  O   UNL     1      -3.211   9.725  15.940  0.00  0.00    +0.000 OA
ENDBRANCH  22  29
ENDBRANCH  20  26
ENDBRANCH   1  20
TORSDOF 4
ENDMDL
MODEL 6
REMARK VINA RESULT:      -8.5      1.179      1.960
REMARK  Name = 
REMARK  7 active torsions:
REMARK  status: ('A' for Active; 'I' for Inactive)
REMARK    1  A    between atoms: C_1  and  O_2
REMARK    2  A    between atoms: O_2  and  C_3
REMARK    3  A    between atoms: C_7  and  C_8
REMARK    4  A    between atoms: C_8  and  C_9
REMARK    5  A    between atoms: C_8  and  N_10
REMARK    6  A    between atoms: C_13  and  C_14
REMARK    7  A    between atoms: C_25  and  C_26
REMARK                            x       y       z     vdW  Elec       q    Type
REMARK                         _______ _______ _______ _____ _____    ______ ____
ROOT
ATOM      1  N   UNL     1       0.568  11.602  18.459  0.00  0.00    +0.000 N 
ATOM      2  C   UNL     1       0.884  10.457  19.165  0.00  0.00    +0.000 A 
ATOM      3  C   UNL     1       1.463   9.397  18.483  0.00  0.00    +0.000 A 
ATOM      4  C   UNL     1       1.809   8.269  19.201  0.00  0.00    +0.000 A 
ATOM      5  N   UNL     1       1.586   8.204  20.531  0.00  0.00    +0.000 NA
ATOM      6  C   UNL     1       1.018   9.271  21.116  0.00  0.00    +0.000 A 
ATOM      7  C   UNL     1       0.871   9.244  22.610  0.00  0.00    +0.000 C 
ATOM      8  N   UNL     1       0.635  10.388  20.483  0.00  0.00    +0.000 NA
ATOM      9  H   UNL     1       1.398  12.028  18.061  0.00  0.00    +0.000 HD
ENDROOT
BRANCH   4  10
ATOM     10  C   UNL     1       2.431   7.053  18.624  0.00  0.00    +0.000 A 
ATOM     11  C   UNL     1       3.567   7.183  17.806  0.00  0.00    +0.000 A 
ATOM     12  C   UNL     1       4.217   6.065  17.277  0.00  0.00    +0.000 A 
ATOM     13  C   UNL     1       3.761   4.790  17.534  0.00  0.00    +0.000 A 
ATOM     14  N   UNL     1       4.549   3.748  17.253  0.00  0.00    +0.000 NA
ATOM     15  C   UNL     1       4.055   2.522  17.493  0.00  0.00    +0.000 A 
ATOM     16  C   UNL     1       2.721   2.259  17.684  0.00  0.00    +0.000 A 
ATOM     17  C   UNL     1       1.961   3.329  18.135  0.00  0.00    +0.000 A 
ATOM     18  C   UNL     1       2.514   4.628  18.166  0.00  0.00    +0.000 A 
ATOM     19  C   UNL     1       1.908   5.754  18.780  0.00  0.00    +0.000 A 
ENDBRANCH   4  10
BRANCH   1  20
ATOM     20  C   UNL     1      -0.405  12.573  18.955  0.00  0.00    +0.000 C 
ATOM     21  C   UNL     1      -0.164  14.012  18.502  0.00  0.00    +0.000 C 
BRANCH  20  26
ATOM     22  C   UNL     1      -3.158  11.410  16.561  0.00  0.00    +0.000 A 
ATOM     23  C   UNL     1      -4.268  11.378  17.409  0.00  0.00    +0.000 A 
ATOM     24  C   UNL     1      -4.139  11.706  18.758  0.00  0.00    +0.000 A 
ATOM     25  C   UNL     1      -2.894  12.067  19.270  0.00  0.00    +0.000 A 
ATOM     26  C   UNL     1      -1.757  12.085  18.445  0.00  0.00    +0.000 A 
ATOM     27  C   UNL     1      -1.904  11.750  17.082  0.00  0.00    +0.000 A 
BRANCH  22  29
ATOM     28  C   UNL     1      -3.020   9.836  14.790  0.00  0.00    +0.000 C 
ATOM     29  O   UNL     1      -3.417  11.125  15.246  0.00  0.00    +0.000 OA
ENDBRANCH  22  29
ENDBRANCH  20  26
ENDBRANCH   1  20
TORSDOF 4
ENDMDL
MODEL 7
REMARK VINA RESULT:      -8.5      1.998      3.008
REMARK  Name = 
REMARK  7 active torsions:
REMARK  status: ('A' for Active; 'I' for Inactive)
REMARK    1  A    between atoms: C_1  and  O_2
REMARK    2  A    between atoms: O_2  and  C_3
REMARK    3  A    between atoms: C_7  and  C_8
REMARK    4  A    between atoms: C_8  and  C_9
REMARK    5  A    between atoms: C_8  and  N_10
REMARK    6  A    between atoms: C_13  and  C_14
REMARK    7  A    between atoms: C_25  and  C_26
REMARK                            x       y       z     vdW  Elec       q    Type
REMARK                         _______ _______ _______ _____ _____    ______ ____
ROOT
ATOM      1  N   UNL     1       0.276  11.441  18.749  0.00  0.00    +0.000 N 
ATOM      2  C   UNL     1       0.481  10.405  19.642  0.00  0.00    +0.000 A 
ATOM      3  C   UNL     1       1.168   9.282  19.207  0.00  0.00    +0.000 A 
ATOM      4  C   UNL     1       1.399   8.266  20.114  0.00  0.00    +0.000 A 
ATOM      5  N   UNL     1       0.966   8.368  21.388  0.00  0.00    +0.000 NA
ATOM      6  C   UNL     1       0.305   9.487  21.729  0.00  0.00    +0.000 A 
ATOM      7  C   UNL     1      -0.080   9.651  23.171  0.00  0.00    +0.000 C 
ATOM      8  N   UNL     1       0.023  10.502  20.901  0.00  0.00    +0.000 NA
ATOM      9  H   UNL     1       1.157  11.833  18.435  0.00  0.00    +0.000 HD
ENDROOT
BRANCH   4  10
ATOM     10  C   UNL     1       2.113   7.002  19.809  0.00  0.00    +0.000 A 
ATOM     11  C   UNL     1       2.880   6.911  18.635  0.00  0.00    +0.000 A 
ATOM     12  C   UNL     1       3.608   5.759  18.328  0.00  0.00    +0.000 A 
ATOM     13  C   UNL     1       3.593   4.663  19.164  0.00  0.00    +0.000 A 
ATOM     14  N   UNL     1       4.502   3.699  18.990  0.00  0.00    +0.000 NA
ATOM     15  C   UNL     1       4.434   2.637  19.810  0.00  0.00    +0.000 A 
ATOM     16  C   UNL     1       3.331   2.323  20.565  0.00  0.00    +0.000 A 
ATOM     17  C   UNL     1       2.491   3.387  20.865  0.00  0.00    +0.000 A 
ATOM     18  C   UNL     1       2.676   4.635  20.230  0.00  0.00    +0.000 A 
ATOM     19  C   UNL     1       2.011   5.835  20.592  0.00  0.00    +0.000 A 
ENDBRANCH   4  10
BRANCH   1  20
ATOM     20  C   UNL     1      -0.769  12.441  18.952  0.00  0.00    +0.000 C 
ATOM     21  C   UNL     1      -0.425  13.840  18.443  0.00  0.00    +0.000 C 
BRANCH  20  26
ATOM     22  C   UNL     1      -4.359  11.308  18.253  0.00  0.00    +0.000 A 
ATOM     23  C   UNL     1      -4.229  10.740  16.983  0.00  0.00    +0.000 A 
ATOM     24  C   UNL     1      -2.996  10.737  16.332  0.00  0.00    +0.000 A 
ATOM     25  C   UNL     1      -1.882  11.305  16.947  0.00  0.00    +0.000 A 
ATOM     26  C   UNL     1      -1.990  11.903  18.214  0.00  0.00    +0.000 A 
ATOM     27  C   UNL     1      -3.244  11.899  18.860  0.00  0.00    +0.000 A 
BRANCH  22  29
ATOM     28  C   UNL     1      -6.696  11.656  18.027  0.00  0.00    +0.000 C 
ATOM     29  O   UNL     1      -5.603  11.201  18.818  0.00  0.00    +0.000 OA
ENDBRANCH  22  29
ENDBRANCH  20  26
ENDBRANCH   1  20
TORSDOF 4
ENDMDL
MODEL 8
REMARK VINA RESULT:      -8.5      1.535      2.519
REMARK  Name = 
REMARK  7 active torsions:
REMARK  status: ('A' for Active; 'I' for Inactive)
REMARK    1  A    between atoms: C_1  and  O_2
REMARK    2  A    between atoms: O_2  and  C_3
REMARK    3  A    between atoms: C_7  and  C_8
REMARK    4  A    between atoms: C_8  and  C_9
REMARK    5  A    between atoms: C_8  and  N_10
REMARK    6  A    between atoms: C_13  and  C_14
REMARK    7  A    between atoms: C_25  and  C_26
REMARK                            x       y       z     vdW  Elec       q    Type
REMARK                         _______ _______ _______ _____ _____    ______ ____
ROOT
ATOM      1  N   UNL     1       0.291  11.343  18.268  0.00  0.00    +0.000 N 
ATOM      2  C   UNL     1       0.720  10.259  19.013  0.00  0.00    +0.000 A 
ATOM      3  C   UNL     1       1.321   9.198  18.352  0.00  0.00    +0.000 A 
ATOM      4  C   UNL     1       1.777   8.135  19.106  0.00  0.00    +0.000 A 
ATOM      5  N   UNL     1       1.640   8.132  20.449  0.00  0.00    +0.000 NA
ATOM      6  C   UNL     1       1.044   9.196  21.011  0.00  0.00    +0.000 A 
ATOM      7  C   UNL     1       0.990   9.246  22.511  0.00  0.00    +0.000 C 
ATOM      8  N   UNL     1       0.555  10.251  20.346  0.00  0.00    +0.000 NA
ATOM      9  H   UNL     1       1.068  11.793  17.796  0.00  0.00    +0.000 HD
ENDROOT
BRANCH   4  10
ATOM     10  C   UNL     1       2.437   6.926  18.555  0.00  0.00    +0.000 A 
ATOM     11  C   UNL     1       3.590   7.071  17.764  0.00  0.00    +0.000 A 
ATOM     12  C   UNL     1       4.275   5.961  17.262  0.00  0.00    +0.000 A 
ATOM     13  C   UNL     1       3.837   4.680  17.519  0.00  0.00    +0.000 A 
ATOM     14  N   UNL     1       4.652   3.651  17.267  0.00  0.00    +0.000 NA
ATOM     15  C   UNL     1       4.176   2.418  17.507  0.00  0.00    +0.000 A 
ATOM     16  C   UNL     1       2.843   2.130  17.667  0.00  0.00    +0.000 A 
ATOM     17  C   UNL     1       2.051   3.189  18.090  0.00  0.00    +0.000 A 
ATOM     18  C   UNL     1       2.579   4.499  18.122  0.00  0.00    +0.000 A 
ATOM     19  C   UNL     1       1.936   5.619  18.711  0.00  0.00    +0.000 A 
ENDBRANCH   4  10
BRANCH   1  20
ATOM     20  C   UNL     1      -0.707  12.281  18.774  0.00  0.00    +0.000 C 
ATOM     21  C   UNL     1      -0.411  13.752  18.481  0.00  0.00    +0.000 C 
BRANCH  20  26
ATOM     22  C   UNL     1      -4.416  11.455  18.306  0.00  0.00    +0.000 A 
ATOM     23  C   UNL     1      -4.425  10.938  17.008  0.00  0.00    +0.000 A 
ATOM     24  C   UNL     1      -3.247  10.872  16.265  0.00  0.00    +0.000 A 
ATOM     25  C   UNL     1      -2.050  11.326  16.816  0.00  0.00    +0.000 A 
ATOM     26  C   UNL     1      -2.017  11.872  18.110  0.00  0.00    +0.000 A 
ATOM     27  C   UNL     1      -3.218  11.932  18.850  0.00  0.00    +0.000 A 
BRANCH  22  29
ATOM     28  C   UNL     1      -6.769  11.747  18.186  0.00  0.00    +0.000 C 
ATOM     29  O   UNL     1      -5.621  11.416  18.960  0.00  0.00    +0.000 OA
ENDBRANCH  22  29
ENDBRANCH  20  26
ENDBRANCH   1  20
TORSDOF 4
ENDMDL
MODEL 9
REMARK VINA RESULT:      -8.4      3.497      9.042
REMARK  Name = 
REMARK  7 active torsions:
REMARK  status: ('A' for Active; 'I' for Inactive)
REMARK    1  A    between atoms: C_1  and  O_2
REMARK    2  A    between atoms: O_2  and  C_3
REMARK    3  A    between atoms: C_7  and  C_8
REMARK    4  A    between atoms: C_8  and  C_9
REMARK    5  A    between atoms: C_8  and  N_10
REMARK    6  A    between atoms: C_13  and  C_14
REMARK    7  A    between atoms: C_25  and  C_26
REMARK                            x       y       z     vdW  Elec       q    Type
REMARK                         _______ _______ _______ _____ _____    ______ ____
ROOT
ATOM      1  N   UNL     1       3.766   6.622  17.183  0.00  0.00    +0.000 N 
ATOM      2  C   UNL     1       3.096   6.575  18.392  0.00  0.00    +0.000 A 
ATOM      3  C   UNL     1       2.413   7.707  18.814  0.00  0.00    +0.000 A 
ATOM      4  C   UNL     1       1.718   7.642  20.005  0.00  0.00    +0.000 A 
ATOM      5  N   UNL     1       1.706   6.507  20.736  0.00  0.00    +0.000 NA
ATOM      6  C   UNL     1       2.396   5.458  20.260  0.00  0.00    +0.000 A 
ATOM      7  C   UNL     1       2.294   4.163  21.014  0.00  0.00    +0.000 C 
ATOM      8  N   UNL     1       3.111   5.452  19.128  0.00  0.00    +0.000 NA
ATOM      9  H   UNL     1       3.124   6.787  16.415  0.00  0.00    +0.000 HD
ENDROOT
BRANCH   4  10
ATOM     10  C   UNL     1       0.942   8.759  20.597  0.00  0.00    +0.000 A 
ATOM     11  C   UNL     1       0.738   8.795  21.987  0.00  0.00    +0.000 A 
ATOM     12  C   UNL     1       0.055   9.851  22.597  0.00  0.00    +0.000 A 
ATOM     13  C   UNL     1      -0.452  10.894  21.853  0.00  0.00    +0.000 A 
ATOM     14  N   UNL     1      -0.848  12.007  22.478  0.00  0.00    +0.000 NA
ATOM     15  C   UNL     1      -1.362  12.988  21.717  0.00  0.00    +0.000 A 
ATOM     16  C   UNL     1      -1.805  12.806  20.430  0.00  0.00    +0.000 A 
ATOM     17  C   UNL     1      -1.247  11.730  19.754  0.00  0.00    +0.000 A 
ATOM     18  C   UNL     1      -0.457  10.789  20.450  0.00  0.00    +0.000 A 
ATOM     19  C   UNL     1       0.316   9.768  19.838  0.00  0.00    +0.000 A 
ENDBRANCH   4  10
BRANCH   1  20
ATOM     20  C   UNL     1       4.837   5.684  16.856  0.00  0.00    +0.000 C 
ATOM     21  C   UNL     1       5.165   5.578  15.368  0.00  0.00    +0.000 C 
BRANCH  20  26
ATOM     22  C   UNL     1       7.782   7.884  17.928  0.00  0.00    +0.000 A 
ATOM     23  C   UNL     1       8.417   7.063  18.862  0.00  0.00    +0.000 A 
ATOM     24  C   UNL     1       7.894   5.808  19.174  0.00  0.00    +0.000 A 
ATOM     25  C   UNL     1       6.727   5.366  18.552  0.00  0.00    +0.000 A 
ATOM     26  C   UNL     1       6.056   6.182  17.625  0.00  0.00    +0.000 A 
ATOM     27  C   UNL     1       6.597   7.449  17.321  0.00  0.00    +0.000 A 
BRANCH  22  29
ATOM     28  C   UNL     1       8.927   9.778  18.784  0.00  0.00    +0.000 C 
ATOM     29  O   UNL     1       8.418   9.068  17.660  0.00  0.00    +0.000 OA
ENDBRANCH  22  29
ENDBRANCH  20  26
ENDBRANCH   1  20
TORSDOF 4
ENDMDL
