MODEL 1
REMARK VINA RESULT:      -7.8      0.000      0.000
REMARK  Name = 
REMARK  7 active torsions:
REMARK  status: ('A' for Active; 'I' for Inactive)
REMARK    1  A    between atoms: C_1  and  C_2
REMARK    2  A    between atoms: C_2  and  C_4
REMARK    3  A    between atoms: C_7  and  O_8
REMARK    4  A    between atoms: O_8  and  C_9
REMARK    5  A    between atoms: C_9  and  C_10
REMARK    6  A    between atoms: N_12  and  C_13
REMARK    7  A    between atoms: C_18  and  N_19
REMARK                            x       y       z     vdW  Elec       q    Type
REMARK                         _______ _______ _______ _____ _____    ______ ____
ROOT
ATOM      1  C   UNL     1       7.649   7.480  17.754  0.00  0.00    +0.000 C 
ATOM      2  O   UNL     1       8.087   6.614  18.510  0.00  0.00    +0.000 OA
ATOM      3  N   UNL     1       6.784   7.257  16.700  0.00  0.00    +0.000 N 
ATOM      4  H   UNL     1       6.809   7.927  15.935  0.00  0.00    +0.000 HD
ENDROOT
BRANCH   3   5
ATOM      5  C   UNL     1       6.235   6.000  16.380  0.00  0.00    +0.000 A 
ATOM      6  C   UNL     1       6.819   5.228  15.367  0.00  0.00    +0.000 A 
ATOM      7  C   UNL     1       6.345   3.948  15.100  0.00  0.00    +0.000 A 
ATOM      8  C   UNL     1       5.278   3.448  15.834  0.00  0.00    +0.000 A 
ATOM      9  C   UNL     1       4.683   4.223  16.839  0.00  0.00    +0.000 A 
ATOM     10  C   UNL     1       5.144   5.514  17.149  0.00  0.00    +0.000 A 
BRANCH  10  11
ATOM     11  N   UNL     1       4.528   6.343  18.111  0.00  0.00    +0.000 N 
ATOM     12  C   UNL     1       3.971   5.775  19.350  0.00  0.00    +0.000 C 
ATOM     13  C   UNL     1       2.480   6.090  19.301  0.00  0.00    +0.000 C 
ATOM     14  C   UNL     1       2.437   7.415  18.566  0.00  0.00    +0.000 C 
ATOM     15  C   UNL     1       3.535   7.273  17.518  0.00  0.00    +0.000 C 
ENDBRANCH  10  11
ENDBRANCH   3   5
BRANCH   1  16
ATOM     16  C   UNL     1       8.029   8.946  17.943  0.00  0.00    +0.000 C 
BRANCH  16  17
ATOM     17  O   UNL     1       8.951   9.100  19.016  0.00  0.00    +0.000 OA
BRANCH  17  21
ATOM     18  C   UNL     1      10.192  13.047  19.490  0.00  0.00    +0.000 A 
ATOM     19  C   UNL     1      10.079  12.448  18.233  0.00  0.00    +0.000 A 
ATOM     20  C   UNL     1       9.664  11.120  18.124  0.00  0.00    +0.000 A 
ATOM     21  C   UNL     1       9.374  10.372  19.269  0.00  0.00    +0.000 A 
ATOM     22  C   UNL     1       9.481  10.966  20.526  0.00  0.00    +0.000 A 
ATOM     23  C   UNL     1       9.888  12.301  20.637  0.00  0.00    +0.000 A 
BRANCH  18  25
ATOM     24  C   UNL     1      10.645  15.072  21.028  0.00  0.00    +0.000 C 
ATOM     25  C   UNL     1      10.613  14.471  19.647  0.00  0.00    +0.000 C 
ATOM     26  O   UNL     1      10.937  15.127  18.659  0.00  0.00    +0.000 OA
ENDBRANCH  18  25
ENDBRANCH  17  21
ENDBRANCH  16  17
ENDBRANCH   1  16
TORSDOF 6
ENDMDL
MODEL 2
REMARK VINA RESULT:      -7.8      0.377      1.033
REMARK  Name = 
REMARK  7 active torsions:
REMARK  status: ('A' for Active; 'I' for Inactive)
REMARK    1  A    between atoms: C_1  and  C_2
REMARK    2  A    between atoms: C_2  and  C_4
REMARK    3  A    between atoms: C_7  and  O_8
REMARK    4  A    between atoms: O_8  and  C_9
REMARK    5  A    between atoms: C_9  and  C_10
REMARK    6  A    between atoms: N_12  and  C_13
REMARK    7  A    between atoms: C_18  and  N_19
REMARK                            x       y       z     vdW  Elec       q    Type
REMARK                         _______ _______ _______ _____ _____    ______ ____
ROOT
ATOM      1  C   UNL     1       7.656   7.510  17.746  0.00  0.00    +0.000 C 
ATOM      2  O   UNL     1       8.105   6.658  18.511  0.00  0.00    +0.000 OA
ATOM      3  N   UNL     1       6.787   7.267  16.699  0.00  0.00    +0.000 N 
ATOM      4  H   UNL     1       6.802   7.927  15.925  0.00  0.00    +0.000 HD
ENDROOT
BRANCH   3   5
ATOM      5  C   UNL     1       6.246   6.001  16.399  0.00  0.00    +0.000 A 
ATOM      6  C   UNL     1       6.833   5.219  15.394  0.00  0.00    +0.000 A 
ATOM      7  C   UNL     1       6.368   3.932  15.147  0.00  0.00    +0.000 A 
ATOM      8  C   UNL     1       5.307   3.435  15.892  0.00  0.00    +0.000 A 
ATOM      9  C   UNL     1       4.709   4.220  16.888  0.00  0.00    +0.000 A 
ATOM     10  C   UNL     1       5.161   5.518  17.178  0.00  0.00    +0.000 A 
BRANCH  10  11
ATOM     11  N   UNL     1       4.542   6.356  18.131  0.00  0.00    +0.000 N 
ATOM     12  C   UNL     1       3.978   5.799  19.371  0.00  0.00    +0.000 C 
ATOM     13  C   UNL     1       2.488   6.116  19.312  0.00  0.00    +0.000 C 
ATOM     14  C   UNL     1       2.452   7.436  18.567  0.00  0.00    +0.000 C 
ATOM     15  C   UNL     1       3.554   7.283  17.525  0.00  0.00    +0.000 C 
ENDBRANCH  10  11
ENDBRANCH   3   5
BRANCH   1  16
ATOM     16  C   UNL     1       8.024   8.982  17.913  0.00  0.00    +0.000 C 
BRANCH  16  17
ATOM     17  O   UNL     1       8.879   9.169  19.035  0.00  0.00    +0.000 OA
BRANCH  17  21
ATOM     18  C   UNL     1      10.544  12.909  19.801  0.00  0.00    +0.000 A 
ATOM     19  C   UNL     1      10.081  12.077  20.823  0.00  0.00    +0.000 A 
ATOM     20  C   UNL     1       9.526  10.834  20.517  0.00  0.00    +0.000 A 
ATOM     21  C   UNL     1       9.410  10.417  19.188  0.00  0.00    +0.000 A 
ATOM     22  C   UNL     1       9.875  11.241  18.164  0.00  0.00    +0.000 A 
ATOM     23  C   UNL     1      10.441  12.485  18.468  0.00  0.00    +0.000 A 
BRANCH  18  25
ATOM     24  C   UNL     1      10.584  15.085  21.191  0.00  0.00    +0.000 C 
ATOM     25  C   UNL     1      11.162  14.238  20.089  0.00  0.00    +0.000 C 
ATOM     26  O   UNL     1      12.133  14.616  19.437  0.00  0.00    +0.000 OA
ENDBRANCH  18  25
ENDBRANCH  17  21
ENDBRANCH  16  17
ENDBRANCH   1  16
TORSDOF 6
ENDMDL
MODEL 3
REMARK VINA RESULT:      -7.8      5.441      8.493
REMARK  Name = 
REMARK  7 active torsions:
REMARK  status: ('A' for Active; 'I' for Inactive)
REMARK    1  A    between atoms: C_1  and  C_2
REMARK    2  A    between atoms: C_2  and  C_4
REMARK    3  A    between atoms: C_7  and  O_8
REMARK    4  A    between atoms: O_8  and  C_9
REMARK    5  A    between atoms: C_9  and  C_10
REMARK    6  A    between atoms: N_12  and  C_13
REMARK    7  A    between atoms: C_18  and  N_19
REMARK                            x       y       z     vdW  Elec       q    Type
REMARK                         _______ _______ _______ _____ _____    ______ ____
ROOT
ATOM      1  C   UNL     1       2.410   7.237  18.629  0.00  0.00    +0.000 C 
ATOM      2  O   UNL     1       2.459   7.044  19.843  0.00  0.00    +0.000 OA
ATOM      3  N   UNL     1       2.542   6.262  17.659  0.00  0.00    +0.000 N 
ATOM      4  H   UNL     1       2.880   6.562  16.748  0.00  0.00    +0.000 HD
ENDROOT
BRANCH   3   5
ATOM      5  C   UNL     1       2.693   4.889  17.934  0.00  0.00    +0.000 A 
ATOM      6  C   UNL     1       1.556   4.085  18.088  0.00  0.00    +0.000 A 
ATOM      7  C   UNL     1       1.688   2.712  18.269  0.00  0.00    +0.000 A 
ATOM      8  C   UNL     1       2.955   2.148  18.314  0.00  0.00    +0.000 A 
ATOM      9  C   UNL     1       4.096   2.952  18.174  0.00  0.00    +0.000 A 
ATOM     10  C   UNL     1       4.002   4.339  17.973  0.00  0.00    +0.000 A 
BRANCH  10  11
ATOM     11  N   UNL     1       5.130   5.185  17.890  0.00  0.00    +0.000 N 
ATOM     12  C   UNL     1       6.115   5.024  16.807  0.00  0.00    +0.000 C 
ATOM     13  C   UNL     1       7.426   4.681  17.506  0.00  0.00    +0.000 C 
ATOM     14  C   UNL     1       7.323   5.441  18.813  0.00  0.00    +0.000 C 
ATOM     15  C   UNL     1       5.850   5.310  19.182  0.00  0.00    +0.000 C 
ENDBRANCH  10  11
ENDBRANCH   3   5
BRANCH   1  16
ATOM     16  C   UNL     1       2.168   8.637  18.070  0.00  0.00    +0.000 C 
BRANCH  16  17
ATOM     17  O   UNL     1       1.573   9.481  19.049  0.00  0.00    +0.000 OA
BRANCH  17  21
ATOM     18  C   UNL     1      -2.260  11.002  18.466  0.00  0.00    +0.000 A 
ATOM     19  C   UNL     1      -1.507  11.295  19.606  0.00  0.00    +0.000 A 
ATOM     20  C   UNL     1      -0.229  10.758  19.760  0.00  0.00    +0.000 A 
ATOM     21  C   UNL     1       0.304   9.908  18.786  0.00  0.00    +0.000 A 
ATOM     22  C   UNL     1      -0.441   9.615  17.644  0.00  0.00    +0.000 A 
ATOM     23  C   UNL     1      -1.719  10.160  17.484  0.00  0.00    +0.000 A 
BRANCH  18  25
ATOM     24  C   UNL     1      -4.296  11.376  16.923  0.00  0.00    +0.000 C 
ATOM     25  C   UNL     1      -3.623  11.573  18.256  0.00  0.00    +0.000 C 
ATOM     26  O   UNL     1      -4.180  12.183  19.166  0.00  0.00    +0.000 OA
ENDBRANCH  18  25
ENDBRANCH  17  21
ENDBRANCH  16  17
ENDBRANCH   1  16
TORSDOF 6
ENDMDL
MODEL 4
REMARK VINA RESULT:      -7.7      5.496      8.470
REMARK  Name = 
REMARK  7 active torsions:
REMARK  status: ('A' for Active; 'I' for Inactive)
REMARK    1  A    between atoms: C_1  and  C_2
REMARK    2  A    between atoms: C_2  and  C_4
REMARK    3  A    between atoms: C_7  and  O_8
REMARK    4  A    between atoms: O_8  and  C_9
REMARK    5  A    between atoms: C_9  and  C_10
REMARK    6  A    between atoms: N_12  and  C_13
REMARK    7  A    between atoms: C_18  and  N_19
REMARK                            x       y       z     vdW  Elec       q    Type
REMARK                         _______ _______ _______ _____ _____    ______ ____
ROOT
ATOM      1  C   UNL     1       2.267   7.225  18.831  0.00  0.00    +0.000 C 
ATOM      2  O   UNL     1       2.267   6.977  20.036  0.00  0.00    +0.000 OA
ATOM      3  N   UNL     1       2.469   6.300  17.825  0.00  0.00    +0.000 N 
ATOM      4  H   UNL     1       2.839   6.651  16.944  0.00  0.00    +0.000 HD
ENDROOT
BRANCH   3   5
ATOM      5  C   UNL     1       2.647   4.920  18.044  0.00  0.00    +0.000 A 
ATOM      6  C   UNL     1       1.526   4.093  18.195  0.00  0.00    +0.000 A 
ATOM      7  C   UNL     1       1.683   2.717  18.321  0.00  0.00    +0.000 A 
ATOM      8  C   UNL     1       2.959   2.171  18.314  0.00  0.00    +0.000 A 
ATOM      9  C   UNL     1       4.084   2.998  18.176  0.00  0.00    +0.000 A 
ATOM     10  C   UNL     1       3.965   4.390  18.030  0.00  0.00    +0.000 A 
BRANCH  10  11
ATOM     11  N   UNL     1       5.078   5.255  17.952  0.00  0.00    +0.000 N 
ATOM     12  C   UNL     1       5.930   5.282  16.751  0.00  0.00    +0.000 C 
ATOM     13  C   UNL     1       7.312   4.854  17.230  0.00  0.00    +0.000 C 
ATOM     14  C   UNL     1       7.364   5.398  18.644  0.00  0.00    +0.000 C 
ATOM     15  C   UNL     1       5.944   5.188  19.156  0.00  0.00    +0.000 C 
ENDBRANCH  10  11
ENDBRANCH   3   5
BRANCH   1  16
ATOM     16  C   UNL     1       2.010   8.643  18.326  0.00  0.00    +0.000 C 
BRANCH  16  17
ATOM     17  O   UNL     1       1.449   9.455  19.350  0.00  0.00    +0.000 OA
BRANCH  17  21
ATOM     18  C   UNL     1      -2.280  10.977  18.289  0.00  0.00    +0.000 A 
ATOM     19  C   UNL     1      -1.567  10.106  17.461  0.00  0.00    +0.000 A 
ATOM     20  C   UNL     1      -0.319   9.626  17.857  0.00  0.00    +0.000 A 
ATOM     21  C   UNL     1       0.240  10.024  19.075  0.00  0.00    +0.000 A 
ATOM     22  C   UNL     1      -0.468  10.890  19.908  0.00  0.00    +0.000 A 
ATOM     23  C   UNL     1      -1.725  11.365  19.517  0.00  0.00    +0.000 A 
BRANCH  18  25
ATOM     24  C   UNL     1      -4.513  12.070  18.984  0.00  0.00    +0.000 C 
ATOM     25  C   UNL     1      -3.627  11.496  17.910  0.00  0.00    +0.000 C 
ATOM     26  O   UNL     1      -3.991  11.460  16.736  0.00  0.00    +0.000 OA
ENDBRANCH  18  25
ENDBRANCH  17  21
ENDBRANCH  16  17
ENDBRANCH   1  16
TORSDOF 6
ENDMDL
MODEL 5
REMARK VINA RESULT:      -7.6      5.293      8.046
REMARK  Name = 
REMARK  7 active torsions:
REMARK  status: ('A' for Active; 'I' for Inactive)
REMARK    1  A    between atoms: C_1  and  C_2
REMARK    2  A    between atoms: C_2  and  C_4
REMARK    3  A    between atoms: C_7  and  O_8
REMARK    4  A    between atoms: O_8  and  C_9
REMARK    5  A    between atoms: C_9  and  C_10
REMARK    6  A    between atoms: N_12  and  C_13
REMARK    7  A    between atoms: C_18  and  N_19
REMARK                            x       y       z     vdW  Elec       q    Type
REMARK                         _______ _______ _______ _____ _____    ______ ____
ROOT
ATOM      1  C   UNL     1       1.994   6.951  19.905  0.00  0.00    +0.000 C 
ATOM      2  O   UNL     1       1.772   6.145  20.807  0.00  0.00    +0.000 OA
ATOM      3  N   UNL     1       2.540   6.641  18.674  0.00  0.00    +0.000 N 
ATOM      4  H   UNL     1       3.035   7.387  18.189  0.00  0.00    +0.000 HD
ENDROOT
BRANCH   3   5
ATOM      5  C   UNL     1       2.868   5.335  18.260  0.00  0.00    +0.000 A 
ATOM      6  C   UNL     1       1.846   4.406  18.028  0.00  0.00    +0.000 A 
ATOM      7  C   UNL     1       2.147   3.142  17.533  0.00  0.00    +0.000 A 
ATOM      8  C   UNL     1       3.471   2.802  17.288  0.00  0.00    +0.000 A 
ATOM      9  C   UNL     1       4.497   3.725  17.532  0.00  0.00    +0.000 A 
ATOM     10  C   UNL     1       4.231   5.017  18.016  0.00  0.00    +0.000 A 
BRANCH  10  11
ATOM     11  N   UNL     1       5.245   5.947  18.331  0.00  0.00    +0.000 N 
ATOM     12  C   UNL     1       5.877   6.760  17.277  0.00  0.00    +0.000 C 
ATOM     13  C   UNL     1       7.349   6.364  17.294  0.00  0.00    +0.000 C 
ATOM     14  C   UNL     1       7.598   6.048  18.756  0.00  0.00    +0.000 C 
ATOM     15  C   UNL     1       6.305   5.372  19.196  0.00  0.00    +0.000 C 
ENDBRANCH  10  11
ENDBRANCH   3   5
BRANCH   1  16
ATOM     16  C   UNL     1       1.646   8.428  20.072  0.00  0.00    +0.000 C 
BRANCH  16  17
ATOM     17  O   UNL     1       1.536   8.772  21.448  0.00  0.00    +0.000 OA
BRANCH  17  21
ATOM     18  C   UNL     1      -1.136  11.741  22.628  0.00  0.00    +0.000 A 
ATOM     19  C   UNL     1      -1.128  10.471  23.212  0.00  0.00    +0.000 A 
ATOM     20  C   UNL     1      -0.217   9.507  22.780  0.00  0.00    +0.000 A 
ATOM     21  C   UNL     1       0.683   9.794  21.749  0.00  0.00    +0.000 A 
ATOM     22  C   UNL     1       0.682  11.061  21.165  0.00  0.00    +0.000 A 
ATOM     23  C   UNL     1      -0.224  12.032  21.603  0.00  0.00    +0.000 A 
BRANCH  18  25
ATOM     24  C   UNL     1      -3.339  12.403  23.801  0.00  0.00    +0.000 C 
ATOM     25  C   UNL     1      -2.082  12.806  23.077  0.00  0.00    +0.000 C 
ATOM     26  O   UNL     1      -1.821  13.988  22.862  0.00  0.00    +0.000 OA
ENDBRANCH  18  25
ENDBRANCH  17  21
ENDBRANCH  16  17
ENDBRANCH   1  16
TORSDOF 6
ENDMDL
MODEL 6
REMARK VINA RESULT:      -7.6      5.933      8.068
REMARK  Name = 
REMARK  7 active torsions:
REMARK  status: ('A' for Active; 'I' for Inactive)
REMARK    1  A    between atoms: C_1  and  C_2
REMARK    2  A    between atoms: C_2  and  C_4
REMARK    3  A    between atoms: C_7  and  O_8
REMARK    4  A    between atoms: O_8  and  C_9
REMARK    5  A    between atoms: C_9  and  C_10
REMARK    6  A    between atoms: N_12  and  C_13
REMARK    7  A    between atoms: C_18  and  N_19
REMARK                            x       y       z     vdW  Elec       q    Type
REMARK                         _______ _______ _______ _____ _____    ______ ____
ROOT
ATOM      1  C   UNL     1       2.118   8.527  18.194  0.00  0.00    +0.000 C 
ATOM      2  O   UNL     1       2.510   8.846  17.072  0.00  0.00    +0.000 OA
ATOM      3  N   UNL     1       2.410   7.338  18.835  0.00  0.00    +0.000 N 
ATOM      4  H   UNL     1       1.745   7.018  19.535  0.00  0.00    +0.000 HD
ENDROOT
BRANCH   3   5
ATOM      5  C   UNL     1       3.253   6.342  18.307  0.00  0.00    +0.000 A 
ATOM      6  C   UNL     1       4.242   6.693  17.378  0.00  0.00    +0.000 A 
ATOM      7  C   UNL     1       5.141   5.738  16.916  0.00  0.00    +0.000 A 
ATOM      8  C   UNL     1       5.039   4.429  17.369  0.00  0.00    +0.000 A 
ATOM      9  C   UNL     1       4.042   4.072  18.288  0.00  0.00    +0.000 A 
ATOM     10  C   UNL     1       3.126   5.012  18.790  0.00  0.00    +0.000 A 
BRANCH  10  11
ATOM     11  N   UNL     1       2.074   4.672  19.667  0.00  0.00    +0.000 N 
ATOM     12  C   UNL     1       2.286   4.644  21.124  0.00  0.00    +0.000 C 
ATOM     13  C   UNL     1       2.024   3.201  21.539  0.00  0.00    +0.000 C 
ATOM     14  C   UNL     1       0.955   2.755  20.561  0.00  0.00    +0.000 C 
ATOM     15  C   UNL     1       1.363   3.435  19.259  0.00  0.00    +0.000 C 
ENDBRANCH  10  11
ENDBRANCH   3   5
BRANCH   1  16
ATOM     16  C   UNL     1       1.252   9.478  19.017  0.00  0.00    +0.000 C 
BRANCH  16  17
ATOM     17  O   UNL     1       1.044   8.970  20.330  0.00  0.00    +0.000 OA
BRANCH  17  21
ATOM     18  C   UNL     1      -1.428  11.439  22.596  0.00  0.00    +0.000 A 
ATOM     19  C   UNL     1      -1.090  11.735  21.273  0.00  0.00    +0.000 A 
ATOM     20  C   UNL     1      -0.254  10.880  20.555  0.00  0.00    +0.000 A 
ATOM     21  C   UNL     1       0.268   9.730  21.155  0.00  0.00    +0.000 A 
ATOM     22  C   UNL     1      -0.069   9.427  22.474  0.00  0.00    +0.000 A 
ATOM     23  C   UNL     1      -0.915  10.279  23.193  0.00  0.00    +0.000 A 
BRANCH  18  25
ATOM     24  C   UNL     1      -1.898  13.727  23.698  0.00  0.00    +0.000 C 
ATOM     25  C   UNL     1      -2.336  12.318  23.391  0.00  0.00    +0.000 C 
ATOM     26  O   UNL     1      -3.423  11.892  23.773  0.00  0.00    +0.000 OA
ENDBRANCH  18  25
ENDBRANCH  17  21
ENDBRANCH  16  17
ENDBRANCH   1  16
TORSDOF 6
ENDMDL
MODEL 7
REMARK VINA RESULT:      -7.6      5.511      7.867
REMARK  Name = 
REMARK  7 active torsions:
REMARK  status: ('A' for Active; 'I' for Inactive)
REMARK    1  A    between atoms: C_1  and  C_2
REMARK    2  A    between atoms: C_2  and  C_4
REMARK    3  A    between atoms: C_7  and  O_8
REMARK    4  A    between atoms: O_8  and  C_9
REMARK    5  A    between atoms: C_9  and  C_10
REMARK    6  A    between atoms: N_12  and  C_13
REMARK    7  A    between atoms: C_18  and  N_19
REMARK                            x       y       z     vdW  Elec       q    Type
REMARK                         _______ _______ _______ _____ _____    ______ ____
ROOT
ATOM      1  C   UNL     1       2.492   7.422  18.615  0.00  0.00    +0.000 C 
ATOM      2  O   UNL     1       2.329   7.195  19.813  0.00  0.00    +0.000 OA
ATOM      3  N   UNL     1       2.770   6.471  17.651  0.00  0.00    +0.000 N 
ATOM      4  H   UNL     1       3.265   6.789  16.821  0.00  0.00    +0.000 HD
ENDROOT
BRANCH   3   5
ATOM      5  C   UNL     1       2.848   5.088  17.905  0.00  0.00    +0.000 A 
ATOM      6  C   UNL     1       1.669   4.342  18.035  0.00  0.00    +0.000 A 
ATOM      7  C   UNL     1       1.728   2.961  18.195  0.00  0.00    +0.000 A 
ATOM      8  C   UNL     1       2.964   2.331  18.243  0.00  0.00    +0.000 A 
ATOM      9  C   UNL     1       4.146   3.078  18.127  0.00  0.00    +0.000 A 
ATOM     10  C   UNL     1       4.126   4.471  17.948  0.00  0.00    +0.000 A 
BRANCH  10  11
ATOM     11  N   UNL     1       5.297   5.258  17.889  0.00  0.00    +0.000 N 
ATOM     12  C   UNL     1       6.268   5.086  16.796  0.00  0.00    +0.000 C 
ATOM     13  C   UNL     1       7.562   4.648  17.474  0.00  0.00    +0.000 C 
ATOM     14  C   UNL     1       7.504   5.365  18.809  0.00  0.00    +0.000 C 
ATOM     15  C   UNL     1       6.027   5.298  19.181  0.00  0.00    +0.000 C 
ENDBRANCH  10  11
ENDBRANCH   3   5
BRANCH   1  16
ATOM     16  C   UNL     1       2.374   8.842  18.067  0.00  0.00    +0.000 C 
BRANCH  16  17
ATOM     17  O   UNL     1       1.029   9.142  17.713  0.00  0.00    +0.000 OA
BRANCH  17  21
ATOM     18  C   UNL     1      -1.285  11.619  20.132  0.00  0.00    +0.000 A 
ATOM     19  C   UNL     1      -1.756  11.112  18.918  0.00  0.00    +0.000 A 
ATOM     20  C   UNL     1      -0.942  10.289  18.139  0.00  0.00    +0.000 A 
ATOM     21  C   UNL     1       0.356   9.979  18.554  0.00  0.00    +0.000 A 
ATOM     22  C   UNL     1       0.830  10.479  19.767  0.00  0.00    +0.000 A 
ATOM     23  C   UNL     1       0.012  11.296  20.555  0.00  0.00    +0.000 A 
BRANCH  18  25
ATOM     24  C   UNL     1      -2.192  12.194  22.481  0.00  0.00    +0.000 C 
ATOM     25  C   UNL     1      -2.134  12.485  21.004  0.00  0.00    +0.000 C 
ATOM     26  O   UNL     1      -2.760  13.422  20.514  0.00  0.00    +0.000 OA
ENDBRANCH  18  25
ENDBRANCH  17  21
ENDBRANCH  16  17
ENDBRANCH   1  16
TORSDOF 6
ENDMDL
MODEL 8
REMARK VINA RESULT:      -7.5      5.115      8.353
REMARK  Name = 
REMARK  7 active torsions:
REMARK  status: ('A' for Active; 'I' for Inactive)
REMARK    1  A    between atoms: C_1  and  C_2
REMARK    2  A    between atoms: C_2  and  C_4
REMARK    3  A    between atoms: C_7  and  O_8
REMARK    4  A    between atoms: O_8  and  C_9
REMARK    5  A    between atoms: C_9  and  C_10
REMARK    6  A    between atoms: N_12  and  C_13
REMARK    7  A    between atoms: C_18  and  N_19
REMARK                            x       y       z     vdW  Elec       q    Type
REMARK                         _______ _______ _______ _____ _____    ______ ____
ROOT
ATOM      1  C   UNL     1       5.462   6.402  17.673  0.00  0.00    +0.000 C 
ATOM      2  O   UNL     1       6.091   5.990  18.647  0.00  0.00    +0.000 OA
ATOM      3  N   UNL     1       4.092   6.579  17.623  0.00  0.00    +0.000 N 
ATOM      4  H   UNL     1       3.656   6.530  16.705  0.00  0.00    +0.000 HD
ENDROOT
BRANCH   3   5
ATOM      5  C   UNL     1       3.226   6.362  18.712  0.00  0.00    +0.000 A 
ATOM      6  C   UNL     1       2.718   7.459  19.420  0.00  0.00    +0.000 A 
ATOM      7  C   UNL     1       1.792   7.267  20.440  0.00  0.00    +0.000 A 
ATOM      8  C   UNL     1       1.389   5.978  20.762  0.00  0.00    +0.000 A 
ATOM      9  C   UNL     1       1.906   4.877  20.064  0.00  0.00    +0.000 A 
ATOM     10  C   UNL     1       2.831   5.033  19.017  0.00  0.00    +0.000 A 
BRANCH  10  11
ATOM     11  N   UNL     1       3.416   3.943  18.337  0.00  0.00    +0.000 N 
ATOM     12  C   UNL     1       2.709   3.276  17.231  0.00  0.00    +0.000 C 
ATOM     13  C   UNL     1       2.504   1.839  17.695  0.00  0.00    +0.000 C 
ATOM     14  C   UNL     1       3.730   1.580  18.549  0.00  0.00    +0.000 C 
ATOM     15  C   UNL     1       3.952   2.911  19.259  0.00  0.00    +0.000 C 
ENDBRANCH  10  11
ENDBRANCH   3   5
BRANCH   1  16
ATOM     16  C   UNL     1       6.184   6.791  16.386  0.00  0.00    +0.000 C 
BRANCH  16  17
ATOM     17  O   UNL     1       7.135   5.800  16.015  0.00  0.00    +0.000 OA
BRANCH  17  21
ATOM     18  C   UNL     1       5.906   3.451  12.804  0.00  0.00    +0.000 A 
ATOM     19  C   UNL     1       5.222   3.464  14.022  0.00  0.00    +0.000 A 
ATOM     20  C   UNL     1       5.674   4.264  15.071  0.00  0.00    +0.000 A 
ATOM     21  C   UNL     1       6.824   5.045  14.922  0.00  0.00    +0.000 A 
ATOM     22  C   UNL     1       7.509   5.039  13.707  0.00  0.00    +0.000 A 
ATOM     23  C   UNL     1       7.051   4.244  12.650  0.00  0.00    +0.000 A 
BRANCH  18  25
ATOM     24  C   UNL     1       6.325   1.511  11.151  0.00  0.00    +0.000 C 
ATOM     25  C   UNL     1       5.441   2.624  11.650  0.00  0.00    +0.000 C 
ATOM     26  O   UNL     1       4.349   2.851  11.133  0.00  0.00    +0.000 OA
ENDBRANCH  18  25
ENDBRANCH  17  21
ENDBRANCH  16  17
ENDBRANCH   1  16
TORSDOF 6
ENDMDL
MODEL 9
REMARK VINA RESULT:      -7.5      5.539      8.106
REMARK  Name = 
REMARK  7 active torsions:
REMARK  status: ('A' for Active; 'I' for Inactive)
REMARK    1  A    between atoms: C_1  and  C_2
REMARK    2  A    between atoms: C_2  and  C_4
REMARK    3  A    between atoms: C_7  and  O_8
REMARK    4  A    between atoms: O_8  and  C_9
REMARK    5  A    between atoms: C_9  and  C_10
REMARK    6  A    between atoms: N_12  and  C_13
REMARK    7  A    between atoms: C_18  and  N_19
REMARK                            x       y       z     vdW  Elec       q    Type
REMARK                         _______ _______ _______ _____ _____    ______ ____
ROOT
ATOM      1  C   UNL     1       1.992   6.670  19.958  0.00  0.00    +0.000 C 
ATOM      2  O   UNL     1       1.855   5.976  20.965  0.00  0.00    +0.000 OA
ATOM      3  N   UNL     1       2.386   6.209  18.717  0.00  0.00    +0.000 N 
ATOM      4  H   UNL     1       2.840   6.878  18.100  0.00  0.00    +0.000 HD
ENDROOT
BRANCH   3   5
ATOM      5  C   UNL     1       2.631   4.854  18.418  0.00  0.00    +0.000 A 
ATOM      6  C   UNL     1       1.572   3.936  18.450  0.00  0.00    +0.000 A 
ATOM      7  C   UNL     1       1.779   2.615  18.070  0.00  0.00    +0.000 A 
ATOM      8  C   UNL     1       3.047   2.208  17.676  0.00  0.00    +0.000 A 
ATOM      9  C   UNL     1       4.111   3.121  17.656  0.00  0.00    +0.000 A 
ATOM     10  C   UNL     1       3.937   4.468  18.017  0.00  0.00    +0.000 A 
BRANCH  10  11
ATOM     11  N   UNL     1       5.000   5.397  18.067  0.00  0.00    +0.000 N 
ATOM     12  C   UNL     1       5.858   5.624  16.892  0.00  0.00    +0.000 C 
ATOM     13  C   UNL     1       7.259   5.216  17.334  0.00  0.00    +0.000 C 
ATOM     14  C   UNL     1       7.268   5.577  18.807  0.00  0.00    +0.000 C 
ATOM     15  C   UNL     1       5.858   5.224  19.265  0.00  0.00    +0.000 C 
ENDBRANCH  10  11
ENDBRANCH   3   5
BRANCH   1  16
ATOM     16  C   UNL     1       1.703   8.169  19.998  0.00  0.00    +0.000 C 
BRANCH  16  17
ATOM     17  O   UNL     1       1.835   8.678  21.320  0.00  0.00    +0.000 OA
BRANCH  17  21
ATOM     18  C   UNL     1      -1.246  11.282  22.356  0.00  0.00    +0.000 A 
ATOM     19  C   UNL     1      -0.511  11.430  21.178  0.00  0.00    +0.000 A 
ATOM     20  C   UNL     1       0.516  10.536  20.875  0.00  0.00    +0.000 A 
ATOM     21  C   UNL     1       0.831   9.495  21.754  0.00  0.00    +0.000 A 
ATOM     22  C   UNL     1       0.098   9.340  22.930  0.00  0.00    +0.000 A 
ATOM     23  C   UNL     1      -0.939  10.230  23.231  0.00  0.00    +0.000 A 
BRANCH  18  25
ATOM     24  C   UNL     1      -2.495  13.507  21.957  0.00  0.00    +0.000 C 
ATOM     25  C   UNL     1      -2.366  12.206  22.705  0.00  0.00    +0.000 C 
ATOM     26  O   UNL     1      -3.168  11.894  23.583  0.00  0.00    +0.000 OA
ENDBRANCH  18  25
ENDBRANCH  17  21
ENDBRANCH  16  17
ENDBRANCH   1  16
TORSDOF 6
ENDMDL
