MODEL 1
REMARK VINA RESULT:      -7.8      0.000      0.000
REMARK  Name = 
REMARK  9 active torsions:
REMARK  status: ('A' for Active; 'I' for Inactive)
REMARK    1  A    between atoms: C_1  and  O_2
REMARK    2  A    between atoms: O_2  and  C_3
REMARK    3  A    between atoms: C_8  and  C_9
REMARK    4  A    between atoms: C_9  and  C_10
REMARK    5  A    between atoms: C_9  and  N_11
REMARK    6  A    between atoms: N_11  and  C_12
REMARK    7  A    between atoms: C_16  and  S_17
REMARK    8  A    between atoms: S_17  and  N_20
REMARK    9  A    between atoms: N_20  and  C_21
REMARK                            x       y       z     vdW  Elec       q    Type
REMARK                         _______ _______ _______ _____ _____    ______ ____
ROOT
ATOM      1  C   UNL     1       2.449   6.302  19.288  0.00  0.00    +0.000 A 
ATOM      2  C   UNL     1       2.448   7.244  18.249  0.00  0.00    +0.000 A 
ATOM      3  C   UNL     1       1.948   8.543  18.437  0.00  0.00    +0.000 A 
ATOM      4  F   UNL     1       1.970   9.377  17.390  0.00  0.00    +0.000 F 
ATOM      5  C   UNL     1       1.413   8.934  19.653  0.00  0.00    +0.000 A 
ATOM      6  C   UNL     1       1.400   8.015  20.689  0.00  0.00    +0.000 A 
ATOM      7  F   UNL     1       0.870   8.311  21.884  0.00  0.00    +0.000 F 
ATOM      8  C   UNL     1       1.900   6.720  20.507  0.00  0.00    +0.000 A 
ENDROOT
BRANCH   5   9
ATOM      9  S   UNL     1       0.848  10.580  19.908  0.00  0.00    +0.000 S 
ATOM     10  O   UNL     1       1.329  11.056  21.185  0.00  0.00    +0.000 OA
ATOM     11  O   UNL     1       1.124  11.335  18.708  0.00  0.00    +0.000 OA
BRANCH   9  12
ATOM     12  N   UNL     1      -0.848  10.428  19.992  0.00  0.00    +0.000 N 
ATOM     13  H   UNL     1      -1.177  11.019  20.755  0.00  0.00    +0.000 HD
BRANCH  12  14
ATOM     14  C   UNL     1      -1.570  10.574  18.816  0.00  0.00    +0.000 A 
ATOM     15  C   UNL     1      -2.453  11.594  18.525  0.00  0.00    +0.000 A 
ATOM     16  S   UNL     1      -3.092  11.382  16.948  0.00  0.00    +0.000 S 
ATOM     17  C   UNL     1      -2.139   9.965  16.786  0.00  0.00    +0.000 A 
ATOM     18  N   UNL     1      -1.361   9.668  17.803  0.00  0.00    +0.000 NA
ENDBRANCH  12  14
ENDBRANCH   9  12
ENDBRANCH   5   9
BRANCH   1  19
ATOM     19  N   UNL     1       2.851   4.983  19.020  0.00  0.00    +0.000 N 
ATOM     20  H   UNL     1       2.636   4.692  18.070  0.00  0.00    +0.000 HD
BRANCH  19  21
ATOM     21  C   UNL     1       4.161   4.498  19.484  0.00  0.00    +0.000 C 
ATOM     22  C   UNL     1       4.081   3.015  19.881  0.00  0.00    +0.000 C 
BRANCH  21  28
ATOM     23  C   UNL     1       6.184   4.019  16.242  0.00  0.00    +0.000 A 
ATOM     24  C   UNL     1       7.430   4.501  16.644  0.00  0.00    +0.000 A 
ATOM     25  C   UNL     1       7.569   5.115  17.890  0.00  0.00    +0.000 A 
ATOM     26  C   UNL     1       6.480   5.189  18.755  0.00  0.00    +0.000 A 
ATOM     27  F   UNL     1       6.659   5.758  19.956  0.00  0.00    +0.000 F 
ATOM     28  C   UNL     1       5.237   4.643  18.416  0.00  0.00    +0.000 A 
ATOM     29  C   UNL     1       5.095   4.100  17.125  0.00  0.00    +0.000 A 
BRANCH  23  31
ATOM     30  C   UNL     1       5.946   4.252  13.882  0.00  0.00    +0.000 C 
ATOM     31  O   UNL     1       5.902   3.429  15.042  0.00  0.00    +0.000 OA
ENDBRANCH  23  31
ENDBRANCH  21  28
ENDBRANCH  19  21
ENDBRANCH   1  19
TORSDOF 7
ENDMDL
MODEL 2
REMARK VINA RESULT:      -7.8      2.539      3.094
REMARK  Name = 
REMARK  9 active torsions:
REMARK  status: ('A' for Active; 'I' for Inactive)
REMARK    1  A    between atoms: C_1  and  O_2
REMARK    2  A    between atoms: O_2  and  C_3
REMARK    3  A    between atoms: C_8  and  C_9
REMARK    4  A    between atoms: C_9  and  C_10
REMARK    5  A    between atoms: C_9  and  N_11
REMARK    6  A    between atoms: N_11  and  C_12
REMARK    7  A    between atoms: C_16  and  S_17
REMARK    8  A    between atoms: S_17  and  N_20
REMARK    9  A    between atoms: N_20  and  C_21
REMARK                            x       y       z     vdW  Elec       q    Type
REMARK                         _______ _______ _______ _____ _____    ______ ____
ROOT
ATOM      1  C   UNL     1       2.413   6.471  19.304  0.00  0.00    +0.000 A 
ATOM      2  C   UNL     1       2.362   7.387  18.244  0.00  0.00    +0.000 A 
ATOM      3  C   UNL     1       1.837   8.679  18.415  0.00  0.00    +0.000 A 
ATOM      4  F   UNL     1       1.812   9.488  17.349  0.00  0.00    +0.000 F 
ATOM      5  C   UNL     1       1.325   9.087  19.636  0.00  0.00    +0.000 A 
ATOM      6  C   UNL     1       1.360   8.192  20.693  0.00  0.00    +0.000 A 
ATOM      7  F   UNL     1       0.855   8.504  21.894  0.00  0.00    +0.000 F 
ATOM      8  C   UNL     1       1.886   6.905  20.527  0.00  0.00    +0.000 A 
ENDROOT
BRANCH   5   9
ATOM      9  S   UNL     1       0.728  10.725  19.868  0.00  0.00    +0.000 S 
ATOM     10  O   UNL     1      -0.716  10.717  19.819  0.00  0.00    +0.000 OA
ATOM     11  O   UNL     1       1.406  11.286  21.012  0.00  0.00    +0.000 OA
BRANCH   9  12
ATOM     12  N   UNL     1       1.310  11.574  18.509  0.00  0.00    +0.000 N 
ATOM     13  H   UNL     1       0.725  11.326  17.711  0.00  0.00    +0.000 HD
BRANCH  12  14
ATOM     14  C   UNL     1       1.527  12.938  18.643  0.00  0.00    +0.000 A 
ATOM     15  C   UNL     1       0.558  13.900  18.841  0.00  0.00    +0.000 A 
ATOM     16  S   UNL     1       1.288  15.447  18.975  0.00  0.00    +0.000 S 
ATOM     17  C   UNL     1       2.821  14.706  18.769  0.00  0.00    +0.000 A 
ATOM     18  N   UNL     1       2.823  13.397  18.645  0.00  0.00    +0.000 NA
ENDBRANCH  12  14
ENDBRANCH   9  12
ENDBRANCH   5   9
BRANCH   1  19
ATOM     19  N   UNL     1       2.838   5.156  19.055  0.00  0.00    +0.000 N 
ATOM     20  H   UNL     1       2.452   4.773  18.196  0.00  0.00    +0.000 HD
BRANCH  19  21
ATOM     21  C   UNL     1       4.244   4.778  19.269  0.00  0.00    +0.000 C 
ATOM     22  C   UNL     1       4.346   3.342  19.807  0.00  0.00    +0.000 C 
BRANCH  21  28
ATOM     23  C   UNL     1       6.715   5.996  16.578  0.00  0.00    +0.000 A 
ATOM     24  C   UNL     1       6.219   5.333  15.455  0.00  0.00    +0.000 A 
ATOM     25  C   UNL     1       5.202   4.387  15.599  0.00  0.00    +0.000 A 
ATOM     26  C   UNL     1       4.642   4.153  16.853  0.00  0.00    +0.000 A 
ATOM     27  F   UNL     1       3.645   3.260  16.947  0.00  0.00    +0.000 F 
ATOM     28  C   UNL     1       5.060   4.859  17.985  0.00  0.00    +0.000 A 
ATOM     29  C   UNL     1       6.140   5.750  17.835  0.00  0.00    +0.000 A 
BRANCH  23  31
ATOM     30  C   UNL     1       7.724   7.886  17.623  0.00  0.00    +0.000 C 
ATOM     31  O   UNL     1       7.727   6.915  16.583  0.00  0.00    +0.000 OA
ENDBRANCH  23  31
ENDBRANCH  21  28
ENDBRANCH  19  21
ENDBRANCH   1  19
TORSDOF 7
ENDMDL
MODEL 3
REMARK VINA RESULT:      -7.8      1.909      2.334
REMARK  Name = 
REMARK  9 active torsions:
REMARK  status: ('A' for Active; 'I' for Inactive)
REMARK    1  A    between atoms: C_1  and  O_2
REMARK    2  A    between atoms: O_2  and  C_3
REMARK    3  A    between atoms: C_8  and  C_9
REMARK    4  A    between atoms: C_9  and  C_10
REMARK    5  A    between atoms: C_9  and  N_11
REMARK    6  A    between atoms: N_11  and  C_12
REMARK    7  A    between atoms: C_16  and  S_17
REMARK    8  A    between atoms: S_17  and  N_20
REMARK    9  A    between atoms: N_20  and  C_21
REMARK                            x       y       z     vdW  Elec       q    Type
REMARK                         _______ _______ _______ _____ _____    ______ ____
ROOT
ATOM      1  C   UNL     1       2.432   6.248  19.283  0.00  0.00    +0.000 A 
ATOM      2  C   UNL     1       2.467   7.165  18.223  0.00  0.00    +0.000 A 
ATOM      3  C   UNL     1       1.941   8.461  18.356  0.00  0.00    +0.000 A 
ATOM      4  F   UNL     1       2.002   9.271  17.291  0.00  0.00    +0.000 F 
ATOM      5  C   UNL     1       1.344   8.872  19.536  0.00  0.00    +0.000 A 
ATOM      6  C   UNL     1       1.294   7.977  20.592  0.00  0.00    +0.000 A 
ATOM      7  F   UNL     1       0.704   8.293  21.753  0.00  0.00    +0.000 F 
ATOM      8  C   UNL     1       1.820   6.686  20.464  0.00  0.00    +0.000 A 
ENDROOT
BRANCH   5   9
ATOM      9  S   UNL     1       0.745  10.515  19.725  0.00  0.00    +0.000 S 
ATOM     10  O   UNL     1       1.628  11.426  19.032  0.00  0.00    +0.000 OA
ATOM     11  O   UNL     1      -0.667  10.511  19.421  0.00  0.00    +0.000 OA
BRANCH   9  12
ATOM     12  N   UNL     1       0.868  10.812  21.399  0.00  0.00    +0.000 N 
ATOM     13  H   UNL     1       1.801  11.180  21.583  0.00  0.00    +0.000 HD
BRANCH  12  14
ATOM     14  C   UNL     1      -0.150  11.534  22.005  0.00  0.00    +0.000 A 
ATOM     15  C   UNL     1      -0.360  12.894  21.895  0.00  0.00    +0.000 A 
ATOM     16  S   UNL     1      -1.750  13.345  22.792  0.00  0.00    +0.000 S 
ATOM     17  C   UNL     1      -1.957  11.703  23.239  0.00  0.00    +0.000 A 
ATOM     18  N   UNL     1      -1.090  10.850  22.739  0.00  0.00    +0.000 NA
ENDBRANCH  12  14
ENDBRANCH   9  12
ENDBRANCH   5   9
BRANCH   1  19
ATOM     19  N   UNL     1       2.864   4.929  19.065  0.00  0.00    +0.000 N 
ATOM     20  H   UNL     1       2.565   4.561  18.166  0.00  0.00    +0.000 HD
BRANCH  19  21
ATOM     21  C   UNL     1       4.235   4.530  19.420  0.00  0.00    +0.000 C 
ATOM     22  C   UNL     1       4.282   3.049  19.828  0.00  0.00    +0.000 C 
BRANCH  21  28
ATOM     23  C   UNL     1       5.825   4.406  15.915  0.00  0.00    +0.000 A 
ATOM     24  C   UNL     1       7.163   4.640  16.232  0.00  0.00    +0.000 A 
ATOM     25  C   UNL     1       7.519   4.989  17.536  0.00  0.00    +0.000 A 
ATOM     26  C   UNL     1       6.546   5.040  18.531  0.00  0.00    +0.000 A 
ATOM     27  F   UNL     1       6.928   5.348  19.780  0.00  0.00    +0.000 F 
ATOM     28  C   UNL     1       5.207   4.732  18.265  0.00  0.00    +0.000 A 
ATOM     29  C   UNL     1       4.856   4.461  16.929  0.00  0.00    +0.000 A 
BRANCH  23  31
ATOM     30  C   UNL     1       6.283   3.934  13.623  0.00  0.00    +0.000 C 
ATOM     31  O   UNL     1       5.339   4.091  14.676  0.00  0.00    +0.000 OA
ENDBRANCH  23  31
ENDBRANCH  21  28
ENDBRANCH  19  21
ENDBRANCH   1  19
TORSDOF 7
ENDMDL
MODEL 4
REMARK VINA RESULT:      -7.8      2.057      2.558
REMARK  Name = 
REMARK  9 active torsions:
REMARK  status: ('A' for Active; 'I' for Inactive)
REMARK    1  A    between atoms: C_1  and  O_2
REMARK    2  A    between atoms: O_2  and  C_3
REMARK    3  A    between atoms: C_8  and  C_9
REMARK    4  A    between atoms: C_9  and  C_10
REMARK    5  A    between atoms: C_9  and  N_11
REMARK    6  A    between atoms: N_11  and  C_12
REMARK    7  A    between atoms: C_16  and  S_17
REMARK    8  A    between atoms: S_17  and  N_20
REMARK    9  A    between atoms: N_20  and  C_21
REMARK                            x       y       z     vdW  Elec       q    Type
REMARK                         _______ _______ _______ _____ _____    ______ ____
ROOT
ATOM      1  C   UNL     1       2.366   6.481  19.263  0.00  0.00    +0.000 A 
ATOM      2  C   UNL     1       2.328   7.437  18.237  0.00  0.00    +0.000 A 
ATOM      3  C   UNL     1       1.820   8.728  18.456  0.00  0.00    +0.000 A 
ATOM      4  F   UNL     1       1.806   9.577  17.420  0.00  0.00    +0.000 F 
ATOM      5  C   UNL     1       1.312   9.097  19.691  0.00  0.00    +0.000 A 
ATOM      6  C   UNL     1       1.336   8.163  20.714  0.00  0.00    +0.000 A 
ATOM      7  F   UNL     1       0.834   8.437  21.926  0.00  0.00    +0.000 F 
ATOM      8  C   UNL     1       1.845   6.876  20.501  0.00  0.00    +0.000 A 
ENDROOT
BRANCH   5   9
ATOM      9  S   UNL     1       0.738  10.733  19.984  0.00  0.00    +0.000 S 
ATOM     10  O   UNL     1      -0.670  10.807  19.663  0.00  0.00    +0.000 OA
ATOM     11  O   UNL     1       1.200  11.139  21.290  0.00  0.00    +0.000 OA
BRANCH   9  12
ATOM     12  N   UNL     1       1.598  11.682  18.859  0.00  0.00    +0.000 N 
ATOM     13  H   UNL     1       1.284  11.421  17.925  0.00  0.00    +0.000 HD
BRANCH  12  14
ATOM     14  C   UNL     1       1.647  13.053  19.073  0.00  0.00    +0.000 A 
ATOM     15  C   UNL     1       2.735  13.765  19.536  0.00  0.00    +0.000 A 
ATOM     16  S   UNL     1       2.347  15.434  19.621  0.00  0.00    +0.000 S 
ATOM     17  C   UNL     1       0.779  15.068  19.031  0.00  0.00    +0.000 A 
ATOM     18  N   UNL     1       0.545  13.806  18.745  0.00  0.00    +0.000 NA
ENDBRANCH  12  14
ENDBRANCH   9  12
ENDBRANCH   5   9
BRANCH   1  19
ATOM     19  N   UNL     1       2.774   5.170  18.965  0.00  0.00    +0.000 N 
ATOM     20  H   UNL     1       2.507   4.878  18.029  0.00  0.00    +0.000 HD
BRANCH  19  21
ATOM     21  C   UNL     1       4.117   4.707  19.349  0.00  0.00    +0.000 C 
ATOM     22  C   UNL     1       4.089   3.220  19.738  0.00  0.00    +0.000 C 
BRANCH  21  28
ATOM     23  C   UNL     1       5.775   4.588  15.875  0.00  0.00    +0.000 A 
ATOM     24  C   UNL     1       7.118   4.723  16.227  0.00  0.00    +0.000 A 
ATOM     25  C   UNL     1       7.465   5.007  17.549  0.00  0.00    +0.000 A 
ATOM     26  C   UNL     1       6.475   5.092  18.525  0.00  0.00    +0.000 A 
ATOM     27  F   UNL     1       6.849   5.334  19.791  0.00  0.00    +0.000 F 
ATOM     28  C   UNL     1       5.127   4.880  18.221  0.00  0.00    +0.000 A 
ATOM     29  C   UNL     1       4.789   4.675  16.870  0.00  0.00    +0.000 A 
BRANCH  23  31
ATOM     30  C   UNL     1       6.217   3.845  13.653  0.00  0.00    +0.000 C 
ATOM     31  O   UNL     1       5.298   4.345  14.617  0.00  0.00    +0.000 OA
ENDBRANCH  23  31
ENDBRANCH  21  28
ENDBRANCH  19  21
ENDBRANCH   1  19
TORSDOF 7
ENDMDL
MODEL 5
REMARK VINA RESULT:      -7.6      2.169      2.855
REMARK  Name = 
REMARK  9 active torsions:
REMARK  status: ('A' for Active; 'I' for Inactive)
REMARK    1  A    between atoms: C_1  and  O_2
REMARK    2  A    between atoms: O_2  and  C_3
REMARK    3  A    between atoms: C_8  and  C_9
REMARK    4  A    between atoms: C_9  and  C_10
REMARK    5  A    between atoms: C_9  and  N_11
REMARK    6  A    between atoms: N_11  and  C_12
REMARK    7  A    between atoms: C_16  and  S_17
REMARK    8  A    between atoms: S_17  and  N_20
REMARK    9  A    between atoms: N_20  and  C_21
REMARK                            x       y       z     vdW  Elec       q    Type
REMARK                         _______ _______ _______ _____ _____    ______ ____
ROOT
ATOM      1  C   UNL     1       2.320   6.690  19.221  0.00  0.00    +0.000 A 
ATOM      2  C   UNL     1       2.284   7.665  18.213  0.00  0.00    +0.000 A 
ATOM      3  C   UNL     1       1.797   8.959  18.460  0.00  0.00    +0.000 A 
ATOM      4  F   UNL     1       1.784   9.826  17.440  0.00  0.00    +0.000 F 
ATOM      5  C   UNL     1       1.310   9.313  19.708  0.00  0.00    +0.000 A 
ATOM      6  C   UNL     1       1.332   8.361  20.714  0.00  0.00    +0.000 A 
ATOM      7  F   UNL     1       0.849   8.621  21.936  0.00  0.00    +0.000 F 
ATOM      8  C   UNL     1       1.820   7.071  20.471  0.00  0.00    +0.000 A 
ENDROOT
BRANCH   5   9
ATOM      9  S   UNL     1       0.763  10.952  20.036  0.00  0.00    +0.000 S 
ATOM     10  O   UNL     1       1.542  11.506  21.120  0.00  0.00    +0.000 OA
ATOM     11  O   UNL     1       0.682  11.653  18.776  0.00  0.00    +0.000 OA
BRANCH   9  12
ATOM     12  N   UNL     1      -0.843  10.753  20.572  0.00  0.00    +0.000 N 
ATOM     13  H   UNL     1      -0.926   9.819  20.972  0.00  0.00    +0.000 HD
BRANCH  12  14
ATOM     14  C   UNL     1      -1.390  11.754  21.363  0.00  0.00    +0.000 A 
ATOM     15  C   UNL     1      -1.536  11.718  22.734  0.00  0.00    +0.000 A 
ATOM     16  S   UNL     1      -2.235  13.184  23.286  0.00  0.00    +0.000 S 
ATOM     17  C   UNL     1      -2.274  13.740  21.665  0.00  0.00    +0.000 A 
ATOM     18  N   UNL     1      -1.773  12.929  20.759  0.00  0.00    +0.000 NA
ENDBRANCH  12  14
ENDBRANCH   9  12
ENDBRANCH   5   9
BRANCH   1  19
ATOM     19  N   UNL     1       2.705   5.379  18.895  0.00  0.00    +0.000 N 
ATOM     20  H   UNL     1       2.373   5.087  17.980  0.00  0.00    +0.000 HD
BRANCH  19  21
ATOM     21  C   UNL     1       4.073   4.915  19.182  0.00  0.00    +0.000 C 
ATOM     22  C   UNL     1       4.055   3.482  19.736  0.00  0.00    +0.000 C 
BRANCH  21  28
ATOM     23  C   UNL     1       6.703   5.978  16.579  0.00  0.00    +0.000 A 
ATOM     24  C   UNL     1       6.251   5.281  15.458  0.00  0.00    +0.000 A 
ATOM     25  C   UNL     1       5.210   4.360  15.585  0.00  0.00    +0.000 A 
ATOM     26  C   UNL     1       4.581   4.187  16.816  0.00  0.00    +0.000 A 
ATOM     27  F   UNL     1       3.563   3.317  16.894  0.00  0.00    +0.000 F 
ATOM     28  C   UNL     1       4.955   4.930  17.941  0.00  0.00    +0.000 A 
ATOM     29  C   UNL     1       6.059   5.794  17.813  0.00  0.00    +0.000 A 
BRANCH  23  31
ATOM     30  C   UNL     1       7.722   7.859  17.631  0.00  0.00    +0.000 C 
ATOM     31  O   UNL     1       7.732   6.878  16.601  0.00  0.00    +0.000 OA
ENDBRANCH  23  31
ENDBRANCH  21  28
ENDBRANCH  19  21
ENDBRANCH   1  19
TORSDOF 7
ENDMDL
MODEL 6
REMARK VINA RESULT:      -7.6      3.401      8.214
REMARK  Name = 
REMARK  9 active torsions:
REMARK  status: ('A' for Active; 'I' for Inactive)
REMARK    1  A    between atoms: C_1  and  O_2
REMARK    2  A    between atoms: O_2  and  C_3
REMARK    3  A    between atoms: C_8  and  C_9
REMARK    4  A    between atoms: C_9  and  C_10
REMARK    5  A    between atoms: C_9  and  N_11
REMARK    6  A    between atoms: N_11  and  C_12
REMARK    7  A    between atoms: C_16  and  S_17
REMARK    8  A    between atoms: S_17  and  N_20
REMARK    9  A    between atoms: N_20  and  C_21
REMARK                            x       y       z     vdW  Elec       q    Type
REMARK                         _______ _______ _______ _____ _____    ______ ____
ROOT
ATOM      1  C   UNL     1       1.874   7.575  19.978  0.00  0.00    +0.000 A 
ATOM      2  C   UNL     1       2.502   7.443  18.731  0.00  0.00    +0.000 A 
ATOM      3  C   UNL     1       3.012   6.210  18.293  0.00  0.00    +0.000 A 
ATOM      4  F   UNL     1       3.609   6.172  17.095  0.00  0.00    +0.000 F 
ATOM      5  C   UNL     1       2.936   5.080  19.091  0.00  0.00    +0.000 A 
ATOM      6  C   UNL     1       2.325   5.193  20.329  0.00  0.00    +0.000 A 
ATOM      7  F   UNL     1       2.242   4.153  21.169  0.00  0.00    +0.000 F 
ATOM      8  C   UNL     1       1.813   6.421  20.768  0.00  0.00    +0.000 A 
ENDROOT
BRANCH   5   9
ATOM      9  S   UNL     1       3.514   3.522  18.516  0.00  0.00    +0.000 S 
ATOM     10  O   UNL     1       2.810   2.468  19.209  0.00  0.00    +0.000 OA
ATOM     11  O   UNL     1       3.519   3.556  17.072  0.00  0.00    +0.000 OA
BRANCH   9  12
ATOM     12  N   UNL     1       5.150   3.485  18.995  0.00  0.00    +0.000 N 
ATOM     13  H   UNL     1       5.498   2.538  18.846  0.00  0.00    +0.000 HD
BRANCH  12  14
ATOM     14  C   UNL     1       5.990   4.475  18.505  0.00  0.00    +0.000 A 
ATOM     15  C   UNL     1       6.560   5.495  19.240  0.00  0.00    +0.000 A 
ATOM     16  S   UNL     1       7.545   6.466  18.226  0.00  0.00    +0.000 S 
ATOM     17  C   UNL     1       7.137   5.448  16.907  0.00  0.00    +0.000 A 
ATOM     18  N   UNL     1       6.356   4.427  17.181  0.00  0.00    +0.000 NA
ENDBRANCH  12  14
ENDBRANCH   9  12
ENDBRANCH   5   9
BRANCH   1  19
ATOM     19  N   UNL     1       1.486   8.850  20.420  0.00  0.00    +0.000 N 
ATOM     20  H   UNL     1       1.998   9.599  19.961  0.00  0.00    +0.000 HD
BRANCH  19  21
ATOM     21  C   UNL     1       0.062   9.167  20.613  0.00  0.00    +0.000 C 
ATOM     22  C   UNL     1      -0.265   9.312  22.108  0.00  0.00    +0.000 C 
BRANCH  21  28
ATOM     23  C   UNL     1      -1.572  11.641  18.157  0.00  0.00    +0.000 A 
ATOM     24  C   UNL     1      -0.718  12.737  18.291  0.00  0.00    +0.000 A 
ATOM     25  C   UNL     1       0.272  12.731  19.275  0.00  0.00    +0.000 A 
ATOM     26  C   UNL     1       0.447  11.606  20.078  0.00  0.00    +0.000 A 
ATOM     27  F   UNL     1       1.429  11.624  20.991  0.00  0.00    +0.000 F 
ATOM     28  C   UNL     1      -0.338  10.460  19.915  0.00  0.00    +0.000 A 
ATOM     29  C   UNL     1      -1.382  10.515  18.973  0.00  0.00    +0.000 A 
BRANCH  23  31
ATOM     30  C   UNL     1      -2.488  10.532  16.256  0.00  0.00    +0.000 C 
ATOM     31  O   UNL     1      -2.599  11.532  17.262  0.00  0.00    +0.000 OA
ENDBRANCH  23  31
ENDBRANCH  21  28
ENDBRANCH  19  21
ENDBRANCH   1  19
TORSDOF 7
ENDMDL
MODEL 7
REMARK VINA RESULT:      -7.6      3.586      8.475
REMARK  Name = 
REMARK  9 active torsions:
REMARK  status: ('A' for Active; 'I' for Inactive)
REMARK    1  A    between atoms: C_1  and  O_2
REMARK    2  A    between atoms: O_2  and  C_3
REMARK    3  A    between atoms: C_8  and  C_9
REMARK    4  A    between atoms: C_9  and  C_10
REMARK    5  A    between atoms: C_9  and  N_11
REMARK    6  A    between atoms: N_11  and  C_12
REMARK    7  A    between atoms: C_16  and  S_17
REMARK    8  A    between atoms: S_17  and  N_20
REMARK    9  A    between atoms: N_20  and  C_21
REMARK                            x       y       z     vdW  Elec       q    Type
REMARK                         _______ _______ _______ _____ _____    ______ ____
ROOT
ATOM      1  C   UNL     1       2.267   7.960  18.699  0.00  0.00    +0.000 A 
ATOM      2  C   UNL     1       2.468   6.933  19.633  0.00  0.00    +0.000 A 
ATOM      3  C   UNL     1       3.432   5.932  19.428  0.00  0.00    +0.000 A 
ATOM      4  F   UNL     1       3.551   4.980  20.362  0.00  0.00    +0.000 F 
ATOM      5  C   UNL     1       4.204   5.909  18.278  0.00  0.00    +0.000 A 
ATOM      6  C   UNL     1       4.015   6.911  17.341  0.00  0.00    +0.000 A 
ATOM      7  F   UNL     1       4.702   6.936  16.191  0.00  0.00    +0.000 F 
ATOM      8  C   UNL     1       3.057   7.912  17.544  0.00  0.00    +0.000 A 
ENDROOT
BRANCH   5   9
ATOM      9  S   UNL     1       5.456   4.694  18.051  0.00  0.00    +0.000 S 
ATOM     10  O   UNL     1       6.430   5.186  17.104  0.00  0.00    +0.000 OA
ATOM     11  O   UNL     1       5.884   4.249  19.357  0.00  0.00    +0.000 OA
BRANCH   9  12
ATOM     12  N   UNL     1       4.634   3.377  17.347  0.00  0.00    +0.000 N 
ATOM     13  H   UNL     1       5.316   2.639  17.176  0.00  0.00    +0.000 HD
BRANCH  12  14
ATOM     14  C   UNL     1       3.471   2.936  17.964  0.00  0.00    +0.000 A 
ATOM     15  C   UNL     1       2.181   3.220  17.564  0.00  0.00    +0.000 A 
ATOM     16  S   UNL     1       1.062   2.443  18.606  0.00  0.00    +0.000 S 
ATOM     17  C   UNL     1       2.382   1.794  19.488  0.00  0.00    +0.000 A 
ATOM     18  N   UNL     1       3.583   2.086  19.039  0.00  0.00    +0.000 NA
ENDBRANCH  12  14
ENDBRANCH   9  12
ENDBRANCH   5   9
BRANCH   1  19
ATOM     19  N   UNL     1       1.214   8.868  18.892  0.00  0.00    +0.000 N 
ATOM     20  H   UNL     1       0.331   8.409  19.098  0.00  0.00    +0.000 HD
BRANCH  19  21
ATOM     21  C   UNL     1       1.424  10.088  19.689  0.00  0.00    +0.000 C 
ATOM     22  C   UNL     1       1.332  11.339  18.802  0.00  0.00    +0.000 C 
BRANCH  21  28
ATOM     23  C   UNL     1      -1.407  11.470  21.903  0.00  0.00    +0.000 A 
ATOM     24  C   UNL     1      -1.162  10.783  23.092  0.00  0.00    +0.000 A 
ATOM     25  C   UNL     1      -0.197   9.774  23.126  0.00  0.00    +0.000 A 
ATOM     26  C   UNL     1       0.563   9.500  21.991  0.00  0.00    +0.000 A 
ATOM     27  F   UNL     1       1.503   8.546  22.069  0.00  0.00    +0.000 F 
ATOM     28  C   UNL     1       0.399  10.226  20.806  0.00  0.00    +0.000 A 
ATOM     29  C   UNL     1      -0.633  11.183  20.768  0.00  0.00    +0.000 A 
BRANCH  23  31
ATOM     30  C   UNL     1      -2.603  12.871  20.390  0.00  0.00    +0.000 C 
ATOM     31  O   UNL     1      -2.342  12.451  21.724  0.00  0.00    +0.000 OA
ENDBRANCH  23  31
ENDBRANCH  21  28
ENDBRANCH  19  21
ENDBRANCH   1  19
TORSDOF 7
ENDMDL
MODEL 8
REMARK VINA RESULT:      -7.6      1.621      2.579
REMARK  Name = 
REMARK  9 active torsions:
REMARK  status: ('A' for Active; 'I' for Inactive)
REMARK    1  A    between atoms: C_1  and  O_2
REMARK    2  A    between atoms: O_2  and  C_3
REMARK    3  A    between atoms: C_8  and  C_9
REMARK    4  A    between atoms: C_9  and  C_10
REMARK    5  A    between atoms: C_9  and  N_11
REMARK    6  A    between atoms: N_11  and  C_12
REMARK    7  A    between atoms: C_16  and  S_17
REMARK    8  A    between atoms: S_17  and  N_20
REMARK    9  A    between atoms: N_20  and  C_21
REMARK                            x       y       z     vdW  Elec       q    Type
REMARK                         _______ _______ _______ _____ _____    ______ ____
ROOT
ATOM      1  C   UNL     1       2.239   6.546  19.076  0.00  0.00    +0.000 A 
ATOM      2  C   UNL     1       1.802   6.898  20.361  0.00  0.00    +0.000 A 
ATOM      3  C   UNL     1       1.393   8.207  20.664  0.00  0.00    +0.000 A 
ATOM      4  F   UNL     1       1.003   8.464  21.919  0.00  0.00    +0.000 F 
ATOM      5  C   UNL     1       1.429   9.208  19.706  0.00  0.00    +0.000 A 
ATOM      6  C   UNL     1       1.864   8.880  18.433  0.00  0.00    +0.000 A 
ATOM      7  F   UNL     1       1.957   9.800  17.464  0.00  0.00    +0.000 F 
ATOM      8  C   UNL     1       2.270   7.575  18.127  0.00  0.00    +0.000 A 
ENDROOT
BRANCH   5   9
ATOM      9  S   UNL     1       0.855  10.830  20.067  0.00  0.00    +0.000 S 
ATOM     10  O   UNL     1       1.566  11.343  21.216  0.00  0.00    +0.000 OA
ATOM     11  O   UNL     1       0.843  11.581  18.834  0.00  0.00    +0.000 OA
BRANCH   9  12
ATOM     12  N   UNL     1      -0.779  10.604  20.501  0.00  0.00    +0.000 N 
ATOM     13  H   UNL     1      -0.880   9.653  20.852  0.00  0.00    +0.000 HD
BRANCH  12  14
ATOM     14  C   UNL     1      -1.373  11.567  21.305  0.00  0.00    +0.000 A 
ATOM     15  C   UNL     1      -1.963  12.736  20.873  0.00  0.00    +0.000 A 
ATOM     16  S   UNL     1      -2.588  13.606  22.213  0.00  0.00    +0.000 S 
ATOM     17  C   UNL     1      -2.030  12.355  23.245  0.00  0.00    +0.000 A 
ATOM     18  N   UNL     1      -1.451  11.331  22.658  0.00  0.00    +0.000 NA
ENDBRANCH  12  14
ENDBRANCH   9  12
ENDBRANCH   5   9
BRANCH   1  19
ATOM     19  N   UNL     1       2.748   5.256  18.853  0.00  0.00    +0.000 N 
ATOM     20  H   UNL     1       2.573   4.922  17.909  0.00  0.00    +0.000 HD
BRANCH  19  21
ATOM     21  C   UNL     1       4.083   4.889  19.352  0.00  0.00    +0.000 C 
ATOM     22  C   UNL     1       4.067   3.479  19.961  0.00  0.00    +0.000 C 
BRANCH  21  28
ATOM     23  C   UNL     1       5.836   4.393  15.960  0.00  0.00    +0.000 A 
ATOM     24  C   UNL     1       7.173   4.490  16.345  0.00  0.00    +0.000 A 
ATOM     25  C   UNL     1       7.495   4.868  17.650  0.00  0.00    +0.000 A 
ATOM     26  C   UNL     1       6.482   5.084  18.581  0.00  0.00    +0.000 A 
ATOM     27  F   UNL     1       6.829   5.415  19.834  0.00  0.00    +0.000 F 
ATOM     28  C   UNL     1       5.133   4.915  18.250  0.00  0.00    +0.000 A 
ATOM     29  C   UNL     1       4.826   4.613  16.909  0.00  0.00    +0.000 A 
BRANCH  23  31
ATOM     30  C   UNL     1       6.337   4.054  13.653  0.00  0.00    +0.000 C 
ATOM     31  O   UNL     1       5.385   4.068  14.711  0.00  0.00    +0.000 OA
ENDBRANCH  23  31
ENDBRANCH  21  28
ENDBRANCH  19  21
ENDBRANCH   1  19
TORSDOF 7
ENDMDL
MODEL 9
REMARK VINA RESULT:      -7.6      2.066      2.998
REMARK  Name = 
REMARK  9 active torsions:
REMARK  status: ('A' for Active; 'I' for Inactive)
REMARK    1  A    between atoms: C_1  and  O_2
REMARK    2  A    between atoms: O_2  and  C_3
REMARK    3  A    between atoms: C_8  and  C_9
REMARK    4  A    between atoms: C_9  and  C_10
REMARK    5  A    between atoms: C_9  and  N_11
REMARK    6  A    between atoms: N_11  and  C_12
REMARK    7  A    between atoms: C_16  and  S_17
REMARK    8  A    between atoms: S_17  and  N_20
REMARK    9  A    between atoms: N_20  and  C_21
REMARK                            x       y       z     vdW  Elec       q    Type
REMARK                         _______ _______ _______ _____ _____    ______ ____
ROOT
ATOM      1  C   UNL     1       2.234   6.404  19.073  0.00  0.00    +0.000 A 
ATOM      2  C   UNL     1       1.840   6.776  20.366  0.00  0.00    +0.000 A 
ATOM      3  C   UNL     1       1.419   8.084  20.657  0.00  0.00    +0.000 A 
ATOM      4  F   UNL     1       1.073   8.362  21.920  0.00  0.00    +0.000 F 
ATOM      5  C   UNL     1       1.401   9.064  19.677  0.00  0.00    +0.000 A 
ATOM      6  C   UNL     1       1.794   8.716  18.395  0.00  0.00    +0.000 A 
ATOM      7  F   UNL     1       1.833   9.617  17.405  0.00  0.00    +0.000 F 
ATOM      8  C   UNL     1       2.212   7.412  18.101  0.00  0.00    +0.000 A 
ENDROOT
BRANCH   5   9
ATOM      9  S   UNL     1       0.811  10.684  20.025  0.00  0.00    +0.000 S 
ATOM     10  O   UNL     1      -0.587  10.768  19.669  0.00  0.00    +0.000 OA
ATOM     11  O   UNL     1       1.236  11.033  21.361  0.00  0.00    +0.000 OA
BRANCH   9  12
ATOM     12  N   UNL     1       1.699  11.685  18.969  0.00  0.00    +0.000 N 
ATOM     13  H   UNL     1       1.441  11.438  18.014  0.00  0.00    +0.000 HD
BRANCH  12  14
ATOM     14  C   UNL     1       1.696  13.051  19.217  0.00  0.00    +0.000 A 
ATOM     15  C   UNL     1       2.707  13.770  19.820  0.00  0.00    +0.000 A 
ATOM     16  S   UNL     1       2.279  15.430  19.894  0.00  0.00    +0.000 S 
ATOM     17  C   UNL     1       0.800  15.051  19.114  0.00  0.00    +0.000 A 
ATOM     18  N   UNL     1       0.625  13.793  18.776  0.00  0.00    +0.000 NA
ENDBRANCH  12  14
ENDBRANCH   9  12
ENDBRANCH   5   9
BRANCH   1  19
ATOM     19  N   UNL     1       2.758   5.119  18.858  0.00  0.00    +0.000 N 
ATOM     20  H   UNL     1       2.553   4.760  17.929  0.00  0.00    +0.000 HD
BRANCH  19  21
ATOM     21  C   UNL     1       4.118   4.786  19.312  0.00  0.00    +0.000 C 
ATOM     22  C   UNL     1       4.186   3.333  19.806  0.00  0.00    +0.000 C 
BRANCH  21  28
ATOM     23  C   UNL     1       5.823   4.710  15.860  0.00  0.00    +0.000 A 
ATOM     24  C   UNL     1       7.164   4.789  16.235  0.00  0.00    +0.000 A 
ATOM     25  C   UNL     1       7.501   5.024  17.569  0.00  0.00    +0.000 A 
ATOM     26  C   UNL     1       6.500   5.114  18.534  0.00  0.00    +0.000 A 
ATOM     27  F   UNL     1       6.862   5.308  19.811  0.00  0.00    +0.000 F 
ATOM     28  C   UNL     1       5.149   4.957  18.204  0.00  0.00    +0.000 A 
ATOM     29  C   UNL     1       4.825   4.802  16.843  0.00  0.00    +0.000 A 
BRANCH  23  31
ATOM     30  C   UNL     1       6.210   3.842  13.674  0.00  0.00    +0.000 C 
ATOM     31  O   UNL     1       5.357   4.519  14.589  0.00  0.00    +0.000 OA
ENDBRANCH  23  31
ENDBRANCH  21  28
ENDBRANCH  19  21
ENDBRANCH   1  19
TORSDOF 7
ENDMDL
