MODEL 1
REMARK VINA RESULT:      -6.5      0.000      0.000
REMARK  Name = 
REMARK  8 active torsions:
REMARK  status: ('A' for Active; 'I' for Inactive)
REMARK    1  A    between atoms: C_1  and  C_2
REMARK    2  A    between atoms: C_2  and  N_3
REMARK    3  A    between atoms: C_6  and  N_7
REMARK    4  A    between atoms: C_8  and  C_10
REMARK    5  A    between atoms: C_10  and  N_11
REMARK    6  A    between atoms: C_15  and  N_16
REMARK    7  A    between atoms: N_16  and  S_17
REMARK    8  A    between atoms: S_17  and  C_18
REMARK                            x       y       z     vdW  Elec       q    Type
REMARK                         _______ _______ _______ _____ _____    ______ ____
ROOT
ATOM      1  C   UNL     1       2.061   8.801  18.539  0.00  0.00    +0.000 C 
ENDROOT
BRANCH   1   2
ATOM      2  N   UNL     1       0.843   9.456  19.097  0.00  0.00    +0.000 NA
ATOM      3  C   UNL     1       1.218  10.509  20.055  0.00  0.00    +0.000 C 
ATOM      4  C   UNL     1       0.016  11.336  20.517  0.00  0.00    +0.000 C 
ATOM      5  C   UNL     1      -0.752  11.930  19.337  0.00  0.00    +0.000 C 
ATOM      6  C   UNL     1      -1.172  10.809  18.379  0.00  0.00    +0.000 C 
ATOM      7  C   UNL     1       0.074  10.006  17.959  0.00  0.00    +0.000 C 
BRANCH   6   8
ATOM      8  N   UNL     1      -1.899  11.400  17.227  0.00  0.00    +0.000 NA
ATOM      9  H   UNL     1      -1.326  11.725  16.446  0.00  0.00    +0.000 HD
BRANCH   8  10
ATOM     10  S   UNL     1      -3.337  10.724  16.668  0.00  0.00    +0.000 S 
ATOM     11  C   UNL     1      -2.941  10.301  14.984  0.00  0.00    +0.000 C 
ATOM     12  O   UNL     1      -3.518   9.504  17.422  0.00  0.00    +0.000 OA
ATOM     13  O   UNL     1      -4.358  11.742  16.675  0.00  0.00    +0.000 OA
ENDBRANCH   8  10
ENDBRANCH   6   8
ENDBRANCH   1   2
BRANCH   1  15
ATOM     14  N   UNL     1       2.837   6.500  18.193  0.00  0.00    +0.000 N 
ATOM     15  C   UNL     1       2.262   7.390  19.077  0.00  0.00    +0.000 C 
ATOM     16  O   UNL     1       1.955   7.083  20.232  0.00  0.00    +0.000 OA
ATOM     17  H   UNL     1       2.800   6.776  17.216  0.00  0.00    +0.000 HD
BRANCH  14  21
ATOM     18  N   UNL     1       5.868   4.464  18.016  0.00  0.00    +0.000 NA
ATOM     19  C   UNL     1       5.471   5.290  19.166  0.00  0.00    +0.000 C 
ATOM     20  C   UNL     1       4.072   4.930  19.656  0.00  0.00    +0.000 C 
ATOM     21  C   UNL     1       3.040   5.095  18.547  0.00  0.00    +0.000 C 
ATOM     22  C   UNL     1       3.463   4.245  17.348  0.00  0.00    +0.000 C 
ATOM     23  C   UNL     1       4.895   4.560  16.910  0.00  0.00    +0.000 C 
BRANCH  18  25
ATOM     24  C   UNL     1       7.494   6.319  17.534  0.00  0.00    +0.000 C 
ATOM     25  C   UNL     1       7.216   4.818  17.534  0.00  0.00    +0.000 C 
ENDBRANCH  18  25
ENDBRANCH  14  21
ENDBRANCH   1  15
TORSDOF 6
ENDMDL
MODEL 2
REMARK VINA RESULT:      -6.5      0.836      1.054
REMARK  Name = 
REMARK  8 active torsions:
REMARK  status: ('A' for Active; 'I' for Inactive)
REMARK    1  A    between atoms: C_1  and  C_2
REMARK    2  A    between atoms: C_2  and  N_3
REMARK    3  A    between atoms: C_6  and  N_7
REMARK    4  A    between atoms: C_8  and  C_10
REMARK    5  A    between atoms: C_10  and  N_11
REMARK    6  A    between atoms: C_15  and  N_16
REMARK    7  A    between atoms: N_16  and  S_17
REMARK    8  A    between atoms: S_17  and  C_18
REMARK                            x       y       z     vdW  Elec       q    Type
REMARK                         _______ _______ _______ _____ _____    ______ ____
ROOT
ATOM      1  C   UNL     1       1.975   8.913  18.622  0.00  0.00    +0.000 C 
ENDROOT
BRANCH   1   2
ATOM      2  N   UNL     1       0.696   9.523  19.086  0.00  0.00    +0.000 NA
ATOM      3  C   UNL     1       0.956  10.535  20.124  0.00  0.00    +0.000 C 
ATOM      4  C   UNL     1      -0.300  11.323  20.503  0.00  0.00    +0.000 C 
ATOM      5  C   UNL     1      -0.959  11.962  19.282  0.00  0.00    +0.000 C 
ATOM      6  C   UNL     1      -1.263  10.882  18.236  0.00  0.00    +0.000 C 
ATOM      7  C   UNL     1       0.032  10.117  17.905  0.00  0.00    +0.000 C 
BRANCH   6   8
ATOM      8  N   UNL     1      -1.884  11.518  17.047  0.00  0.00    +0.000 NA
ATOM      9  H   UNL     1      -1.250  11.990  16.400  0.00  0.00    +0.000 HD
BRANCH   8  10
ATOM     10  S   UNL     1      -3.130  10.756  16.206  0.00  0.00    +0.000 S 
ATOM     11  C   UNL     1      -4.567  11.674  16.720  0.00  0.00    +0.000 C 
ATOM     12  O   UNL     1      -2.883  11.027  14.807  0.00  0.00    +0.000 OA
ATOM     13  O   UNL     1      -3.240   9.397  16.676  0.00  0.00    +0.000 OA
ENDBRANCH   8  10
ENDBRANCH   6   8
ENDBRANCH   1   2
BRANCH   1  15
ATOM     14  N   UNL     1       2.725   6.609  18.236  0.00  0.00    +0.000 N 
ATOM     15  C   UNL     1       2.162   7.492  19.137  0.00  0.00    +0.000 C 
ATOM     16  O   UNL     1       1.855   7.170  20.287  0.00  0.00    +0.000 OA
ATOM     17  H   UNL     1       2.688   6.902  17.264  0.00  0.00    +0.000 HD
BRANCH  14  21
ATOM     18  N   UNL     1       5.741   4.552  18.048  0.00  0.00    +0.000 NA
ATOM     19  C   UNL     1       5.341   5.361  19.209  0.00  0.00    +0.000 C 
ATOM     20  C   UNL     1       3.935   5.005  19.681  0.00  0.00    +0.000 C 
ATOM     21  C   UNL     1       2.914   5.198  18.567  0.00  0.00    +0.000 C 
ATOM     22  C   UNL     1       3.340   4.365  17.356  0.00  0.00    +0.000 C 
ATOM     23  C   UNL     1       4.778   4.676  16.936  0.00  0.00    +0.000 C 
BRANCH  18  25
ATOM     24  C   UNL     1       7.737   6.046  18.366  0.00  0.00    +0.000 C 
ATOM     25  C   UNL     1       7.096   4.904  17.583  0.00  0.00    +0.000 C 
ENDBRANCH  18  25
ENDBRANCH  14  21
ENDBRANCH   1  15
TORSDOF 6
ENDMDL
MODEL 3
REMARK VINA RESULT:      -6.4      3.238      4.221
REMARK  Name = 
REMARK  8 active torsions:
REMARK  status: ('A' for Active; 'I' for Inactive)
REMARK    1  A    between atoms: C_1  and  C_2
REMARK    2  A    between atoms: C_2  and  N_3
REMARK    3  A    between atoms: C_6  and  N_7
REMARK    4  A    between atoms: C_8  and  C_10
REMARK    5  A    between atoms: C_10  and  N_11
REMARK    6  A    between atoms: C_15  and  N_16
REMARK    7  A    between atoms: N_16  and  S_17
REMARK    8  A    between atoms: S_17  and  C_18
REMARK                            x       y       z     vdW  Elec       q    Type
REMARK                         _______ _______ _______ _____ _____    ______ ____
ROOT
ATOM      1  C   UNL     1       2.318   5.897  19.850  0.00  0.00    +0.000 C 
ENDROOT
BRANCH   1   2
ATOM      2  N   UNL     1       2.378   7.368  19.612  0.00  0.00    +0.000 NA
ATOM      3  C   UNL     1       2.213   7.664  18.179  0.00  0.00    +0.000 C 
ATOM      4  C   UNL     1       2.081   9.163  17.901  0.00  0.00    +0.000 C 
ATOM      5  C   UNL     1       0.951   9.793  18.715  0.00  0.00    +0.000 C 
ATOM      6  C   UNL     1       1.170   9.512  20.206  0.00  0.00    +0.000 C 
ATOM      7  C   UNL     1       1.309   7.993  20.422  0.00  0.00    +0.000 C 
BRANCH   6   8
ATOM      8  N   UNL     1       0.056  10.111  20.983  0.00  0.00    +0.000 NA
ATOM      9  H   UNL     1      -0.825  10.247  20.484  0.00  0.00    +0.000 HD
BRANCH   8  10
ATOM     10  S   UNL     1      -0.230   9.659  22.581  0.00  0.00    +0.000 S 
ATOM     11  C   UNL     1      -1.322  10.941  23.160  0.00  0.00    +0.000 C 
ATOM     12  O   UNL     1      -0.967   8.417  22.513  0.00  0.00    +0.000 OA
ATOM     13  O   UNL     1       1.013   9.729  23.309  0.00  0.00    +0.000 OA
ENDBRANCH   8  10
ENDBRANCH   6   8
ENDBRANCH   1   2
BRANCH   1  15
ATOM     14  N   UNL     1       4.559   5.457  18.953  0.00  0.00    +0.000 N 
ATOM     15  C   UNL     1       3.222   5.117  18.903  0.00  0.00    +0.000 C 
ATOM     16  O   UNL     1       2.784   4.229  18.169  0.00  0.00    +0.000 OA
ATOM     17  H   UNL     1       4.761   6.357  19.380  0.00  0.00    +0.000 HD
BRANCH  14  21
ATOM     18  N   UNL     1       7.447   6.934  17.266  0.00  0.00    +0.000 NA
ATOM     19  C   UNL     1       7.461   6.360  18.620  0.00  0.00    +0.000 C 
ATOM     20  C   UNL     1       6.953   4.922  18.622  0.00  0.00    +0.000 C 
ATOM     21  C   UNL     1       5.539   4.836  18.063  0.00  0.00    +0.000 C 
ATOM     22  C   UNL     1       5.524   5.446  16.660  0.00  0.00    +0.000 C 
ATOM     23  C   UNL     1       6.105   6.862  16.654  0.00  0.00    +0.000 C 
BRANCH  18  25
ATOM     24  C   UNL     1       8.570   8.759  18.579  0.00  0.00    +0.000 C 
ATOM     25  C   UNL     1       7.927   8.329  17.263  0.00  0.00    +0.000 C 
ENDBRANCH  18  25
ENDBRANCH  14  21
ENDBRANCH   1  15
TORSDOF 6
ENDMDL
MODEL 4
REMARK VINA RESULT:      -6.4      3.703      8.603
REMARK  Name = 
REMARK  8 active torsions:
REMARK  status: ('A' for Active; 'I' for Inactive)
REMARK    1  A    between atoms: C_1  and  C_2
REMARK    2  A    between atoms: C_2  and  N_3
REMARK    3  A    between atoms: C_6  and  N_7
REMARK    4  A    between atoms: C_8  and  C_10
REMARK    5  A    between atoms: C_10  and  N_11
REMARK    6  A    between atoms: C_15  and  N_16
REMARK    7  A    between atoms: N_16  and  S_17
REMARK    8  A    between atoms: S_17  and  C_18
REMARK                            x       y       z     vdW  Elec       q    Type
REMARK                         _______ _______ _______ _____ _____    ______ ____
ROOT
ATOM      1  C   UNL     1       2.704   7.415  18.802  0.00  0.00    +0.000 C 
ENDROOT
BRANCH   1   2
ATOM      2  N   UNL     1       2.920   5.950  18.975  0.00  0.00    +0.000 NA
ATOM      3  C   UNL     1       2.135   5.194  17.984  0.00  0.00    +0.000 C 
ATOM      4  C   UNL     1       2.461   3.698  17.995  0.00  0.00    +0.000 C 
ATOM      5  C   UNL     1       3.956   3.442  17.807  0.00  0.00    +0.000 C 
ATOM      6  C   UNL     1       4.748   4.201  18.878  0.00  0.00    +0.000 C 
ATOM      7  C   UNL     1       4.370   5.694  18.828  0.00  0.00    +0.000 C 
BRANCH   6   8
ATOM      8  N   UNL     1       6.199   3.961  18.672  0.00  0.00    +0.000 NA
ATOM      9  H   UNL     1       6.489   2.986  18.577  0.00  0.00    +0.000 HD
BRANCH   8  10
ATOM     10  S   UNL     1       7.108   4.954  17.659  0.00  0.00    +0.000 S 
ATOM     11  C   UNL     1       7.761   6.169  18.786  0.00  0.00    +0.000 C 
ATOM     12  O   UNL     1       8.198   4.134  17.179  0.00  0.00    +0.000 OA
ATOM     13  O   UNL     1       6.218   5.599  16.727  0.00  0.00    +0.000 OA
ENDBRANCH   8  10
ENDBRANCH   6   8
ENDBRANCH   1   2
BRANCH   1  15
ATOM     14  N   UNL     1       1.096   9.161  19.424  0.00  0.00    +0.000 N 
ATOM     15  C   UNL     1       1.698   7.977  19.799  0.00  0.00    +0.000 C 
ATOM     16  O   UNL     1       1.428   7.393  20.851  0.00  0.00    +0.000 OA
ATOM     17  H   UNL     1       1.576   9.677  18.691  0.00  0.00    +0.000 HD
BRANCH  14  21
ATOM     18  N   UNL     1       0.227  12.708  19.592  0.00  0.00    +0.000 NA
ATOM     19  C   UNL     1      -0.424  11.718  18.720  0.00  0.00    +0.000 C 
ATOM     20  C   UNL     1      -0.960  10.536  19.519  0.00  0.00    +0.000 C 
ATOM     21  C   UNL     1       0.152   9.850  20.303  0.00  0.00    +0.000 C 
ATOM     22  C   UNL     1       0.836  10.884  21.199  0.00  0.00    +0.000 C 
ATOM     23  C   UNL     1       1.304  12.102  20.399  0.00  0.00    +0.000 C 
BRANCH  18  25
ATOM     24  C   UNL     1       2.118  13.579  18.184  0.00  0.00    +0.000 C 
ATOM     25  C   UNL     1       0.756  13.847  18.819  0.00  0.00    +0.000 C 
ENDBRANCH  18  25
ENDBRANCH  14  21
ENDBRANCH   1  15
TORSDOF 6
ENDMDL
MODEL 5
REMARK VINA RESULT:      -6.4      3.689      8.649
REMARK  Name = 
REMARK  8 active torsions:
REMARK  status: ('A' for Active; 'I' for Inactive)
REMARK    1  A    between atoms: C_1  and  C_2
REMARK    2  A    between atoms: C_2  and  N_3
REMARK    3  A    between atoms: C_6  and  N_7
REMARK    4  A    between atoms: C_8  and  C_10
REMARK    5  A    between atoms: C_10  and  N_11
REMARK    6  A    between atoms: C_15  and  N_16
REMARK    7  A    between atoms: N_16  and  S_17
REMARK    8  A    between atoms: S_17  and  C_18
REMARK                            x       y       z     vdW  Elec       q    Type
REMARK                         _______ _______ _______ _____ _____    ______ ____
ROOT
ATOM      1  C   UNL     1       2.403   7.896  18.323  0.00  0.00    +0.000 C 
ENDROOT
BRANCH   1   2
ATOM      2  N   UNL     1       2.762   6.468  18.563  0.00  0.00    +0.000 NA
ATOM      3  C   UNL     1       1.771   5.577  17.938  0.00  0.00    +0.000 C 
ATOM      4  C   UNL     1       2.187   4.105  17.993  0.00  0.00    +0.000 C 
ATOM      5  C   UNL     1       3.570   3.884  17.383  0.00  0.00    +0.000 C 
ATOM      6  C   UNL     1       4.593   4.788  18.082  0.00  0.00    +0.000 C 
ATOM      7  C   UNL     1       4.115   6.251  18.005  0.00  0.00    +0.000 C 
BRANCH   6   8
ATOM      8  N   UNL     1       5.928   4.579  17.466  0.00  0.00    +0.000 NA
ATOM      9  H   UNL     1       6.006   4.786  16.469  0.00  0.00    +0.000 HD
BRANCH   8  10
ATOM     10  S   UNL     1       7.337   5.021  18.277  0.00  0.00    +0.000 S 
ATOM     11  C   UNL     1       7.628   6.674  17.682  0.00  0.00    +0.000 C 
ATOM     12  O   UNL     1       6.981   5.088  19.676  0.00  0.00    +0.000 OA
ATOM     13  O   UNL     1       8.409   4.162  17.839  0.00  0.00    +0.000 OA
ENDBRANCH   8  10
ENDBRANCH   6   8
ENDBRANCH   1   2
BRANCH   1  15
ATOM     14  N   UNL     1       0.790   9.577  19.090  0.00  0.00    +0.000 N 
ATOM     15  C   UNL     1       1.543   8.475  19.440  0.00  0.00    +0.000 C 
ATOM     16  O   UNL     1       1.508   7.970  20.564  0.00  0.00    +0.000 OA
ATOM     17  H   UNL     1       1.091  10.057  18.246  0.00  0.00    +0.000 HD
BRANCH  14  21
ATOM     18  N   UNL     1       0.431  13.162  19.710  0.00  0.00    +0.000 NA
ATOM     19  C   UNL     1      -0.360  12.389  18.741  0.00  0.00    +0.000 C 
ATOM     20  C   UNL     1      -1.051  11.202  19.403  0.00  0.00    +0.000 C 
ATOM     21  C   UNL     1      -0.041  10.276  20.069  0.00  0.00    +0.000 C 
ATOM     22  C   UNL     1       0.789  11.086  21.068  0.00  0.00    +0.000 C 
ATOM     23  C   UNL     1       1.418  12.317  20.411  0.00  0.00    +0.000 C 
BRANCH  18  25
ATOM     24  C   UNL     1       2.312  13.904  18.218  0.00  0.00    +0.000 C 
ATOM     25  C   UNL     1       1.110  14.304  19.069  0.00  0.00    +0.000 C 
ENDBRANCH  18  25
ENDBRANCH  14  21
ENDBRANCH   1  15
TORSDOF 6
ENDMDL
MODEL 6
REMARK VINA RESULT:      -6.3      1.150      1.382
REMARK  Name = 
REMARK  8 active torsions:
REMARK  status: ('A' for Active; 'I' for Inactive)
REMARK    1  A    between atoms: C_1  and  C_2
REMARK    2  A    between atoms: C_2  and  N_3
REMARK    3  A    between atoms: C_6  and  N_7
REMARK    4  A    between atoms: C_8  and  C_10
REMARK    5  A    between atoms: C_10  and  N_11
REMARK    6  A    between atoms: C_15  and  N_16
REMARK    7  A    between atoms: N_16  and  S_17
REMARK    8  A    between atoms: S_17  and  C_18
REMARK                            x       y       z     vdW  Elec       q    Type
REMARK                         _______ _______ _______ _____ _____    ______ ____
ROOT
ATOM      1  C   UNL     1       1.799   8.915  18.247  0.00  0.00    +0.000 C 
ENDROOT
BRANCH   1   2
ATOM      2  N   UNL     1       0.756   9.761  18.894  0.00  0.00    +0.000 NA
ATOM      3  C   UNL     1       1.382  10.839  19.679  0.00  0.00    +0.000 C 
ATOM      4  C   UNL     1       0.360  11.846  20.212  0.00  0.00    +0.000 C 
ATOM      5  C   UNL     1      -0.501  12.427  19.092  0.00  0.00    +0.000 C 
ATOM      6  C   UNL     1      -1.180  11.288  18.320  0.00  0.00    +0.000 C 
ATOM      7  C   UNL     1      -0.106  10.303  17.820  0.00  0.00    +0.000 C 
BRANCH   6   8
ATOM      8  N   UNL     1      -1.997  11.864  17.222  0.00  0.00    +0.000 NA
ATOM      9  H   UNL     1      -1.497  12.422  16.528  0.00  0.00    +0.000 HD
BRANCH   8  10
ATOM     10  S   UNL     1      -3.225  10.970  16.493  0.00  0.00    +0.000 S 
ATOM     11  C   UNL     1      -3.428   9.600  17.612  0.00  0.00    +0.000 C 
ATOM     12  O   UNL     1      -4.407  11.800  16.558  0.00  0.00    +0.000 OA
ATOM     13  O   UNL     1      -2.748  10.481  15.224  0.00  0.00    +0.000 OA
ENDBRANCH   8  10
ENDBRANCH   6   8
ENDBRANCH   1   2
BRANCH   1  15
ATOM     14  N   UNL     1       2.987   6.780  18.473  0.00  0.00    +0.000 N 
ATOM     15  C   UNL     1       2.183   7.711  19.100  0.00  0.00    +0.000 C 
ATOM     16  O   UNL     1       1.819   7.601  20.273  0.00  0.00    +0.000 OA
ATOM     17  H   UNL     1       3.001   6.833  17.459  0.00  0.00    +0.000 HD
BRANCH  14  21
ATOM     18  N   UNL     1       5.059   4.028  17.250  0.00  0.00    +0.000 NA
ATOM     19  C   UNL     1       5.566   5.234  17.922  0.00  0.00    +0.000 C 
ATOM     20  C   UNL     1       4.904   5.438  19.280  0.00  0.00    +0.000 C 
ATOM     21  C   UNL     1       3.390   5.545  19.145  0.00  0.00    +0.000 C 
ATOM     22  C   UNL     1       2.867   4.296  18.435  0.00  0.00    +0.000 C 
ATOM     23  C   UNL     1       3.590   4.057  17.107  0.00  0.00    +0.000 C 
BRANCH  18  25
ATOM     24  C   UNL     1       6.975   4.638  15.742  0.00  0.00    +0.000 C 
ATOM     25  C   UNL     1       5.691   3.836  15.931  0.00  0.00    +0.000 C 
ENDBRANCH  18  25
ENDBRANCH  14  21
ENDBRANCH   1  15
TORSDOF 6
ENDMDL
MODEL 7
REMARK VINA RESULT:      -6.3      0.937      1.216
REMARK  Name = 
REMARK  8 active torsions:
REMARK  status: ('A' for Active; 'I' for Inactive)
REMARK    1  A    between atoms: C_1  and  C_2
REMARK    2  A    between atoms: C_2  and  N_3
REMARK    3  A    between atoms: C_6  and  N_7
REMARK    4  A    between atoms: C_8  and  C_10
REMARK    5  A    between atoms: C_10  and  N_11
REMARK    6  A    between atoms: C_15  and  N_16
REMARK    7  A    between atoms: N_16  and  S_17
REMARK    8  A    between atoms: S_17  and  C_18
REMARK                            x       y       z     vdW  Elec       q    Type
REMARK                         _______ _______ _______ _____ _____    ______ ____
ROOT
ATOM      1  C   UNL     1       2.159   8.802  18.235  0.00  0.00    +0.000 C 
ENDROOT
BRANCH   1   2
ATOM      2  N   UNL     1       0.963   9.401  18.892  0.00  0.00    +0.000 NA
ATOM      3  C   UNL     1       1.371  10.406  19.888  0.00  0.00    +0.000 C 
ATOM      4  C   UNL     1       0.183  11.184  20.459  0.00  0.00    +0.000 C 
ATOM      5  C   UNL     1      -0.655  11.829  19.356  0.00  0.00    +0.000 C 
ATOM      6  C   UNL     1      -1.109  10.756  18.358  0.00  0.00    +0.000 C 
ATOM      7  C   UNL     1       0.126  10.001  17.829  0.00  0.00    +0.000 C 
BRANCH   6   8
ATOM      8  N   UNL     1      -1.904  11.398  17.282  0.00  0.00    +0.000 NA
ATOM      9  H   UNL     1      -1.404  11.625  16.421  0.00  0.00    +0.000 HD
BRANCH   8  10
ATOM     10  S   UNL     1      -3.473  10.889  16.940  0.00  0.00    +0.000 S 
ATOM     11  C   UNL     1      -3.431  10.650  15.176  0.00  0.00    +0.000 C 
ATOM     12  O   UNL     1      -3.617   9.600  17.579  0.00  0.00    +0.000 OA
ATOM     13  O   UNL     1      -4.384  11.962  17.254  0.00  0.00    +0.000 OA
ENDBRANCH   8  10
ENDBRANCH   6   8
ENDBRANCH   1   2
BRANCH   1  15
ATOM     14  N   UNL     1       3.587   6.807  18.226  0.00  0.00    +0.000 N 
ATOM     15  C   UNL     1       2.582   7.489  18.882  0.00  0.00    +0.000 C 
ATOM     16  O   UNL     1       2.075   7.088  19.932  0.00  0.00    +0.000 OA
ATOM     17  H   UNL     1       3.736   7.082  17.259  0.00  0.00    +0.000 HD
BRANCH  14  21
ATOM     18  N   UNL     1       6.031   4.534  16.734  0.00  0.00    +0.000 NA
ATOM     19  C   UNL     1       6.351   5.625  17.666  0.00  0.00    +0.000 C 
ATOM     20  C   UNL     1       5.558   5.504  18.963  0.00  0.00    +0.000 C 
ATOM     21  C   UNL     1       4.058   5.505  18.695  0.00  0.00    +0.000 C 
ATOM     22  C   UNL     1       3.730   4.376  17.716  0.00  0.00    +0.000 C 
ATOM     23  C   UNL     1       4.584   4.463  16.448  0.00  0.00    +0.000 C 
BRANCH  18  25
ATOM     24  C   UNL     1       6.066   4.068  14.265  0.00  0.00    +0.000 C 
ATOM     25  C   UNL     1       6.788   4.656  15.475  0.00  0.00    +0.000 C 
ENDBRANCH  18  25
ENDBRANCH  14  21
ENDBRANCH   1  15
TORSDOF 6
ENDMDL
MODEL 8
REMARK VINA RESULT:      -6.2      1.626      2.085
REMARK  Name = 
REMARK  8 active torsions:
REMARK  status: ('A' for Active; 'I' for Inactive)
REMARK    1  A    between atoms: C_1  and  C_2
REMARK    2  A    between atoms: C_2  and  N_3
REMARK    3  A    between atoms: C_6  and  N_7
REMARK    4  A    between atoms: C_8  and  C_10
REMARK    5  A    between atoms: C_10  and  N_11
REMARK    6  A    between atoms: C_15  and  N_16
REMARK    7  A    between atoms: N_16  and  S_17
REMARK    8  A    between atoms: S_17  and  C_18
REMARK                            x       y       z     vdW  Elec       q    Type
REMARK                         _______ _______ _______ _____ _____    ______ ____
ROOT
ATOM      1  C   UNL     1       2.672   8.129  18.289  0.00  0.00    +0.000 C 
ENDROOT
BRANCH   1   2
ATOM      2  N   UNL     1       1.339   8.494  18.848  0.00  0.00    +0.000 NA
ATOM      3  C   UNL     1       1.490   9.122  20.171  0.00  0.00    +0.000 C 
ATOM      4  C   UNL     1       0.171   9.684  20.708  0.00  0.00    +0.000 C 
ATOM      5  C   UNL     1      -0.475  10.656  19.721  0.00  0.00    +0.000 C 
ATOM      6  C   UNL     1      -0.665   9.964  18.366  0.00  0.00    +0.000 C 
ATOM      7  C   UNL     1       0.689   9.409  17.884  0.00  0.00    +0.000 C 
BRANCH   6   8
ATOM      8  N   UNL     1      -1.274  10.924  17.411  0.00  0.00    +0.000 NA
ATOM      9  H   UNL     1      -0.670  11.265  16.661  0.00  0.00    +0.000 HD
BRANCH   8  10
ATOM     10  S   UNL     1      -2.851  10.714  16.855  0.00  0.00    +0.000 S 
ATOM     11  C   UNL     1      -3.795  11.738  17.964  0.00  0.00    +0.000 C 
ATOM     12  O   UNL     1      -2.885  11.305  15.536  0.00  0.00    +0.000 OA
ATOM     13  O   UNL     1      -3.226   9.335  17.045  0.00  0.00    +0.000 OA
ENDBRANCH   8  10
ENDBRANCH   6   8
ENDBRANCH   1   2
BRANCH   1  15
ATOM     14  N   UNL     1       4.294   6.295  18.128  0.00  0.00    +0.000 N 
ATOM     15  C   UNL     1       3.061   6.690  18.606  0.00  0.00    +0.000 C 
ATOM     16  O   UNL     1       2.331   5.948  19.268  0.00  0.00    +0.000 OA
ATOM     17  H   UNL     1       4.679   6.878  17.390  0.00  0.00    +0.000 HD
BRANCH  14  21
ATOM     18  N   UNL     1       6.380   4.257  15.923  0.00  0.00    +0.000 NA
ATOM     19  C   UNL     1       6.886   5.178  16.951  0.00  0.00    +0.000 C 
ATOM     20  C   UNL     1       6.302   4.860  18.323  0.00  0.00    +0.000 C 
ATOM     21  C   UNL     1       4.780   4.927  18.304  0.00  0.00    +0.000 C 
ATOM     22  C   UNL     1       4.257   3.978  17.225  0.00  0.00    +0.000 C 
ATOM     23  C   UNL     1       4.905   4.256  15.866  0.00  0.00    +0.000 C 
BRANCH  18  25
ATOM     24  C   UNL     1       6.239   3.836  13.449  0.00  0.00    +0.000 C 
ATOM     25  C   UNL     1       6.935   4.570  14.593  0.00  0.00    +0.000 C 
ENDBRANCH  18  25
ENDBRANCH  14  21
ENDBRANCH   1  15
TORSDOF 6
ENDMDL
MODEL 9
REMARK VINA RESULT:      -6.2      3.580      8.721
REMARK  Name = 
REMARK  8 active torsions:
REMARK  status: ('A' for Active; 'I' for Inactive)
REMARK    1  A    between atoms: C_1  and  C_2
REMARK    2  A    between atoms: C_2  and  N_3
REMARK    3  A    between atoms: C_6  and  N_7
REMARK    4  A    between atoms: C_8  and  C_10
REMARK    5  A    between atoms: C_10  and  N_11
REMARK    6  A    between atoms: C_15  and  N_16
REMARK    7  A    between atoms: N_16  and  S_17
REMARK    8  A    between atoms: S_17  and  C_18
REMARK                            x       y       z     vdW  Elec       q    Type
REMARK                         _______ _______ _______ _____ _____    ______ ____
ROOT
ATOM      1  C   UNL     1       2.457   7.125  18.221  0.00  0.00    +0.000 C 
ENDROOT
BRANCH   1   2
ATOM      2  N   UNL     1       2.803   5.736  18.639  0.00  0.00    +0.000 NA
ATOM      3  C   UNL     1       2.148   4.755  17.758  0.00  0.00    +0.000 C 
ATOM      4  C   UNL     1       2.615   3.322  18.026  0.00  0.00    +0.000 C 
ATOM      5  C   UNL     1       4.135   3.195  17.937  0.00  0.00    +0.000 C 
ATOM      6  C   UNL     1       4.793   4.193  18.898  0.00  0.00    +0.000 C 
ATOM      7  C   UNL     1       4.276   5.612  18.590  0.00  0.00    +0.000 C 
BRANCH   6   8
ATOM      8  N   UNL     1       6.269   4.074  18.787  0.00  0.00    +0.000 NA
ATOM      9  H   UNL     1       6.662   3.141  18.925  0.00  0.00    +0.000 HD
BRANCH   8  10
ATOM     10  S   UNL     1       7.120   4.907  17.595  0.00  0.00    +0.000 S 
ATOM     11  C   UNL     1       7.636   6.385  18.445  0.00  0.00    +0.000 C 
ATOM     12  O   UNL     1       8.288   4.104  17.312  0.00  0.00    +0.000 OA
ATOM     13  O   UNL     1       6.206   5.260  16.538  0.00  0.00    +0.000 OA
ENDBRANCH   8  10
ENDBRANCH   6   8
ENDBRANCH   1   2
BRANCH   1  15
ATOM     14  N   UNL     1       1.465   9.217  19.032  0.00  0.00    +0.000 N 
ATOM     15  C   UNL     1       1.951   7.973  19.382  0.00  0.00    +0.000 C 
ATOM     16  O   UNL     1       1.954   7.557  20.543  0.00  0.00    +0.000 OA
ATOM     17  H   UNL     1       1.752   9.552  18.117  0.00  0.00    +0.000 HD
BRANCH  14  21
ATOM     18  N   UNL     1      -1.338  11.562  18.913  0.00  0.00    +0.000 NA
ATOM     19  C   UNL     1      -1.423  10.163  19.361  0.00  0.00    +0.000 C 
ATOM     20  C   UNL     1      -0.432   9.873  20.482  0.00  0.00    +0.000 C 
ATOM     21  C   UNL     1       0.998  10.165  20.043  0.00  0.00    +0.000 C 
ATOM     22  C   UNL     1       1.081  11.616  19.566  0.00  0.00    +0.000 C 
ATOM     23  C   UNL     1       0.032  11.919  18.494  0.00  0.00    +0.000 C 
BRANCH  18  25
ATOM     24  C   UNL     1      -2.338  10.749  16.756  0.00  0.00    +0.000 C 
ATOM     25  C   UNL     1      -2.288  11.841  17.821  0.00  0.00    +0.000 C 
ENDBRANCH  18  25
ENDBRANCH  14  21
ENDBRANCH   1  15
TORSDOF 6
ENDMDL
