MODEL 1
REMARK VINA RESULT:      -7.3      0.000      0.000
REMARK  Name = 
REMARK  6 active torsions:
REMARK  status: ('A' for Active; 'I' for Inactive)
REMARK    1  A    between atoms: N_1  and  C_2
REMARK    2  A    between atoms: C_2  and  C_3
REMARK    3  A    between atoms: C_7  and  C_8
REMARK    4  A    between atoms: C_8  and  N_9
REMARK    5  A    between atoms: N_9  and  S_10
REMARK    6  A    between atoms: S_10  and  C_13
REMARK                            x       y       z     vdW  Elec       q    Type
REMARK                         _______ _______ _______ _____ _____    ______ ____
ROOT
ATOM      1  C   UNL     1       5.567   3.969  15.601  0.00  0.00    +0.000 C 
ENDROOT
BRANCH   1   6
ATOM      2  C   UNL     1       6.601   4.188  13.200  0.00  0.00    +0.000 A 
ATOM      3  N   UNL     1       7.655   4.908  12.692  0.00  0.00    +0.000 NA
ATOM      4  N   UNL     1       8.189   5.617  13.675  0.00  0.00    +0.000 NA
ATOM      5  N   UNL     1       7.485   5.357  14.786  0.00  0.00    +0.000 N 
ATOM      6  C   UNL     1       6.485   4.458  14.551  0.00  0.00    +0.000 A 
ATOM      7  H   UNL     1       7.731   5.834  15.647  0.00  0.00    +0.000 HD
BRANCH   2   8
ATOM      8  C   UNL     1       5.801   3.296  12.321  0.00  0.00    +0.000 C 
BRANCH   8   9
ATOM      9  N   UNL     1       6.662   2.233  11.803  0.00  0.00    +0.000 NA
ATOM     10  H   UNL     1       7.615   2.587  11.743  0.00  0.00    +0.000 HD
ATOM     11  H   UNL     1       6.380   2.040  10.841  0.00  0.00    +0.000 HD
ENDBRANCH   8   9
ENDBRANCH   2   8
ENDBRANCH   1   6
BRANCH   1  12
ATOM     12  N   UNL     1       6.281   4.016  16.875  0.00  0.00    +0.000 NA
ATOM     13  H   UNL     1       7.264   4.291  16.807  0.00  0.00    +0.000 HD
BRANCH  12  14
ATOM     14  S   UNL     1       5.547   4.899  18.112  0.00  0.00    +0.000 S 
ATOM     15  O   UNL     1       6.297   4.596  19.311  0.00  0.00    +0.000 OA
ATOM     16  O   UNL     1       5.358   6.257  17.658  0.00  0.00    +0.000 OA
BRANCH  14  17
ATOM     17  C   UNL     1       3.953   4.128  18.261  0.00  0.00    +0.000 A 
ATOM     18  C   UNL     1       2.802   4.820  17.870  0.00  0.00    +0.000 A 
ATOM     19  C   UNL     1       1.565   4.174  17.913  0.00  0.00    +0.000 A 
ATOM     20  C   UNL     1       1.481   2.846  18.335  0.00  0.00    +0.000 A 
ATOM     21  C   UNL     1       2.634   2.155  18.710  0.00  0.00    +0.000 A 
ATOM     22  C   UNL     1       3.874   2.791  18.667  0.00  0.00    +0.000 A 
ENDBRANCH  14  17
ENDBRANCH  12  14
ENDBRANCH   1  12
TORSDOF 6
ENDMDL
MODEL 2
REMARK VINA RESULT:      -7.2      1.798      2.261
REMARK  Name = 
REMARK  6 active torsions:
REMARK  status: ('A' for Active; 'I' for Inactive)
REMARK    1  A    between atoms: N_1  and  C_2
REMARK    2  A    between atoms: C_2  and  C_3
REMARK    3  A    between atoms: C_7  and  C_8
REMARK    4  A    between atoms: C_8  and  N_9
REMARK    5  A    between atoms: N_9  and  S_10
REMARK    6  A    between atoms: S_10  and  C_13
REMARK                            x       y       z     vdW  Elec       q    Type
REMARK                         _______ _______ _______ _____ _____    ______ ____
ROOT
ATOM      1  C   UNL     1       6.309   4.179  15.732  0.00  0.00    +0.000 C 
ENDROOT
BRANCH   1   6
ATOM      2  C   UNL     1       6.684   4.250  13.136  0.00  0.00    +0.000 A 
ATOM      3  N   UNL     1       7.555   4.943  12.331  0.00  0.00    +0.000 NA
ATOM      4  N   UNL     1       8.308   5.716  13.098  0.00  0.00    +0.000 NA
ATOM      5  N   UNL     1       7.920   5.524  14.366  0.00  0.00    +0.000 N 
ATOM      6  C   UNL     1       6.914   4.605  14.453  0.00  0.00    +0.000 A 
ATOM      7  H   UNL     1       8.369   6.057  15.104  0.00  0.00    +0.000 HD
BRANCH   2   8
ATOM      8  C   UNL     1       5.705   3.299  12.549  0.00  0.00    +0.000 C 
BRANCH   8   9
ATOM      9  N   UNL     1       6.427   2.215  11.884  0.00  0.00    +0.000 NA
ATOM     10  H   UNL     1       6.842   2.579  11.028  0.00  0.00    +0.000 HD
ATOM     11  H   UNL     1       5.742   1.519  11.584  0.00  0.00    +0.000 HD
ENDBRANCH   8   9
ENDBRANCH   2   8
ENDBRANCH   1   6
BRANCH   1  12
ATOM     12  N   UNL     1       7.338   4.274  16.765  0.00  0.00    +0.000 NA
ATOM     13  H   UNL     1       8.295   4.142  16.432  0.00  0.00    +0.000 HD
BRANCH  12  14
ATOM     14  S   UNL     1       7.282   5.644  17.751  0.00  0.00    +0.000 S 
ATOM     15  O   UNL     1       7.960   5.276  18.975  0.00  0.00    +0.000 OA
ATOM     16  O   UNL     1       7.692   6.788  16.971  0.00  0.00    +0.000 OA
BRANCH  14  17
ATOM     17  C   UNL     1       5.551   5.802  18.117  0.00  0.00    +0.000 A 
ATOM     18  C   UNL     1       4.987   5.066  19.164  0.00  0.00    +0.000 A 
ATOM     19  C   UNL     1       3.645   5.262  19.496  0.00  0.00    +0.000 A 
ATOM     20  C   UNL     1       2.876   6.192  18.793  0.00  0.00    +0.000 A 
ATOM     21  C   UNL     1       3.448   6.935  17.759  0.00  0.00    +0.000 A 
ATOM     22  C   UNL     1       4.788   6.748  17.423  0.00  0.00    +0.000 A 
ENDBRANCH  14  17
ENDBRANCH  12  14
ENDBRANCH   1  12
TORSDOF 6
ENDMDL
MODEL 3
REMARK VINA RESULT:      -7.1      1.998      3.051
REMARK  Name = 
REMARK  6 active torsions:
REMARK  status: ('A' for Active; 'I' for Inactive)
REMARK    1  A    between atoms: N_1  and  C_2
REMARK    2  A    between atoms: C_2  and  C_3
REMARK    3  A    between atoms: C_7  and  C_8
REMARK    4  A    between atoms: C_8  and  N_9
REMARK    5  A    between atoms: N_9  and  S_10
REMARK    6  A    between atoms: S_10  and  C_13
REMARK                            x       y       z     vdW  Elec       q    Type
REMARK                         _______ _______ _______ _____ _____    ______ ____
ROOT
ATOM      1  C   UNL     1       4.539   4.411  16.700  0.00  0.00    +0.000 C 
ENDROOT
BRANCH   1   6
ATOM      2  C   UNL     1       6.916   5.400  16.193  0.00  0.00    +0.000 A 
ATOM      3  N   UNL     1       7.650   5.541  15.041  0.00  0.00    +0.000 NA
ATOM      4  N   UNL     1       6.950   5.037  14.035  0.00  0.00    +0.000 NA
ATOM      5  N   UNL     1       5.796   4.580  14.539  0.00  0.00    +0.000 N 
ATOM      6  C   UNL     1       5.712   4.792  15.886  0.00  0.00    +0.000 A 
ATOM      7  H   UNL     1       5.132   4.128  13.919  0.00  0.00    +0.000 HD
BRANCH   2   8
ATOM      8  C   UNL     1       7.453   5.874  17.495  0.00  0.00    +0.000 C 
BRANCH   8   9
ATOM      9  N   UNL     1       7.806   4.720  18.319  0.00  0.00    +0.000 NA
ATOM     10  H   UNL     1       7.209   3.937  18.056  0.00  0.00    +0.000 HD
ATOM     11  H   UNL     1       7.562   4.937  19.287  0.00  0.00    +0.000 HD
ENDBRANCH   8   9
ENDBRANCH   2   8
ENDBRANCH   1   6
BRANCH   1  12
ATOM     12  N   UNL     1       4.945   3.317  17.580  0.00  0.00    +0.000 NA
ATOM     13  H   UNL     1       5.903   2.988  17.443  0.00  0.00    +0.000 HD
BRANCH  12  14
ATOM     14  S   UNL     1       4.672   3.547  19.231  0.00  0.00    +0.000 S 
ATOM     15  O   UNL     1       5.233   2.387  19.888  0.00  0.00    +0.000 OA
ATOM     16  O   UNL     1       5.078   4.888  19.581  0.00  0.00    +0.000 OA
BRANCH  14  17
ATOM     17  C   UNL     1       2.903   3.442  19.362  0.00  0.00    +0.000 A 
ATOM     18  C   UNL     1       2.212   2.419  18.705  0.00  0.00    +0.000 A 
ATOM     19  C   UNL     1       0.833   2.297  18.882  0.00  0.00    +0.000 A 
ATOM     20  C   UNL     1       0.152   3.185  19.717  0.00  0.00    +0.000 A 
ATOM     21  C   UNL     1       0.848   4.196  20.383  0.00  0.00    +0.000 A 
ATOM     22  C   UNL     1       2.226   4.323  20.213  0.00  0.00    +0.000 A 
ENDBRANCH  14  17
ENDBRANCH  12  14
ENDBRANCH   1  12
TORSDOF 6
ENDMDL
MODEL 4
REMARK VINA RESULT:      -7.1      1.764      1.953
REMARK  Name = 
REMARK  6 active torsions:
REMARK  status: ('A' for Active; 'I' for Inactive)
REMARK    1  A    between atoms: N_1  and  C_2
REMARK    2  A    between atoms: C_2  and  C_3
REMARK    3  A    between atoms: C_7  and  C_8
REMARK    4  A    between atoms: C_8  and  N_9
REMARK    5  A    between atoms: N_9  and  S_10
REMARK    6  A    between atoms: S_10  and  C_13
REMARK                            x       y       z     vdW  Elec       q    Type
REMARK                         _______ _______ _______ _____ _____    ______ ____
ROOT
ATOM      1  C   UNL     1       5.880   4.268  15.402  0.00  0.00    +0.000 C 
ENDROOT
BRANCH   1   6
ATOM      2  C   UNL     1       6.514   4.103  12.862  0.00  0.00    +0.000 A 
ATOM      3  N   UNL     1       7.473   4.713  12.090  0.00  0.00    +0.000 NA
ATOM      4  N   UNL     1       8.160   5.545  12.858  0.00  0.00    +0.000 NA
ATOM      5  N   UNL     1       7.645   5.471  14.092  0.00  0.00    +0.000 N 
ATOM      6  C   UNL     1       6.618   4.573  14.158  0.00  0.00    +0.000 A 
ATOM      7  H   UNL     1       8.026   6.063  14.822  0.00  0.00    +0.000 HD
BRANCH   2   8
ATOM      8  C   UNL     1       5.581   3.112  12.265  0.00  0.00    +0.000 C 
BRANCH   8   9
ATOM      9  N   UNL     1       6.348   1.977  11.753  0.00  0.00    +0.000 NA
ATOM     10  H   UNL     1       7.327   2.106  12.005  0.00  0.00    +0.000 HD
ATOM     11  H   UNL     1       6.321   2.013  10.733  0.00  0.00    +0.000 HD
ENDBRANCH   8   9
ENDBRANCH   2   8
ENDBRANCH   1   6
BRANCH   1  12
ATOM     12  N   UNL     1       6.863   4.063  16.464  0.00  0.00    +0.000 NA
ATOM     13  H   UNL     1       7.767   3.703  16.149  0.00  0.00    +0.000 HD
BRANCH  12  14
ATOM     14  S   UNL     1       7.122   5.367  17.505  0.00  0.00    +0.000 S 
ATOM     15  O   UNL     1       7.889   4.840  18.612  0.00  0.00    +0.000 OA
ATOM     16  O   UNL     1       7.587   6.491  16.726  0.00  0.00    +0.000 OA
BRANCH  14  17
ATOM     17  C   UNL     1       5.489   5.732  18.101  0.00  0.00    +0.000 A 
ATOM     18  C   UNL     1       4.705   6.693  17.453  0.00  0.00    +0.000 A 
ATOM     19  C   UNL     1       3.394   6.912  17.879  0.00  0.00    +0.000 A 
ATOM     20  C   UNL     1       2.868   6.169  18.938  0.00  0.00    +0.000 A 
ATOM     21  C   UNL     1       3.647   5.201  19.572  0.00  0.00    +0.000 A 
ATOM     22  C   UNL     1       4.957   4.974  19.151  0.00  0.00    +0.000 A 
ENDBRANCH  14  17
ENDBRANCH  12  14
ENDBRANCH   1  12
TORSDOF 6
ENDMDL
MODEL 5
REMARK VINA RESULT:      -7.1      2.326      3.239
REMARK  Name = 
REMARK  6 active torsions:
REMARK  status: ('A' for Active; 'I' for Inactive)
REMARK    1  A    between atoms: N_1  and  C_2
REMARK    2  A    between atoms: C_2  and  C_3
REMARK    3  A    between atoms: C_7  and  C_8
REMARK    4  A    between atoms: C_8  and  N_9
REMARK    5  A    between atoms: N_9  and  S_10
REMARK    6  A    between atoms: S_10  and  C_13
REMARK                            x       y       z     vdW  Elec       q    Type
REMARK                         _______ _______ _______ _____ _____    ______ ____
ROOT
ATOM      1  C   UNL     1       5.050   7.009  17.162  0.00  0.00    +0.000 C 
ENDROOT
BRANCH   1   6
ATOM      2  C   UNL     1       6.893   5.229  16.598  0.00  0.00    +0.000 A 
ATOM      3  N   UNL     1       7.385   4.726  15.419  0.00  0.00    +0.000 NA
ATOM      4  N   UNL     1       6.733   5.297  14.417  0.00  0.00    +0.000 NA
ATOM      5  N   UNL     1       5.840   6.142  14.949  0.00  0.00    +0.000 N 
ATOM      6  C   UNL     1       5.903   6.152  16.313  0.00  0.00    +0.000 A 
ATOM      7  H   UNL     1       5.221   6.657  14.332  0.00  0.00    +0.000 HD
BRANCH   2   8
ATOM      8  C   UNL     1       7.435   4.766  17.902  0.00  0.00    +0.000 C 
BRANCH   8   9
ATOM      9  N   UNL     1       6.428   3.949  18.579  0.00  0.00    +0.000 NA
ATOM     10  H   UNL     1       5.929   3.403  17.879  0.00  0.00    +0.000 HD
ATOM     11  H   UNL     1       5.733   4.578  18.984  0.00  0.00    +0.000 HD
ENDBRANCH   8   9
ENDBRANCH   2   8
ENDBRANCH   1   6
BRANCH   1  12
ATOM     12  N   UNL     1       3.790   6.303  17.384  0.00  0.00    +0.000 NA
ATOM     13  H   UNL     1       3.691   5.427  16.864  0.00  0.00    +0.000 HD
BRANCH  12  14
ATOM     14  S   UNL     1       3.354   6.040  18.994  0.00  0.00    +0.000 S 
ATOM     15  O   UNL     1       4.586   5.749  19.693  0.00  0.00    +0.000 OA
ATOM     16  O   UNL     1       2.478   7.109  19.413  0.00  0.00    +0.000 OA
BRANCH  14  17
ATOM     17  C   UNL     1       2.409   4.538  18.911  0.00  0.00    +0.000 A 
ATOM     18  C   UNL     1       2.690   3.588  17.923  0.00  0.00    +0.000 A 
ATOM     19  C   UNL     1       1.998   2.375  17.920  0.00  0.00    +0.000 A 
ATOM     20  C   UNL     1       1.040   2.112  18.900  0.00  0.00    +0.000 A 
ATOM     21  C   UNL     1       0.774   3.056  19.893  0.00  0.00    +0.000 A 
ATOM     22  C   UNL     1       1.462   4.268  19.906  0.00  0.00    +0.000 A 
ENDBRANCH  14  17
ENDBRANCH  12  14
ENDBRANCH   1  12
TORSDOF 6
ENDMDL
MODEL 6
REMARK VINA RESULT:      -7.0      0.606      1.290
REMARK  Name = 
REMARK  6 active torsions:
REMARK  status: ('A' for Active; 'I' for Inactive)
REMARK    1  A    between atoms: N_1  and  C_2
REMARK    2  A    between atoms: C_2  and  C_3
REMARK    3  A    between atoms: C_7  and  C_8
REMARK    4  A    between atoms: C_8  and  N_9
REMARK    5  A    between atoms: N_9  and  S_10
REMARK    6  A    between atoms: S_10  and  C_13
REMARK                            x       y       z     vdW  Elec       q    Type
REMARK                         _______ _______ _______ _____ _____    ______ ____
ROOT
ATOM      1  C   UNL     1       5.726   3.720  15.652  0.00  0.00    +0.000 C 
ENDROOT
BRANCH   1   6
ATOM      2  C   UNL     1       6.583   3.987  13.187  0.00  0.00    +0.000 A 
ATOM      3  N   UNL     1       7.511   4.810  12.597  0.00  0.00    +0.000 NA
ATOM      4  N   UNL     1       8.014   5.606  13.529  0.00  0.00    +0.000 NA
ATOM      5  N   UNL     1       7.414   5.299  14.687  0.00  0.00    +0.000 N 
ATOM      6  C   UNL     1       6.516   4.281  14.536  0.00  0.00    +0.000 A 
ATOM      7  H   UNL     1       7.651   5.827  15.520  0.00  0.00    +0.000 HD
BRANCH   2   8
ATOM      8  C   UNL     1       5.845   2.981  12.379  0.00  0.00    +0.000 C 
BRANCH   8   9
ATOM      9  N   UNL     1       4.646   3.602  11.817  0.00  0.00    +0.000 NA
ATOM     10  H   UNL     1       4.143   4.074  12.566  0.00  0.00    +0.000 HD
ATOM     11  H   UNL     1       4.026   2.856  11.497  0.00  0.00    +0.000 HD
ENDBRANCH   8   9
ENDBRANCH   2   8
ENDBRANCH   1   6
BRANCH   1  12
ATOM     12  N   UNL     1       6.441   4.008  16.893  0.00  0.00    +0.000 NA
ATOM     13  H   UNL     1       7.358   4.444  16.769  0.00  0.00    +0.000 HD
BRANCH  12  14
ATOM     14  S   UNL     1       5.581   4.860  18.070  0.00  0.00    +0.000 S 
ATOM     15  O   UNL     1       6.277   4.622  19.316  0.00  0.00    +0.000 OA
ATOM     16  O   UNL     1       5.334   6.197  17.582  0.00  0.00    +0.000 OA
BRANCH  14  17
ATOM     17  C   UNL     1       4.032   3.992  18.139  0.00  0.00    +0.000 A 
ATOM     18  C   UNL     1       3.963   2.732  18.744  0.00  0.00    +0.000 A 
ATOM     19  C   UNL     1       2.726   2.097  18.867  0.00  0.00    +0.000 A 
ATOM     20  C   UNL     1       1.567   2.719  18.398  0.00  0.00    +0.000 A 
ATOM     21  C   UNL     1       1.640   3.982  17.809  0.00  0.00    +0.000 A 
ATOM     22  C   UNL     1       2.871   4.626  17.685  0.00  0.00    +0.000 A 
ENDBRANCH  14  17
ENDBRANCH  12  14
ENDBRANCH   1  12
TORSDOF 6
ENDMDL
MODEL 7
REMARK VINA RESULT:      -7.0      2.461      3.486
REMARK  Name = 
REMARK  6 active torsions:
REMARK  status: ('A' for Active; 'I' for Inactive)
REMARK    1  A    between atoms: N_1  and  C_2
REMARK    2  A    between atoms: C_2  and  C_3
REMARK    3  A    between atoms: C_7  and  C_8
REMARK    4  A    between atoms: C_8  and  N_9
REMARK    5  A    between atoms: N_9  and  S_10
REMARK    6  A    between atoms: S_10  and  C_13
REMARK                            x       y       z     vdW  Elec       q    Type
REMARK                         _______ _______ _______ _____ _____    ______ ____
ROOT
ATOM      1  C   UNL     1       4.615   5.719  17.202  0.00  0.00    +0.000 C 
ENDROOT
BRANCH   1   6
ATOM      2  C   UNL     1       6.896   4.732  16.361  0.00  0.00    +0.000 A 
ATOM      3  N   UNL     1       8.028   4.298  17.007  0.00  0.00    +0.000 NA
ATOM      4  N   UNL     1       7.853   4.459  18.310  0.00  0.00    +0.000 NA
ATOM      5  N   UNL     1       6.637   4.992  18.489  0.00  0.00    +0.000 N 
ATOM      6  C   UNL     1       5.984   5.172  17.303  0.00  0.00    +0.000 A 
ATOM      7  H   UNL     1       6.330   5.216  19.430  0.00  0.00    +0.000 HD
BRANCH   2   8
ATOM      8  C   UNL     1       6.803   4.676  14.880  0.00  0.00    +0.000 C 
BRANCH   8   9
ATOM      9  N   UNL     1       7.860   5.503  14.299  0.00  0.00    +0.000 NA
ATOM     10  H   UNL     1       7.438   6.155  13.641  0.00  0.00    +0.000 HD
ATOM     11  H   UNL     1       8.462   4.897  13.739  0.00  0.00    +0.000 HD
ENDBRANCH   8   9
ENDBRANCH   2   8
ENDBRANCH   1   6
BRANCH   1  12
ATOM     12  N   UNL     1       3.682   4.596  17.258  0.00  0.00    +0.000 NA
ATOM     13  H   UNL     1       4.071   3.732  17.643  0.00  0.00    +0.000 HD
BRANCH  12  14
ATOM     14  S   UNL     1       2.190   4.901  17.987  0.00  0.00    +0.000 S 
ATOM     15  O   UNL     1       2.200   6.304  18.335  0.00  0.00    +0.000 OA
ATOM     16  O   UNL     1       1.150   4.330  17.162  0.00  0.00    +0.000 OA
BRANCH  14  17
ATOM     17  C   UNL     1       2.286   3.968  19.497  0.00  0.00    +0.000 A 
ATOM     18  C   UNL     1       1.172   3.881  20.338  0.00  0.00    +0.000 A 
ATOM     19  C   UNL     1       1.233   3.078  21.478  0.00  0.00    +0.000 A 
ATOM     20  C   UNL     1       2.394   2.360  21.769  0.00  0.00    +0.000 A 
ATOM     21  C   UNL     1       3.498   2.437  20.919  0.00  0.00    +0.000 A 
ATOM     22  C   UNL     1       3.445   3.235  19.777  0.00  0.00    +0.000 A 
ENDBRANCH  14  17
ENDBRANCH  12  14
ENDBRANCH   1  12
TORSDOF 6
ENDMDL
MODEL 8
REMARK VINA RESULT:      -7.0      1.381      1.797
REMARK  Name = 
REMARK  6 active torsions:
REMARK  status: ('A' for Active; 'I' for Inactive)
REMARK    1  A    between atoms: N_1  and  C_2
REMARK    2  A    between atoms: C_2  and  C_3
REMARK    3  A    between atoms: C_7  and  C_8
REMARK    4  A    between atoms: C_8  and  N_9
REMARK    5  A    between atoms: N_9  and  S_10
REMARK    6  A    between atoms: S_10  and  C_13
REMARK                            x       y       z     vdW  Elec       q    Type
REMARK                         _______ _______ _______ _____ _____    ______ ____
ROOT
ATOM      1  C   UNL     1       4.846   4.181  16.271  0.00  0.00    +0.000 C 
ENDROOT
BRANCH   1   6
ATOM      2  C   UNL     1       6.163   4.351  14.008  0.00  0.00    +0.000 A 
ATOM      3  N   UNL     1       7.332   4.974  13.644  0.00  0.00    +0.000 NA
ATOM      4  N   UNL     1       7.817   5.603  14.704  0.00  0.00    +0.000 NA
ATOM      5  N   UNL     1       6.971   5.389  15.720  0.00  0.00    +0.000 N 
ATOM      6  C   UNL     1       5.921   4.600  15.347  0.00  0.00    +0.000 A 
ATOM      7  H   UNL     1       7.161   5.819  16.619  0.00  0.00    +0.000 HD
BRANCH   2   8
ATOM      8  C   UNL     1       5.385   3.564  13.016  0.00  0.00    +0.000 C 
BRANCH   8   9
ATOM      9  N   UNL     1       6.298   2.711  12.257  0.00  0.00    +0.000 NA
ATOM     10  H   UNL     1       7.110   3.264  11.985  0.00  0.00    +0.000 HD
ATOM     11  H   UNL     1       5.836   2.454  11.383  0.00  0.00    +0.000 HD
ENDBRANCH   8   9
ENDBRANCH   2   8
ENDBRANCH   1   6
BRANCH   1  12
ATOM     12  N   UNL     1       5.461   3.886  17.563  0.00  0.00    +0.000 NA
ATOM     13  H   UNL     1       6.457   3.655  17.523  0.00  0.00    +0.000 HD
BRANCH  12  14
ATOM     14  S   UNL     1       5.209   5.020  18.788  0.00  0.00    +0.000 S 
ATOM     15  O   UNL     1       6.274   4.812  19.743  0.00  0.00    +0.000 OA
ATOM     16  O   UNL     1       4.975   6.309  18.180  0.00  0.00    +0.000 OA
BRANCH  14  17
ATOM     17  C   UNL     1       3.694   4.468  19.537  0.00  0.00    +0.000 A 
ATOM     18  C   UNL     1       3.528   3.119  19.868  0.00  0.00    +0.000 A 
ATOM     19  C   UNL     1       2.369   2.713  20.532  0.00  0.00    +0.000 A 
ATOM     20  C   UNL     1       1.389   3.649  20.868  0.00  0.00    +0.000 A 
ATOM     21  C   UNL     1       1.566   4.995  20.549  0.00  0.00    +0.000 A 
ATOM     22  C   UNL     1       2.722   5.411  19.889  0.00  0.00    +0.000 A 
ENDBRANCH  14  17
ENDBRANCH  12  14
ENDBRANCH   1  12
TORSDOF 6
ENDMDL
MODEL 9
REMARK VINA RESULT:      -7.0      2.856      4.409
REMARK  Name = 
REMARK  6 active torsions:
REMARK  status: ('A' for Active; 'I' for Inactive)
REMARK    1  A    between atoms: N_1  and  C_2
REMARK    2  A    between atoms: C_2  and  C_3
REMARK    3  A    between atoms: C_7  and  C_8
REMARK    4  A    between atoms: C_8  and  N_9
REMARK    5  A    between atoms: N_9  and  S_10
REMARK    6  A    between atoms: S_10  and  C_13
REMARK                            x       y       z     vdW  Elec       q    Type
REMARK                         _______ _______ _______ _____ _____    ______ ____
ROOT
ATOM      1  C   UNL     1       5.862   4.032  16.535  0.00  0.00    +0.000 C 
ENDROOT
BRANCH   1   6
ATOM      2  C   UNL     1       6.921   5.806  18.152  0.00  0.00    +0.000 A 
ATOM      3  N   UNL     1       7.630   6.964  17.944  0.00  0.00    +0.000 NA
ATOM      4  N   UNL     1       7.776   7.135  16.639  0.00  0.00    +0.000 NA
ATOM      5  N   UNL     1       7.177   6.103  16.029  0.00  0.00    +0.000 N 
ATOM      6  C   UNL     1       6.611   5.244  16.927  0.00  0.00    +0.000 A 
ATOM      7  H   UNL     1       7.207   6.044  15.017  0.00  0.00    +0.000 HD
BRANCH   2   8
ATOM      8  C   UNL     1       6.605   5.351  19.531  0.00  0.00    +0.000 C 
BRANCH   8   9
ATOM      9  N   UNL     1       7.821   5.393  20.342  0.00  0.00    +0.000 NA
ATOM     10  H   UNL     1       8.560   5.835  19.797  0.00  0.00    +0.000 HD
ATOM     11  H   UNL     1       8.131   4.432  20.496  0.00  0.00    +0.000 HD
ENDBRANCH   8   9
ENDBRANCH   2   8
ENDBRANCH   1   6
BRANCH   1  12
ATOM     12  N   UNL     1       4.447   4.387  16.463  0.00  0.00    +0.000 NA
ATOM     13  H   UNL     1       4.022   4.275  15.539  0.00  0.00    +0.000 HD
BRANCH  12  14
ATOM     14  S   UNL     1       3.440   3.683  17.621  0.00  0.00    +0.000 S 
ATOM     15  O   UNL     1       2.333   3.111  16.885  0.00  0.00    +0.000 OA
ATOM     16  O   UNL     1       4.251   2.886  18.512  0.00  0.00    +0.000 OA
BRANCH  14  17
ATOM     17  C   UNL     1       2.825   5.085  18.521  0.00  0.00    +0.000 A 
ATOM     18  C   UNL     1       2.282   4.914  19.799  0.00  0.00    +0.000 A 
ATOM     19  C   UNL     1       1.879   6.032  20.530  0.00  0.00    +0.000 A 
ATOM     20  C   UNL     1       2.027   7.312  19.993  0.00  0.00    +0.000 A 
ATOM     21  C   UNL     1       2.584   7.480  18.724  0.00  0.00    +0.000 A 
ATOM     22  C   UNL     1       2.991   6.368  17.988  0.00  0.00    +0.000 A 
ENDBRANCH  14  17
ENDBRANCH  12  14
ENDBRANCH   1  12
TORSDOF 6
ENDMDL
