MODEL 1
REMARK VINA RESULT:      -7.7      0.000      0.000
REMARK  Name = 
REMARK  8 active torsions:
REMARK  status: ('A' for Active; 'I' for Inactive)
REMARK    1  A    between atoms: C_1  and  C_2
REMARK    2  A    between atoms: C_5  and  N_6
REMARK    3  A    between atoms: C_7  and  C_9
REMARK    4  A    between atoms: C_9  and  C_10
REMARK    5  A    between atoms: C_10  and  N_11
REMARK    6  A    between atoms: C_13  and  C_14
REMARK    7  A    between atoms: C_16  and  C_17
REMARK    8  A    between atoms: C_20  and  C_21
REMARK                            x       y       z     vdW  Elec       q    Type
REMARK                         _______ _______ _______ _____ _____    ______ ____
ROOT
ATOM      1  N   UNL     1       2.990   6.259  19.860  0.00  0.00    +0.000 N 
ATOM      2  C   UNL     1       2.807   5.069  19.207  0.00  0.00    +0.000 C 
ATOM      3  O   UNL     1       1.834   4.873  18.496  0.00  0.00    +0.000 OA
ATOM      4  H   UNL     1       3.847   6.338  20.431  0.00  0.00    +0.000 HD
ENDROOT
BRANCH   1   9
ATOM      5  C   UNL     1      -0.410  10.945  19.892  0.00  0.00    +0.000 C 
ATOM      6  C   UNL     1       0.454   9.710  19.897  0.00  0.00    +0.000 A 
ATOM      7  C   UNL     1       1.211   9.415  18.757  0.00  0.00    +0.000 A 
ATOM      8  C   UNL     1       2.034   8.292  18.714  0.00  0.00    +0.000 A 
ATOM      9  C   UNL     1       2.141   7.422  19.824  0.00  0.00    +0.000 A 
ATOM     10  C   UNL     1       1.372   7.723  20.965  0.00  0.00    +0.000 A 
ATOM     11  C   UNL     1       0.530   8.849  21.017  0.00  0.00    +0.000 A 
ATOM     12  C   UNL     1      -0.266   9.117  22.270  0.00  0.00    +0.000 C 
ENDBRANCH   1   9
BRANCH   2  13
ATOM     13  C   UNL     1       3.817   3.952  19.334  0.00  0.00    +0.000 C 
BRANCH  13  14
ATOM     14  C   UNL     1       5.119   4.239  18.554  0.00  0.00    +0.000 C 
BRANCH  14  15
ATOM     15  N   UNL     1       4.929   5.300  17.540  0.00  0.00    +0.000 NA
ATOM     16  C   UNL     1       5.664   6.559  17.793  0.00  0.00    +0.000 C 
ATOM     17  C   UNL     1       7.146   6.453  17.372  0.00  0.00    +0.000 C 
ATOM     18  C   UNL     1       7.844   7.798  17.576  0.00  0.00    +0.000 C 
ATOM     19  O   UNL     1       7.233   6.102  16.004  0.00  0.00    +0.000 OA
ATOM     20  C   UNL     1       6.676   4.815  15.808  0.00  0.00    +0.000 C 
ATOM     21  C   UNL     1       6.869   4.423  14.342  0.00  0.00    +0.000 C 
ATOM     22  C   UNL     1       5.170   4.829  16.158  0.00  0.00    +0.000 C 
ENDBRANCH  14  15
ENDBRANCH  13  14
ENDBRANCH   2  13
TORSDOF 4
ENDMDL
MODEL 2
REMARK VINA RESULT:      -7.5      0.942      2.053
REMARK  Name = 
REMARK  8 active torsions:
REMARK  status: ('A' for Active; 'I' for Inactive)
REMARK    1  A    between atoms: C_1  and  C_2
REMARK    2  A    between atoms: C_5  and  N_6
REMARK    3  A    between atoms: C_7  and  C_9
REMARK    4  A    between atoms: C_9  and  C_10
REMARK    5  A    between atoms: C_10  and  N_11
REMARK    6  A    between atoms: C_13  and  C_14
REMARK    7  A    between atoms: C_16  and  C_17
REMARK    8  A    between atoms: C_20  and  C_21
REMARK                            x       y       z     vdW  Elec       q    Type
REMARK                         _______ _______ _______ _____ _____    ______ ____
ROOT
ATOM      1  N   UNL     1       3.348   6.473  18.864  0.00  0.00    +0.000 N 
ATOM      2  C   UNL     1       3.085   5.174  18.515  0.00  0.00    +0.000 C 
ATOM      3  O   UNL     1       1.953   4.801  18.249  0.00  0.00    +0.000 OA
ATOM      4  H   UNL     1       4.336   6.699  19.062  0.00  0.00    +0.000 HD
ENDROOT
BRANCH   1   9
ATOM      5  C   UNL     1      -0.367  10.876  19.433  0.00  0.00    +0.000 C 
ATOM      6  C   UNL     1       0.583   9.714  19.303  0.00  0.00    +0.000 A 
ATOM      7  C   UNL     1       1.153   9.449  18.051  0.00  0.00    +0.000 A 
ATOM      8  C   UNL     1       2.046   8.394  17.879  0.00  0.00    +0.000 A 
ATOM      9  C   UNL     1       2.414   7.564  18.963  0.00  0.00    +0.000 A 
ATOM     10  C   UNL     1       1.831   7.832  20.217  0.00  0.00    +0.000 A 
ATOM     11  C   UNL     1       0.921   8.889  20.402  0.00  0.00    +0.000 A 
ATOM     12  C   UNL     1       0.334   9.126  21.771  0.00  0.00    +0.000 C 
ENDBRANCH   1   9
BRANCH   2  13
ATOM     13  C   UNL     1       4.196   4.153  18.433  0.00  0.00    +0.000 C 
BRANCH  13  14
ATOM     14  C   UNL     1       5.466   4.595  19.192  0.00  0.00    +0.000 C 
BRANCH  14  15
ATOM     15  N   UNL     1       6.666   4.552  18.327  0.00  0.00    +0.000 NA
ATOM     16  C   UNL     1       6.411   4.240  16.903  0.00  0.00    +0.000 C 
ATOM     17  C   UNL     1       5.922   5.480  16.123  0.00  0.00    +0.000 C 
ATOM     18  C   UNL     1       5.749   5.132  14.644  0.00  0.00    +0.000 C 
ATOM     19  O   UNL     1       6.870   6.523  16.234  0.00  0.00    +0.000 OA
ATOM     20  C   UNL     1       6.976   6.927  17.586  0.00  0.00    +0.000 C 
ATOM     21  C   UNL     1       7.935   8.117  17.663  0.00  0.00    +0.000 C 
ATOM     22  C   UNL     1       7.511   5.761  18.449  0.00  0.00    +0.000 C 
ENDBRANCH  14  15
ENDBRANCH  13  14
ENDBRANCH   2  13
TORSDOF 4
ENDMDL
MODEL 3
REMARK VINA RESULT:      -7.4      1.027      2.093
REMARK  Name = 
REMARK  8 active torsions:
REMARK  status: ('A' for Active; 'I' for Inactive)
REMARK    1  A    between atoms: C_1  and  C_2
REMARK    2  A    between atoms: C_5  and  N_6
REMARK    3  A    between atoms: C_7  and  C_9
REMARK    4  A    between atoms: C_9  and  C_10
REMARK    5  A    between atoms: C_10  and  N_11
REMARK    6  A    between atoms: C_13  and  C_14
REMARK    7  A    between atoms: C_16  and  C_17
REMARK    8  A    between atoms: C_20  and  C_21
REMARK                            x       y       z     vdW  Elec       q    Type
REMARK                         _______ _______ _______ _____ _____    ______ ____
ROOT
ATOM      1  N   UNL     1       3.158   6.261  18.503  0.00  0.00    +0.000 N 
ATOM      2  C   UNL     1       2.735   4.958  18.452  0.00  0.00    +0.000 C 
ATOM      3  O   UNL     1       1.575   4.654  18.683  0.00  0.00    +0.000 OA
ATOM      4  H   UNL     1       4.154   6.424  18.283  0.00  0.00    +0.000 HD
ENDROOT
BRANCH   1   9
ATOM      5  C   UNL     1       0.059  10.955  19.873  0.00  0.00    +0.000 C 
ATOM      6  C   UNL     1       0.848   9.717  19.534  0.00  0.00    +0.000 A 
ATOM      7  C   UNL     1       1.260   9.524  18.209  0.00  0.00    +0.000 A 
ATOM      8  C   UNL     1       2.001   8.403  17.845  0.00  0.00    +0.000 A 
ATOM      9  C   UNL     1       2.372   7.430  18.802  0.00  0.00    +0.000 A 
ATOM     10  C   UNL     1       1.948   7.627  20.130  0.00  0.00    +0.000 A 
ATOM     11  C   UNL     1       1.191   8.751  20.510  0.00  0.00    +0.000 A 
ATOM     12  C   UNL     1       0.770   8.905  21.950  0.00  0.00    +0.000 C 
ENDBRANCH   1   9
BRANCH   2  13
ATOM     13  C   UNL     1       3.692   3.846  18.092  0.00  0.00    +0.000 C 
BRANCH  13  14
ATOM     14  C   UNL     1       4.313   4.027  16.691  0.00  0.00    +0.000 C 
BRANCH  14  15
ATOM     15  N   UNL     1       5.779   3.820  16.708  0.00  0.00    +0.000 NA
ATOM     16  C   UNL     1       6.422   3.720  15.380  0.00  0.00    +0.000 C 
ATOM     17  C   UNL     1       6.650   5.109  14.745  0.00  0.00    +0.000 C 
ATOM     18  C   UNL     1       7.387   4.962  13.414  0.00  0.00    +0.000 C 
ATOM     19  O   UNL     1       7.433   5.909  15.610  0.00  0.00    +0.000 OA
ATOM     20  C   UNL     1       6.727   6.139  16.815  0.00  0.00    +0.000 C 
ATOM     21  C   UNL     1       7.555   7.082  17.689  0.00  0.00    +0.000 C 
ATOM     22  C   UNL     1       6.492   4.802  17.556  0.00  0.00    +0.000 C 
ENDBRANCH  14  15
ENDBRANCH  13  14
ENDBRANCH   2  13
TORSDOF 4
ENDMDL
MODEL 4
REMARK VINA RESULT:      -7.2      0.896      1.664
REMARK  Name = 
REMARK  8 active torsions:
REMARK  status: ('A' for Active; 'I' for Inactive)
REMARK    1  A    between atoms: C_1  and  C_2
REMARK    2  A    between atoms: C_5  and  N_6
REMARK    3  A    between atoms: C_7  and  C_9
REMARK    4  A    between atoms: C_9  and  C_10
REMARK    5  A    between atoms: C_10  and  N_11
REMARK    6  A    between atoms: C_13  and  C_14
REMARK    7  A    between atoms: C_16  and  C_17
REMARK    8  A    between atoms: C_20  and  C_21
REMARK                            x       y       z     vdW  Elec       q    Type
REMARK                         _______ _______ _______ _____ _____    ______ ____
ROOT
ATOM      1  N   UNL     1       3.060   5.731  18.944  0.00  0.00    +0.000 N 
ATOM      2  C   UNL     1       2.544   4.613  18.344  0.00  0.00    +0.000 C 
ATOM      3  O   UNL     1       1.340   4.465  18.198  0.00  0.00    +0.000 OA
ATOM      4  H   UNL     1       4.090   5.775  19.014  0.00  0.00    +0.000 HD
ENDROOT
BRANCH   1   9
ATOM      5  C   UNL     1       0.122  10.332  20.872  0.00  0.00    +0.000 C 
ATOM      6  C   UNL     1       0.907   9.153  20.359  0.00  0.00    +0.000 A 
ATOM      7  C   UNL     1       1.028   8.020  21.173  0.00  0.00    +0.000 A 
ATOM      8  C   UNL     1       1.734   6.899  20.742  0.00  0.00    +0.000 A 
ATOM      9  C   UNL     1       2.339   6.863  19.465  0.00  0.00    +0.000 A 
ATOM     10  C   UNL     1       2.218   8.009  18.654  0.00  0.00    +0.000 A 
ATOM     11  C   UNL     1       1.517   9.151  19.081  0.00  0.00    +0.000 A 
ATOM     12  C   UNL     1       1.422  10.344  18.164  0.00  0.00    +0.000 C 
ENDBRANCH   1   9
BRANCH   2  13
ATOM     13  C   UNL     1       3.451   3.523  17.824  0.00  0.00    +0.000 C 
BRANCH  13  14
ATOM     14  C   UNL     1       4.892   4.017  17.577  0.00  0.00    +0.000 C 
BRANCH  14  15
ATOM     15  N   UNL     1       4.918   5.244  16.748  0.00  0.00    +0.000 NA
ATOM     16  C   UNL     1       5.628   6.397  17.344  0.00  0.00    +0.000 C 
ATOM     17  C   UNL     1       7.159   6.279  17.174  0.00  0.00    +0.000 C 
ATOM     18  C   UNL     1       7.844   7.528  17.730  0.00  0.00    +0.000 C 
ATOM     19  O   UNL     1       7.482   6.160  15.802  0.00  0.00    +0.000 OA
ATOM     20  C   UNL     1       6.936   4.958  15.289  0.00  0.00    +0.000 C 
ATOM     21  C   UNL     1       7.381   4.809  13.833  0.00  0.00    +0.000 C 
ATOM     22  C   UNL     1       5.393   5.000  15.368  0.00  0.00    +0.000 C 
ENDBRANCH  14  15
ENDBRANCH  13  14
ENDBRANCH   2  13
TORSDOF 4
ENDMDL
MODEL 5
REMARK VINA RESULT:      -7.1      1.182      2.585
REMARK  Name = 
REMARK  8 active torsions:
REMARK  status: ('A' for Active; 'I' for Inactive)
REMARK    1  A    between atoms: C_1  and  C_2
REMARK    2  A    between atoms: C_5  and  N_6
REMARK    3  A    between atoms: C_7  and  C_9
REMARK    4  A    between atoms: C_9  and  C_10
REMARK    5  A    between atoms: C_10  and  N_11
REMARK    6  A    between atoms: C_13  and  C_14
REMARK    7  A    between atoms: C_16  and  C_17
REMARK    8  A    between atoms: C_20  and  C_21
REMARK                            x       y       z     vdW  Elec       q    Type
REMARK                         _______ _______ _______ _____ _____    ______ ____
ROOT
ATOM      1  N   UNL     1       3.138   5.751  18.725  0.00  0.00    +0.000 N 
ATOM      2  C   UNL     1       2.624   4.587  18.218  0.00  0.00    +0.000 C 
ATOM      3  O   UNL     1       1.425   4.360  18.228  0.00  0.00    +0.000 OA
ATOM      4  H   UNL     1       4.164   5.859  18.666  0.00  0.00    +0.000 HD
ENDROOT
BRANCH   1   9
ATOM      5  C   UNL     1       0.185  10.226  20.909  0.00  0.00    +0.000 C 
ATOM      6  C   UNL     1       0.973   9.080  20.329  0.00  0.00    +0.000 A 
ATOM      7  C   UNL     1       1.162   7.932  21.108  0.00  0.00    +0.000 A 
ATOM      8  C   UNL     1       1.873   6.840  20.615  0.00  0.00    +0.000 A 
ATOM      9  C   UNL     1       2.415   6.851  19.309  0.00  0.00    +0.000 A 
ATOM     10  C   UNL     1       2.227   8.012  18.534  0.00  0.00    +0.000 A 
ATOM     11  C   UNL     1       1.519   9.125  19.024  0.00  0.00    +0.000 A 
ATOM     12  C   UNL     1       1.350  10.337  18.142  0.00  0.00    +0.000 C 
ENDBRANCH   1   9
BRANCH   2  13
ATOM     13  C   UNL     1       3.529   3.539  17.612  0.00  0.00    +0.000 C 
BRANCH  13  14
ATOM     14  C   UNL     1       4.292   4.059  16.374  0.00  0.00    +0.000 C 
BRANCH  14  15
ATOM     15  N   UNL     1       5.745   3.796  16.475  0.00  0.00    +0.000 NA
ATOM     16  C   UNL     1       6.471   3.739  15.186  0.00  0.00    +0.000 C 
ATOM     17  C   UNL     1       6.787   5.149  14.642  0.00  0.00    +0.000 C 
ATOM     18  C   UNL     1       7.606   5.041  13.355  0.00  0.00    +0.000 C 
ATOM     19  O   UNL     1       7.539   5.874  15.597  0.00  0.00    +0.000 OA
ATOM     20  C   UNL     1       6.763   6.069  16.764  0.00  0.00    +0.000 C 
ATOM     21  C   UNL     1       7.564   6.935  17.738  0.00  0.00    +0.000 C 
ATOM     22  C   UNL     1       6.434   4.706  17.417  0.00  0.00    +0.000 C 
ENDBRANCH  14  15
ENDBRANCH  13  14
ENDBRANCH   2  13
TORSDOF 4
ENDMDL
MODEL 6
REMARK VINA RESULT:      -7.0      1.019      2.100
REMARK  Name = 
REMARK  8 active torsions:
REMARK  status: ('A' for Active; 'I' for Inactive)
REMARK    1  A    between atoms: C_1  and  C_2
REMARK    2  A    between atoms: C_5  and  N_6
REMARK    3  A    between atoms: C_7  and  C_9
REMARK    4  A    between atoms: C_9  and  C_10
REMARK    5  A    between atoms: C_10  and  N_11
REMARK    6  A    between atoms: C_13  and  C_14
REMARK    7  A    between atoms: C_16  and  C_17
REMARK    8  A    between atoms: C_20  and  C_21
REMARK                            x       y       z     vdW  Elec       q    Type
REMARK                         _______ _______ _______ _____ _____    ______ ____
ROOT
ATOM      1  N   UNL     1       2.688   7.180  19.771  0.00  0.00    +0.000 N 
ATOM      2  C   UNL     1       2.554   5.840  20.025  0.00  0.00    +0.000 C 
ATOM      3  O   UNL     1       1.551   5.388  20.555  0.00  0.00    +0.000 OA
ATOM      4  H   UNL     1       3.566   7.470  19.311  0.00  0.00    +0.000 HD
ENDROOT
BRANCH   1   9
ATOM      5  C   UNL     1      -1.070  11.393  21.053  0.00  0.00    +0.000 C 
ATOM      6  C   UNL     1      -0.107  10.278  20.737  0.00  0.00    +0.000 A 
ATOM      7  C   UNL     1       0.353  10.140  19.421  0.00  0.00    +0.000 A 
ATOM      8  C   UNL     1       1.252   9.134  19.078  0.00  0.00    +0.000 A 
ATOM      9  C   UNL     1       1.739   8.227  20.048  0.00  0.00    +0.000 A 
ATOM     10  C   UNL     1       1.267   8.368  21.367  0.00  0.00    +0.000 A 
ATOM     11  C   UNL     1       0.351   9.374  21.725  0.00  0.00    +0.000 A 
ATOM     12  C   UNL     1      -0.114   9.473  23.156  0.00  0.00    +0.000 C 
ENDBRANCH   1   9
BRANCH   2  13
ATOM     13  C   UNL     1       3.644   4.866  19.642  0.00  0.00    +0.000 C 
BRANCH  13  14
ATOM     14  C   UNL     1       4.199   5.123  18.224  0.00  0.00    +0.000 C 
BRANCH  14  15
ATOM     15  N   UNL     1       5.620   4.723  18.110  0.00  0.00    +0.000 NA
ATOM     16  C   UNL     1       6.012   4.137  16.810  0.00  0.00    +0.000 C 
ATOM     17  C   UNL     1       6.256   5.224  15.740  0.00  0.00    +0.000 C 
ATOM     18  C   UNL     1       6.736   4.579  14.440  0.00  0.00    +0.000 C 
ATOM     19  O   UNL     1       7.249   6.126  16.191  0.00  0.00    +0.000 OA
ATOM     20  C   UNL     1       6.785   6.805  17.343  0.00  0.00    +0.000 C 
ATOM     21  C   UNL     1       7.837   7.839  17.750  0.00  0.00    +0.000 C 
ATOM     22  C   UNL     1       6.557   5.801  18.496  0.00  0.00    +0.000 C 
ENDBRANCH  14  15
ENDBRANCH  13  14
ENDBRANCH   2  13
TORSDOF 4
ENDMDL
MODEL 7
REMARK VINA RESULT:      -7.0      1.095      1.846
REMARK  Name = 
REMARK  8 active torsions:
REMARK  status: ('A' for Active; 'I' for Inactive)
REMARK    1  A    between atoms: C_1  and  C_2
REMARK    2  A    between atoms: C_5  and  N_6
REMARK    3  A    between atoms: C_7  and  C_9
REMARK    4  A    between atoms: C_9  and  C_10
REMARK    5  A    between atoms: C_10  and  N_11
REMARK    6  A    between atoms: C_13  and  C_14
REMARK    7  A    between atoms: C_16  and  C_17
REMARK    8  A    between atoms: C_20  and  C_21
REMARK                            x       y       z     vdW  Elec       q    Type
REMARK                         _______ _______ _______ _____ _____    ______ ____
ROOT
ATOM      1  N   UNL     1       2.651   5.797  20.459  0.00  0.00    +0.000 N 
ATOM      2  C   UNL     1       2.289   4.588  19.928  0.00  0.00    +0.000 C 
ATOM      3  O   UNL     1       1.253   4.453  19.295  0.00  0.00    +0.000 OA
ATOM      4  H   UNL     1       3.549   5.819  20.970  0.00  0.00    +0.000 HD
ENDROOT
BRANCH   1   9
ATOM      5  C   UNL     1      -0.194  10.810  19.914  0.00  0.00    +0.000 C 
ATOM      6  C   UNL     1       0.571   9.519  20.045  0.00  0.00    +0.000 A 
ATOM      7  C   UNL     1       0.375   8.734  21.188  0.00  0.00    +0.000 A 
ATOM      8  C   UNL     1       1.048   7.526  21.353  0.00  0.00    +0.000 A 
ATOM      9  C   UNL     1       1.941   7.047  20.367  0.00  0.00    +0.000 A 
ATOM     10  C   UNL     1       2.138   7.844  19.223  0.00  0.00    +0.000 A 
ATOM     11  C   UNL     1       1.472   9.071  19.048  0.00  0.00    +0.000 A 
ATOM     12  C   UNL     1       1.724   9.877  17.799  0.00  0.00    +0.000 C 
ENDBRANCH   1   9
BRANCH   2  13
ATOM     13  C   UNL     1       3.170   3.372  20.094  0.00  0.00    +0.000 C 
BRANCH  13  14
ATOM     14  C   UNL     1       4.311   3.319  19.056  0.00  0.00    +0.000 C 
BRANCH  14  15
ATOM     15  N   UNL     1       4.458   4.604  18.335  0.00  0.00    +0.000 NA
ATOM     16  C   UNL     1       5.523   5.497  18.840  0.00  0.00    +0.000 C 
ATOM     17  C   UNL     1       6.917   5.077  18.326  0.00  0.00    +0.000 C 
ATOM     18  C   UNL     1       7.974   6.072  18.806  0.00  0.00    +0.000 C 
ATOM     19  O   UNL     1       6.922   5.060  16.911  0.00  0.00    +0.000 OA
ATOM     20  C   UNL     1       6.017   4.075  16.445  0.00  0.00    +0.000 C 
ATOM     21  C   UNL     1       6.114   4.013  14.920  0.00  0.00    +0.000 C 
ATOM     22  C   UNL     1       4.575   4.435  16.870  0.00  0.00    +0.000 C 
ENDBRANCH  14  15
ENDBRANCH  13  14
ENDBRANCH   2  13
TORSDOF 4
ENDMDL
MODEL 8
REMARK VINA RESULT:      -7.0      4.111      7.246
REMARK  Name = 
REMARK  8 active torsions:
REMARK  status: ('A' for Active; 'I' for Inactive)
REMARK    1  A    between atoms: C_1  and  C_2
REMARK    2  A    between atoms: C_5  and  N_6
REMARK    3  A    between atoms: C_7  and  C_9
REMARK    4  A    between atoms: C_9  and  C_10
REMARK    5  A    between atoms: C_10  and  N_11
REMARK    6  A    between atoms: C_13  and  C_14
REMARK    7  A    between atoms: C_16  and  C_17
REMARK    8  A    between atoms: C_20  and  C_21
REMARK                            x       y       z     vdW  Elec       q    Type
REMARK                         _______ _______ _______ _____ _____    ______ ____
ROOT
ATOM      1  N   UNL     1       9.199   9.231  19.229  0.00  0.00    +0.000 N 
ATOM      2  C   UNL     1       8.297   8.626  18.394  0.00  0.00    +0.000 C 
ATOM      3  O   UNL     1       7.635   9.269  17.595  0.00  0.00    +0.000 OA
ATOM      4  H   UNL     1       9.721   8.606  19.864  0.00  0.00    +0.000 HD
ENDROOT
BRANCH   1   9
ATOM      5  C   UNL     1      10.481  14.875  19.371  0.00  0.00    +0.000 C 
ATOM      6  C   UNL     1      10.173  13.401  19.320  0.00  0.00    +0.000 A 
ATOM      7  C   UNL     1       9.598  12.795  20.444  0.00  0.00    +0.000 A 
ATOM      8  C   UNL     1       9.284  11.438  20.446  0.00  0.00    +0.000 A 
ATOM      9  C   UNL     1       9.522  10.633  19.309  0.00  0.00    +0.000 A 
ATOM     10  C   UNL     1      10.105  11.248  18.184  0.00  0.00    +0.000 A 
ATOM     11  C   UNL     1      10.437  12.615  18.173  0.00  0.00    +0.000 A 
ATOM     12  C   UNL     1      11.057  13.214  16.936  0.00  0.00    +0.000 C 
ENDBRANCH   1   9
BRANCH   2  13
ATOM     13  C   UNL     1       8.099   7.128  18.421  0.00  0.00    +0.000 C 
BRANCH  13  14
ATOM     14  C   UNL     1       6.814   6.686  17.689  0.00  0.00    +0.000 C 
BRANCH  14  15
ATOM     15  N   UNL     1       6.669   5.213  17.675  0.00  0.00    +0.000 NA
ATOM     16  C   UNL     1       5.373   4.698  18.168  0.00  0.00    +0.000 C 
ATOM     17  C   UNL     1       4.270   4.792  17.091  0.00  0.00    +0.000 C 
ATOM     18  C   UNL     1       2.973   4.176  17.616  0.00  0.00    +0.000 C 
ATOM     19  O   UNL     1       4.669   4.087  15.932  0.00  0.00    +0.000 OA
ATOM     20  C   UNL     1       5.817   4.700  15.374  0.00  0.00    +0.000 C 
ATOM     21  C   UNL     1       6.168   3.975  14.073  0.00  0.00    +0.000 C 
ATOM     22  C   UNL     1       7.001   4.611  16.364  0.00  0.00    +0.000 C 
ENDBRANCH  14  15
ENDBRANCH  13  14
ENDBRANCH   2  13
TORSDOF 4
ENDMDL
MODEL 9
REMARK VINA RESULT:      -6.8      0.640      1.528
REMARK  Name = 
REMARK  8 active torsions:
REMARK  status: ('A' for Active; 'I' for Inactive)
REMARK    1  A    between atoms: C_1  and  C_2
REMARK    2  A    between atoms: C_5  and  N_6
REMARK    3  A    between atoms: C_7  and  C_9
REMARK    4  A    between atoms: C_9  and  C_10
REMARK    5  A    between atoms: C_10  and  N_11
REMARK    6  A    between atoms: C_13  and  C_14
REMARK    7  A    between atoms: C_16  and  C_17
REMARK    8  A    between atoms: C_20  and  C_21
REMARK                            x       y       z     vdW  Elec       q    Type
REMARK                         _______ _______ _______ _____ _____    ______ ____
ROOT
ATOM      1  N   UNL     1       2.870   6.436  19.856  0.00  0.00    +0.000 N 
ATOM      2  C   UNL     1       2.561   5.118  19.647  0.00  0.00    +0.000 C 
ATOM      3  O   UNL     1       1.408   4.717  19.694  0.00  0.00    +0.000 OA
ATOM      4  H   UNL     1       3.869   6.686  19.787  0.00  0.00    +0.000 HD
ENDROOT
BRANCH   1   9
ATOM      5  C   UNL     1      -0.790  10.819  20.810  0.00  0.00    +0.000 C 
ATOM      6  C   UNL     1       0.183   9.698  20.553  0.00  0.00    +0.000 A 
ATOM      7  C   UNL     1       0.267   8.655  21.483  0.00  0.00    +0.000 A 
ATOM      8  C   UNL     1       1.142   7.589  21.287  0.00  0.00    +0.000 A 
ATOM      9  C   UNL     1       1.962   7.519  20.137  0.00  0.00    +0.000 A 
ATOM     10  C   UNL     1       1.876   8.575  19.209  0.00  0.00    +0.000 A 
ATOM     11  C   UNL     1       1.004   9.663  19.400  0.00  0.00    +0.000 A 
ATOM     12  C   UNL     1       0.956  10.761  18.368  0.00  0.00    +0.000 C 
ENDBRANCH   1   9
BRANCH   2  13
ATOM     13  C   UNL     1       3.641   4.109  19.333  0.00  0.00    +0.000 C 
BRANCH  13  14
ATOM     14  C   UNL     1       4.986   4.773  18.969  0.00  0.00    +0.000 C 
BRANCH  14  15
ATOM     15  N   UNL     1       4.853   5.683  17.809  0.00  0.00    +0.000 NA
ATOM     16  C   UNL     1       5.655   6.924  17.880  0.00  0.00    +0.000 C 
ATOM     17  C   UNL     1       7.129   6.679  17.489  0.00  0.00    +0.000 C 
ATOM     18  C   UNL     1       7.899   8.000  17.499  0.00  0.00    +0.000 C 
ATOM     19  O   UNL     1       7.195   6.127  16.188  0.00  0.00    +0.000 OA
ATOM     20  C   UNL     1       6.569   4.857  16.179  0.00  0.00    +0.000 C 
ATOM     21  C   UNL     1       6.739   4.244  14.787  0.00  0.00    +0.000 C 
ATOM     22  C   UNL     1       5.067   5.003  16.512  0.00  0.00    +0.000 C 
ENDBRANCH  14  15
ENDBRANCH  13  14
ENDBRANCH   2  13
TORSDOF 4
ENDMDL
