MODEL 1
REMARK VINA RESULT:      -7.4      0.000      0.000
REMARK  Name = 
REMARK  2 active torsions:
REMARK  status: ('A' for Active; 'I' for Inactive)
REMARK    1  A    between atoms: S_2  and  C_4
REMARK    2  A    between atoms: S_2  and  C_10
REMARK                            x       y       z     vdW  Elec       q    Type
REMARK                         _______ _______ _______ _____ _____    ______ ____
ROOT
ATOM      1  C   UNL     1       5.642   5.801  17.401  0.00  0.00    +0.000 A 
ATOM      2  C   UNL     1       6.778   6.566  17.620  0.00  0.00    +0.000 A 
ATOM      3  N   UNL     1       7.595   6.431  16.535  0.00  0.00    +0.000 N 
ATOM      4  C   UNL     1       7.011   5.597  15.625  0.00  0.00    +0.000 A 
ATOM      5  N   UNL     1       7.591   5.254  14.462  0.00  0.00    +0.000 NA
ATOM      6  C   UNL     1       6.823   4.447  13.703  0.00  0.00    +0.000 A 
ATOM      7  C   UNL     1       5.549   4.008  14.037  0.00  0.00    +0.000 A 
ATOM      8  C   UNL     1       4.989   4.396  15.260  0.00  0.00    +0.000 A 
ATOM      9  C   UNL     1       5.759   5.210  16.111  0.00  0.00    +0.000 A 
ATOM     10  H   UNL     1       8.494   6.872  16.394  0.00  0.00    +0.000 HD
ENDROOT
BRANCH   1  12
ATOM     11  O   UNL     1       3.509   6.848  18.162  0.00  0.00    +0.000 OA
ATOM     12  S   UNL     1       4.340   5.719  18.530  0.00  0.00    +0.000 S 
ATOM     13  O   UNL     1       4.993   5.641  19.822  0.00  0.00    +0.000 OA
BRANCH  12  14
ATOM     14  C   UNL     1       3.406   4.231  18.327  0.00  0.00    +0.000 A 
ATOM     15  C   UNL     1       2.015   4.316  18.184  0.00  0.00    +0.000 A 
ATOM     16  C   UNL     1       1.243   3.155  18.220  0.00  0.00    +0.000 A 
ATOM     17  C   UNL     1       1.857   1.916  18.398  0.00  0.00    +0.000 A 
ATOM     18  C   UNL     1       3.246   1.830  18.525  0.00  0.00    +0.000 A 
ATOM     19  C   UNL     1       4.027   2.989  18.496  0.00  0.00    +0.000 A 
ENDBRANCH  12  14
ENDBRANCH   1  12
TORSDOF 2
ENDMDL
MODEL 2
REMARK VINA RESULT:      -7.4      2.598      5.303
REMARK  Name = 
REMARK  2 active torsions:
REMARK  status: ('A' for Active; 'I' for Inactive)
REMARK    1  A    between atoms: S_2  and  C_4
REMARK    2  A    between atoms: S_2  and  C_10
REMARK                            x       y       z     vdW  Elec       q    Type
REMARK                         _______ _______ _______ _____ _____    ______ ____
ROOT
ATOM      1  C   UNL     1       5.246   5.614  16.913  0.00  0.00    +0.000 A 
ATOM      2  C   UNL     1       4.787   6.874  17.268  0.00  0.00    +0.000 A 
ATOM      3  N   UNL     1       3.527   6.738  17.774  0.00  0.00    +0.000 N 
ATOM      4  C   UNL     1       3.166   5.422  17.752  0.00  0.00    +0.000 A 
ATOM      5  N   UNL     1       1.965   4.980  18.167  0.00  0.00    +0.000 NA
ATOM      6  C   UNL     1       1.836   3.641  18.087  0.00  0.00    +0.000 A 
ATOM      7  C   UNL     1       2.820   2.765  17.649  0.00  0.00    +0.000 A 
ATOM      8  C   UNL     1       4.054   3.276  17.229  0.00  0.00    +0.000 A 
ATOM      9  C   UNL     1       4.235   4.671  17.257  0.00  0.00    +0.000 A 
ATOM     10  H   UNL     1       2.931   7.476  18.124  0.00  0.00    +0.000 HD
ENDROOT
BRANCH   1  12
ATOM     11  O   UNL     1       7.301   4.202  17.005  0.00  0.00    +0.000 OA
ATOM     12  S   UNL     1       6.818   5.344  16.254  0.00  0.00    +0.000 S 
ATOM     13  O   UNL     1       7.464   6.639  16.335  0.00  0.00    +0.000 OA
BRANCH  12  14
ATOM     14  C   UNL     1       6.731   4.909  14.543  0.00  0.00    +0.000 A 
ATOM     15  C   UNL     1       5.828   3.918  14.139  0.00  0.00    +0.000 A 
ATOM     16  C   UNL     1       5.881   3.423  12.836  0.00  0.00    +0.000 A 
ATOM     17  C   UNL     1       6.832   3.914  11.942  0.00  0.00    +0.000 A 
ATOM     18  C   UNL     1       7.723   4.914  12.341  0.00  0.00    +0.000 A 
ATOM     19  C   UNL     1       7.681   5.412  13.646  0.00  0.00    +0.000 A 
ENDBRANCH  12  14
ENDBRANCH   1  12
TORSDOF 2
ENDMDL
MODEL 3
REMARK VINA RESULT:      -7.4      3.367      5.342
REMARK  Name = 
REMARK  2 active torsions:
REMARK  status: ('A' for Active; 'I' for Inactive)
REMARK    1  A    between atoms: S_2  and  C_4
REMARK    2  A    between atoms: S_2  and  C_10
REMARK                            x       y       z     vdW  Elec       q    Type
REMARK                         _______ _______ _______ _____ _____    ______ ____
ROOT
ATOM      1  C   UNL     1       3.204   4.768  19.495  0.00  0.00    +0.000 A 
ATOM      2  C   UNL     1       2.601   4.618  20.736  0.00  0.00    +0.000 A 
ATOM      3  N   UNL     1       1.976   5.790  21.047  0.00  0.00    +0.000 N 
ATOM      4  C   UNL     1       2.162   6.689  20.036  0.00  0.00    +0.000 A 
ATOM      5  N   UNL     1       1.681   7.944  20.069  0.00  0.00    +0.000 NA
ATOM      6  C   UNL     1       1.956   8.647  18.952  0.00  0.00    +0.000 A 
ATOM      7  C   UNL     1       2.642   8.160  17.847  0.00  0.00    +0.000 A 
ATOM      8  C   UNL     1       3.121   6.845  17.863  0.00  0.00    +0.000 A 
ATOM      9  C   UNL     1       2.895   6.074  19.018  0.00  0.00    +0.000 A 
ATOM     10  H   UNL     1       1.444   5.990  21.883  0.00  0.00    +0.000 HD
ENDROOT
BRANCH   1  12
ATOM     11  O   UNL     1       3.042   2.725  18.071  0.00  0.00    +0.000 OA
ATOM     12  S   UNL     1       4.081   3.498  18.723  0.00  0.00    +0.000 S 
ATOM     13  O   UNL     1       4.900   2.938  19.780  0.00  0.00    +0.000 OA
BRANCH  12  14
ATOM     14  C   UNL     1       5.180   4.132  17.492  0.00  0.00    +0.000 A 
ATOM     15  C   UNL     1       4.839   3.995  16.140  0.00  0.00    +0.000 A 
ATOM     16  C   UNL     1       5.775   4.308  15.155  0.00  0.00    +0.000 A 
ATOM     17  C   UNL     1       7.045   4.756  15.517  0.00  0.00    +0.000 A 
ATOM     18  C   UNL     1       7.379   4.907  16.865  0.00  0.00    +0.000 A 
ATOM     19  C   UNL     1       6.451   4.590  17.860  0.00  0.00    +0.000 A 
ENDBRANCH  12  14
ENDBRANCH   1  12
TORSDOF 2
ENDMDL
MODEL 4
REMARK VINA RESULT:      -7.3      2.324      2.787
REMARK  Name = 
REMARK  2 active torsions:
REMARK  status: ('A' for Active; 'I' for Inactive)
REMARK    1  A    between atoms: S_2  and  C_4
REMARK    2  A    between atoms: S_2  and  C_10
REMARK                            x       y       z     vdW  Elec       q    Type
REMARK                         _______ _______ _______ _____ _____    ______ ____
ROOT
ATOM      1  C   UNL     1       4.720   3.984  17.274  0.00  0.00    +0.000 A 
ATOM      2  C   UNL     1       5.244   4.851  18.223  0.00  0.00    +0.000 A 
ATOM      3  N   UNL     1       6.272   5.538  17.646  0.00  0.00    +0.000 N 
ATOM      4  C   UNL     1       6.421   5.134  16.350  0.00  0.00    +0.000 A 
ATOM      5  N   UNL     1       7.372   5.618  15.533  0.00  0.00    +0.000 NA
ATOM      6  C   UNL     1       7.315   5.103  14.288  0.00  0.00    +0.000 A 
ATOM      7  C   UNL     1       6.375   4.182  13.845  0.00  0.00    +0.000 A 
ATOM      8  C   UNL     1       5.404   3.711  14.736  0.00  0.00    +0.000 A 
ATOM      9  C   UNL     1       5.436   4.186  16.060  0.00  0.00    +0.000 A 
ATOM     10  H   UNL     1       6.847   6.246  18.081  0.00  0.00    +0.000 HD
ENDROOT
BRANCH   1  12
ATOM     11  O   UNL     1       3.964   1.622  17.545  0.00  0.00    +0.000 OA
ATOM     12  S   UNL     1       3.379   2.947  17.596  0.00  0.00    +0.000 S 
ATOM     13  O   UNL     1       2.366   3.371  16.650  0.00  0.00    +0.000 OA
BRANCH  12  14
ATOM     14  C   UNL     1       2.729   3.222  19.217  0.00  0.00    +0.000 A 
ATOM     15  C   UNL     1       3.281   2.525  20.299  0.00  0.00    +0.000 A 
ATOM     16  C   UNL     1       2.660   2.577  21.546  0.00  0.00    +0.000 A 
ATOM     17  C   UNL     1       1.493   3.321  21.713  0.00  0.00    +0.000 A 
ATOM     18  C   UNL     1       0.950   4.030  20.637  0.00  0.00    +0.000 A 
ATOM     19  C   UNL     1       1.562   3.978  19.382  0.00  0.00    +0.000 A 
ENDBRANCH  12  14
ENDBRANCH   1  12
TORSDOF 2
ENDMDL
MODEL 5
REMARK VINA RESULT:      -7.3      2.569      5.287
REMARK  Name = 
REMARK  2 active torsions:
REMARK  status: ('A' for Active; 'I' for Inactive)
REMARK    1  A    between atoms: S_2  and  C_4
REMARK    2  A    between atoms: S_2  and  C_10
REMARK                            x       y       z     vdW  Elec       q    Type
REMARK                         _______ _______ _______ _____ _____    ______ ____
ROOT
ATOM      1  C   UNL     1       5.329   5.627  16.955  0.00  0.00    +0.000 A 
ATOM      2  C   UNL     1       4.823   6.891  17.221  0.00  0.00    +0.000 A 
ATOM      3  N   UNL     1       3.540   6.748  17.665  0.00  0.00    +0.000 N 
ATOM      4  C   UNL     1       3.210   5.424  17.690  0.00  0.00    +0.000 A 
ATOM      5  N   UNL     1       1.999   4.973  18.062  0.00  0.00    +0.000 NA
ATOM      6  C   UNL     1       1.905   3.628  18.043  0.00  0.00    +0.000 A 
ATOM      7  C   UNL     1       2.931   2.758  17.703  0.00  0.00    +0.000 A 
ATOM      8  C   UNL     1       4.174   3.278  17.324  0.00  0.00    +0.000 A 
ATOM      9  C   UNL     1       4.322   4.677  17.291  0.00  0.00    +0.000 A 
ATOM     10  H   UNL     1       2.910   7.487  17.946  0.00  0.00    +0.000 HD
ENDROOT
BRANCH   1  12
ATOM     11  O   UNL     1       7.433   4.327  17.279  0.00  0.00    +0.000 OA
ATOM     12  S   UNL     1       6.940   5.365  16.395  0.00  0.00    +0.000 S 
ATOM     13  O   UNL     1       7.528   6.689  16.371  0.00  0.00    +0.000 OA
BRANCH  12  14
ATOM     14  C   UNL     1       6.953   4.756  14.735  0.00  0.00    +0.000 A 
ATOM     15  C   UNL     1       7.784   5.373  13.792  0.00  0.00    +0.000 A 
ATOM     16  C   UNL     1       7.665   5.040  12.442  0.00  0.00    +0.000 A 
ATOM     17  C   UNL     1       6.721   4.097  12.038  0.00  0.00    +0.000 A 
ATOM     18  C   UNL     1       5.903   3.471  12.982  0.00  0.00    +0.000 A 
ATOM     19  C   UNL     1       6.010   3.802  14.335  0.00  0.00    +0.000 A 
ENDBRANCH  12  14
ENDBRANCH   1  12
TORSDOF 2
ENDMDL
MODEL 6
REMARK VINA RESULT:      -7.3      2.007      2.694
REMARK  Name = 
REMARK  2 active torsions:
REMARK  status: ('A' for Active; 'I' for Inactive)
REMARK    1  A    between atoms: S_2  and  C_4
REMARK    2  A    between atoms: S_2  and  C_10
REMARK                            x       y       z     vdW  Elec       q    Type
REMARK                         _______ _______ _______ _____ _____    ______ ____
ROOT
ATOM      1  C   UNL     1       5.699   4.394  17.604  0.00  0.00    +0.000 A 
ATOM      2  C   UNL     1       6.733   5.118  18.181  0.00  0.00    +0.000 A 
ATOM      3  N   UNL     1       7.568   5.531  17.183  0.00  0.00    +0.000 N 
ATOM      4  C   UNL     1       7.096   5.089  15.981  0.00  0.00    +0.000 A 
ATOM      5  N   UNL     1       7.722   5.320  14.814  0.00  0.00    +0.000 NA
ATOM      6  C   UNL     1       7.063   4.820  13.749  0.00  0.00    +0.000 A 
ATOM      7  C   UNL     1       5.848   4.149  13.802  0.00  0.00    +0.000 A 
ATOM      8  C   UNL     1       5.237   3.936  15.042  0.00  0.00    +0.000 A 
ATOM      9  C   UNL     1       5.897   4.404  16.193  0.00  0.00    +0.000 A 
ATOM     10  H   UNL     1       8.408   6.083  17.286  0.00  0.00    +0.000 HD
ENDROOT
BRANCH   1  12
ATOM     11  O   UNL     1       5.081   3.165  19.685  0.00  0.00    +0.000 OA
ATOM     12  S   UNL     1       4.408   3.715  18.525  0.00  0.00    +0.000 S 
ATOM     13  O   UNL     1       3.702   2.872  17.581  0.00  0.00    +0.000 OA
BRANCH  12  14
ATOM     14  C   UNL     1       3.275   4.963  19.061  0.00  0.00    +0.000 A 
ATOM     15  C   UNL     1       3.244   6.188  18.383  0.00  0.00    +0.000 A 
ATOM     16  C   UNL     1       2.504   7.249  18.906  0.00  0.00    +0.000 A 
ATOM     17  C   UNL     1       1.801   7.087  20.099  0.00  0.00    +0.000 A 
ATOM     18  C   UNL     1       1.820   5.859  20.766  0.00  0.00    +0.000 A 
ATOM     19  C   UNL     1       2.563   4.792  20.254  0.00  0.00    +0.000 A 
ENDBRANCH  12  14
ENDBRANCH   1  12
TORSDOF 2
ENDMDL
MODEL 7
REMARK VINA RESULT:      -7.3      2.475      5.261
REMARK  Name = 
REMARK  2 active torsions:
REMARK  status: ('A' for Active; 'I' for Inactive)
REMARK    1  A    between atoms: S_2  and  C_4
REMARK    2  A    between atoms: S_2  and  C_10
REMARK                            x       y       z     vdW  Elec       q    Type
REMARK                         _______ _______ _______ _____ _____    ______ ____
ROOT
ATOM      1  C   UNL     1       5.690   4.986  17.286  0.00  0.00    +0.000 A 
ATOM      2  C   UNL     1       6.563   4.622  18.300  0.00  0.00    +0.000 A 
ATOM      3  N   UNL     1       5.877   3.849  19.192  0.00  0.00    +0.000 N 
ATOM      4  C   UNL     1       4.585   3.709  18.775  0.00  0.00    +0.000 A 
ATOM      5  N   UNL     1       3.659   3.019  19.464  0.00  0.00    +0.000 NA
ATOM      6  C   UNL     1       2.458   2.985  18.852  0.00  0.00    +0.000 A 
ATOM      7  C   UNL     1       2.167   3.567  17.626  0.00  0.00    +0.000 A 
ATOM      8  C   UNL     1       3.167   4.274  16.948  0.00  0.00    +0.000 A 
ATOM      9  C   UNL     1       4.432   4.374  17.556  0.00  0.00    +0.000 A 
ATOM     10  H   UNL     1       6.242   3.427  20.035  0.00  0.00    +0.000 HD
ENDROOT
BRANCH   1  12
ATOM     11  O   UNL     1       7.443   6.504  16.366  0.00  0.00    +0.000 OA
ATOM     12  S   UNL     1       6.174   5.949  15.938  0.00  0.00    +0.000 S 
ATOM     13  O   UNL     1       5.024   6.790  15.671  0.00  0.00    +0.000 OA
BRANCH  12  14
ATOM     14  C   UNL     1       6.440   4.955  14.501  0.00  0.00    +0.000 A 
ATOM     15  C   UNL     1       7.514   5.257  13.655  0.00  0.00    +0.000 A 
ATOM     16  C   UNL     1       7.626   4.615  12.421  0.00  0.00    +0.000 A 
ATOM     17  C   UNL     1       6.669   3.677  12.035  0.00  0.00    +0.000 A 
ATOM     18  C   UNL     1       5.606   3.365  12.886  0.00  0.00    +0.000 A 
ATOM     19  C   UNL     1       5.482   4.007  14.121  0.00  0.00    +0.000 A 
ENDBRANCH  12  14
ENDBRANCH   1  12
TORSDOF 2
ENDMDL
MODEL 8
REMARK VINA RESULT:      -7.3      2.520      3.339
REMARK  Name = 
REMARK  2 active torsions:
REMARK  status: ('A' for Active; 'I' for Inactive)
REMARK    1  A    between atoms: S_2  and  C_4
REMARK    2  A    between atoms: S_2  and  C_10
REMARK                            x       y       z     vdW  Elec       q    Type
REMARK                         _______ _______ _______ _____ _____    ______ ____
ROOT
ATOM      1  C   UNL     1       4.848   4.361  18.250  0.00  0.00    +0.000 A 
ATOM      2  C   UNL     1       5.928   4.348  19.120  0.00  0.00    +0.000 A 
ATOM      3  N   UNL     1       7.070   4.441  18.378  0.00  0.00    +0.000 N 
ATOM      4  C   UNL     1       6.749   4.513  17.053  0.00  0.00    +0.000 A 
ATOM      5  N   UNL     1       7.669   4.588  16.075  0.00  0.00    +0.000 NA
ATOM      6  C   UNL     1       7.128   4.683  14.844  0.00  0.00    +0.000 A 
ATOM      7  C   UNL     1       5.768   4.726  14.567  0.00  0.00    +0.000 A 
ATOM      8  C   UNL     1       4.852   4.646  15.622  0.00  0.00    +0.000 A 
ATOM      9  C   UNL     1       5.357   4.509  16.928  0.00  0.00    +0.000 A 
ATOM     10  H   UNL     1       8.019   4.461  18.726  0.00  0.00    +0.000 HD
ENDROOT
BRANCH   1  12
ATOM     11  O   UNL     1       3.324   3.687  20.106  0.00  0.00    +0.000 OA
ATOM     12  S   UNL     1       3.211   4.289  18.792  0.00  0.00    +0.000 S 
ATOM     13  O   UNL     1       2.506   3.632  17.709  0.00  0.00    +0.000 OA
BRANCH  12  14
ATOM     14  C   UNL     1       2.518   5.907  18.961  0.00  0.00    +0.000 A 
ATOM     15  C   UNL     1       2.594   6.795  17.881  0.00  0.00    +0.000 A 
ATOM     16  C   UNL     1       2.233   8.131  18.057  0.00  0.00    +0.000 A 
ATOM     17  C   UNL     1       1.799   8.577  19.305  0.00  0.00    +0.000 A 
ATOM     18  C   UNL     1       1.709   7.686  20.379  0.00  0.00    +0.000 A 
ATOM     19  C   UNL     1       2.075   6.348  20.214  0.00  0.00    +0.000 A 
ENDBRANCH  12  14
ENDBRANCH   1  12
TORSDOF 2
ENDMDL
MODEL 9
REMARK VINA RESULT:      -7.3      3.333      5.390
REMARK  Name = 
REMARK  2 active torsions:
REMARK  status: ('A' for Active; 'I' for Inactive)
REMARK    1  A    between atoms: S_2  and  C_4
REMARK    2  A    between atoms: S_2  and  C_10
REMARK                            x       y       z     vdW  Elec       q    Type
REMARK                         _______ _______ _______ _____ _____    ______ ____
ROOT
ATOM      1  C   UNL     1       3.220   4.740  19.487  0.00  0.00    +0.000 A 
ATOM      2  C   UNL     1       2.615   4.604  20.729  0.00  0.00    +0.000 A 
ATOM      3  N   UNL     1       1.997   5.783  21.029  0.00  0.00    +0.000 N 
ATOM      4  C   UNL     1       2.190   6.672  20.011  0.00  0.00    +0.000 A 
ATOM      5  N   UNL     1       1.716   7.930  20.032  0.00  0.00    +0.000 NA
ATOM      6  C   UNL     1       1.996   8.622  18.909  0.00  0.00    +0.000 A 
ATOM      7  C   UNL     1       2.680   8.121  17.809  0.00  0.00    +0.000 A 
ATOM      8  C   UNL     1       3.150   6.803  17.837  0.00  0.00    +0.000 A 
ATOM      9  C   UNL     1       2.919   6.043  18.998  0.00  0.00    +0.000 A 
ATOM     10  H   UNL     1       1.466   5.994  21.863  0.00  0.00    +0.000 HD
ENDROOT
BRANCH   1  12
ATOM     11  O   UNL     1       3.053   2.722  18.029  0.00  0.00    +0.000 OA
ATOM     12  S   UNL     1       4.089   3.458  18.728  0.00  0.00    +0.000 S 
ATOM     13  O   UNL     1       4.856   2.861  19.804  0.00  0.00    +0.000 OA
BRANCH  12  14
ATOM     14  C   UNL     1       5.246   4.079  17.544  0.00  0.00    +0.000 A 
ATOM     15  C   UNL     1       6.367   4.788  17.995  0.00  0.00    +0.000 A 
ATOM     16  C   UNL     1       7.182   5.451  17.078  0.00  0.00    +0.000 A 
ATOM     17  C   UNL     1       6.879   5.407  15.718  0.00  0.00    +0.000 A 
ATOM     18  C   UNL     1       5.770   4.686  15.266  0.00  0.00    +0.000 A 
ATOM     19  C   UNL     1       4.944   4.024  16.178  0.00  0.00    +0.000 A 
ENDBRANCH  12  14
ENDBRANCH   1  12
TORSDOF 2
ENDMDL
