MODEL 1
REMARK VINA RESULT:      -7.9      0.000      0.000
REMARK  Name = 
REMARK  7 active torsions:
REMARK  status: ('A' for Active; 'I' for Inactive)
REMARK    1  A    between atoms: C_2  and  O_3
REMARK    2  A    between atoms: C_2  and  C_4
REMARK    3  A    between atoms: C_4  and  C_5
REMARK    4  A    between atoms: C_8  and  C_10
REMARK    5  A    between atoms: C_10  and  C_11
REMARK    6  A    between atoms: C_11  and  C_12
REMARK    7  A    between atoms: C_20  and  C_21
REMARK                            x       y       z     vdW  Elec       q    Type
REMARK                         _______ _______ _______ _____ _____    ______ ____
ROOT
ATOM      1  C   UNL     1       4.344   5.705  17.108  0.00  0.00    +0.000 C 
ATOM      2  C   UNL     1       3.697   6.685  18.084  0.00  0.00    +0.000 C 
ATOM      3  N   UNL     1       3.156   5.843  19.133  0.00  0.00    +0.000 N 
ATOM      4  C   UNL     1       2.182   6.193  20.043  0.00  0.00    +0.000 C 
ATOM      5  O   UNL     1       1.725   5.381  20.848  0.00  0.00    +0.000 OA
ATOM      6  C   UNL     1       3.820   4.547  19.176  0.00  0.00    +0.000 C 
ATOM      7  C   UNL     1       4.864   4.581  18.047  0.00  0.00    +0.000 C 
ENDROOT
BRANCH   7   8
ATOM      8  C   UNL     1       6.266   4.816  18.511  0.00  0.00    +0.000 A 
ATOM      9  C   UNL     1       7.484   4.505  17.948  0.00  0.00    +0.000 A 
ATOM     10  N   UNL     1       8.391   4.847  18.906  0.00  0.00    +0.000 N 
ATOM     11  N   UNL     1       7.786   5.336  19.998  0.00  0.00    +0.000 NA
ATOM     12  N   UNL     1       6.483   5.340  19.762  0.00  0.00    +0.000 NA
ATOM     13  H   UNL     1       9.401   4.757  18.907  0.00  0.00    +0.000 HD
ENDBRANCH   7   8
BRANCH   1  14
ATOM     14  C   UNL     1       5.399   6.343  16.194  0.00  0.00    +0.000 C 
BRANCH  14  16
ATOM     15  O   UNL     1       5.178   4.632  14.491  0.00  0.00    +0.000 OA
ATOM     16  C   UNL     1       5.880   5.427  15.095  0.00  0.00    +0.000 C 
BRANCH  16  17
ATOM     17  O   UNL     1       7.181   5.620  14.784  0.00  0.00    +0.000 OA
ATOM     18  H   UNL     1       7.796   5.480  15.529  0.00  0.00    +0.000 HD
ENDBRANCH  16  17
ENDBRANCH  14  16
ENDBRANCH   1  14
BRANCH   4  19
ATOM     19  C   UNL     1       1.685   7.628  19.977  0.00  0.00    +0.000 C 
BRANCH  19  20
ATOM     20  C   UNL     1       1.100   8.068  21.315  0.00  0.00    +0.000 C 
BRANCH  20  21
ATOM     21  C   UNL     1       0.326   9.355  21.188  0.00  0.00    +0.000 A 
ATOM     22  C   UNL     1       0.017   9.884  19.927  0.00  0.00    +0.000 A 
ATOM     23  C   UNL     1      -0.698  11.079  19.819  0.00  0.00    +0.000 A 
ATOM     24  C   UNL     1      -1.108  11.764  20.964  0.00  0.00    +0.000 A 
ATOM     25  C   UNL     1      -0.795  11.255  22.223  0.00  0.00    +0.000 A 
ATOM     26  C   UNL     1      -0.082  10.065  22.326  0.00  0.00    +0.000 A 
ATOM     27  F   UNL     1       0.224   9.597  23.545  0.00  0.00    +0.000 F 
ENDBRANCH  20  21
ENDBRANCH  19  20
ENDBRANCH   4  19
TORSDOF 7
ENDMDL
MODEL 2
REMARK VINA RESULT:      -7.8      3.847      5.697
REMARK  Name = 
REMARK  7 active torsions:
REMARK  status: ('A' for Active; 'I' for Inactive)
REMARK    1  A    between atoms: C_2  and  O_3
REMARK    2  A    between atoms: C_2  and  C_4
REMARK    3  A    between atoms: C_4  and  C_5
REMARK    4  A    between atoms: C_8  and  C_10
REMARK    5  A    between atoms: C_10  and  C_11
REMARK    6  A    between atoms: C_11  and  C_12
REMARK    7  A    between atoms: C_20  and  C_21
REMARK                            x       y       z     vdW  Elec       q    Type
REMARK                         _______ _______ _______ _____ _____    ______ ____
ROOT
ATOM      1  C   UNL     1       6.251   6.890  17.499  0.00  0.00    +0.000 C 
ATOM      2  C   UNL     1       5.164   6.367  18.435  0.00  0.00    +0.000 C 
ATOM      3  N   UNL     1       3.925   6.827  17.839  0.00  0.00    +0.000 N 
ATOM      4  C   UNL     1       2.704   6.934  18.470  0.00  0.00    +0.000 C 
ATOM      5  O   UNL     1       1.722   7.415  17.905  0.00  0.00    +0.000 OA
ATOM      6  C   UNL     1       4.088   7.121  16.422  0.00  0.00    +0.000 C 
ATOM      7  C   UNL     1       5.564   6.824  16.106  0.00  0.00    +0.000 C 
ENDROOT
BRANCH   7   8
ATOM      8  C   UNL     1       5.795   5.522  15.407  0.00  0.00    +0.000 A 
ATOM      9  C   UNL     1       5.244   4.273  15.588  0.00  0.00    +0.000 A 
ATOM     10  N   UNL     1       5.955   3.470  14.746  0.00  0.00    +0.000 N 
ATOM     11  N   UNL     1       6.891   4.166  14.084  0.00  0.00    +0.000 NA
ATOM     12  N   UNL     1       6.792   5.430  14.467  0.00  0.00    +0.000 NA
ATOM     13  H   UNL     1       5.887   2.471  14.589  0.00  0.00    +0.000 HD
ENDBRANCH   7   8
BRANCH   1  14
ATOM     14  C   UNL     1       7.585   6.140  17.613  0.00  0.00    +0.000 C 
BRANCH  14  16
ATOM     15  O   UNL     1       8.073   5.308  19.836  0.00  0.00    +0.000 OA
ATOM     16  C   UNL     1       7.611   5.118  18.724  0.00  0.00    +0.000 C 
BRANCH  16  17
ATOM     17  O   UNL     1       6.997   3.962  18.386  0.00  0.00    +0.000 OA
ATOM     18  H   UNL     1       7.584   3.306  17.964  0.00  0.00    +0.000 HD
ENDBRANCH  16  17
ENDBRANCH  14  16
ENDBRANCH   1  14
BRANCH   4  19
ATOM     19  C   UNL     1       2.647   6.450  19.910  0.00  0.00    +0.000 C 
BRANCH  19  20
ATOM     20  C   UNL     1       1.747   5.226  20.042  0.00  0.00    +0.000 C 
BRANCH  20  21
ATOM     21  C   UNL     1       2.360   4.011  19.396  0.00  0.00    +0.000 A 
ATOM     22  C   UNL     1       3.383   3.298  20.037  0.00  0.00    +0.000 A 
ATOM     23  C   UNL     1       3.947   2.174  19.429  0.00  0.00    +0.000 A 
ATOM     24  C   UNL     1       3.505   1.752  18.173  0.00  0.00    +0.000 A 
ATOM     25  C   UNL     1       2.498   2.461  17.521  0.00  0.00    +0.000 A 
ATOM     26  C   UNL     1       1.940   3.580  18.130  0.00  0.00    +0.000 A 
ATOM     27  F   UNL     1       0.982   4.259  17.482  0.00  0.00    +0.000 F 
ENDBRANCH  20  21
ENDBRANCH  19  20
ENDBRANCH   4  19
TORSDOF 7
ENDMDL
MODEL 3
REMARK VINA RESULT:      -7.7      3.857      5.680
REMARK  Name = 
REMARK  7 active torsions:
REMARK  status: ('A' for Active; 'I' for Inactive)
REMARK    1  A    between atoms: C_2  and  O_3
REMARK    2  A    between atoms: C_2  and  C_4
REMARK    3  A    between atoms: C_4  and  C_5
REMARK    4  A    between atoms: C_8  and  C_10
REMARK    5  A    between atoms: C_10  and  C_11
REMARK    6  A    between atoms: C_11  and  C_12
REMARK    7  A    between atoms: C_20  and  C_21
REMARK                            x       y       z     vdW  Elec       q    Type
REMARK                         _______ _______ _______ _____ _____    ______ ____
ROOT
ATOM      1  C   UNL     1       6.107   6.442  17.955  0.00  0.00    +0.000 C 
ATOM      2  C   UNL     1       4.872   5.958  18.712  0.00  0.00    +0.000 C 
ATOM      3  N   UNL     1       3.767   6.641  18.069  0.00  0.00    +0.000 N 
ATOM      4  C   UNL     1       2.507   6.831  18.593  0.00  0.00    +0.000 C 
ATOM      5  O   UNL     1       1.654   7.498  18.006  0.00  0.00    +0.000 OA
ATOM      6  C   UNL     1       4.115   7.074  16.723  0.00  0.00    +0.000 C 
ATOM      7  C   UNL     1       5.571   6.627  16.509  0.00  0.00    +0.000 C 
ENDROOT
BRANCH   7   8
ATOM      8  C   UNL     1       5.721   5.396  15.672  0.00  0.00    +0.000 A 
ATOM      9  C   UNL     1       5.223   4.121  15.817  0.00  0.00    +0.000 A 
ATOM     10  N   UNL     1       5.820   3.414  14.816  0.00  0.00    +0.000 N 
ATOM     11  N   UNL     1       6.640   4.190  14.094  0.00  0.00    +0.000 NA
ATOM     12  N   UNL     1       6.576   5.414  14.596  0.00  0.00    +0.000 NA
ATOM     13  H   UNL     1       5.747   2.430  14.583  0.00  0.00    +0.000 HD
ENDBRANCH   7   8
BRANCH   1  14
ATOM     14  C   UNL     1       7.324   5.516  18.094  0.00  0.00    +0.000 C 
BRANCH  14  16
ATOM     15  O   UNL     1       8.590   5.097  20.118  0.00  0.00    +0.000 OA
ATOM     16  C   UNL     1       8.226   5.873  19.250  0.00  0.00    +0.000 C 
BRANCH  16  17
ATOM     17  O   UNL     1       8.663   7.151  19.198  0.00  0.00    +0.000 OA
ATOM     18  H   UNL     1       8.480   7.603  18.352  0.00  0.00    +0.000 HD
ENDBRANCH  16  17
ENDBRANCH  14  16
ENDBRANCH   1  14
BRANCH   4  19
ATOM     19  C   UNL     1       2.238   6.195  19.947  0.00  0.00    +0.000 C 
BRANCH  19  20
ATOM     20  C   UNL     1       1.328   4.979  19.812  0.00  0.00    +0.000 C 
BRANCH  20  21
ATOM     21  C   UNL     1       2.073   3.782  19.279  0.00  0.00    +0.000 A 
ATOM     22  C   UNL     1       1.924   3.381  17.944  0.00  0.00    +0.000 A 
ATOM     23  C   UNL     1       2.616   2.269  17.460  0.00  0.00    +0.000 A 
ATOM     24  C   UNL     1       3.458   1.539  18.301  0.00  0.00    +0.000 A 
ATOM     25  C   UNL     1       3.604   1.920  19.633  0.00  0.00    +0.000 A 
ATOM     26  C   UNL     1       2.912   3.028  20.111  0.00  0.00    +0.000 A 
ATOM     27  F   UNL     1       3.052   3.373  21.400  0.00  0.00    +0.000 F 
ENDBRANCH  20  21
ENDBRANCH  19  20
ENDBRANCH   4  19
TORSDOF 7
ENDMDL
MODEL 4
REMARK VINA RESULT:      -7.6      3.132      4.038
REMARK  Name = 
REMARK  7 active torsions:
REMARK  status: ('A' for Active; 'I' for Inactive)
REMARK    1  A    between atoms: C_2  and  O_3
REMARK    2  A    between atoms: C_2  and  C_4
REMARK    3  A    between atoms: C_4  and  C_5
REMARK    4  A    between atoms: C_8  and  C_10
REMARK    5  A    between atoms: C_10  and  C_11
REMARK    6  A    between atoms: C_11  and  C_12
REMARK    7  A    between atoms: C_20  and  C_21
REMARK                            x       y       z     vdW  Elec       q    Type
REMARK                         _______ _______ _______ _____ _____    ______ ____
ROOT
ATOM      1  C   UNL     1       5.685   3.958  15.861  0.00  0.00    +0.000 C 
ATOM      2  C   UNL     1       4.317   3.782  16.515  0.00  0.00    +0.000 C 
ATOM      3  N   UNL     1       4.618   3.362  17.870  0.00  0.00    +0.000 N 
ATOM      4  C   UNL     1       3.756   2.734  18.742  0.00  0.00    +0.000 C 
ATOM      5  O   UNL     1       4.126   2.339  19.848  0.00  0.00    +0.000 OA
ATOM      6  C   UNL     1       5.968   3.743  18.262  0.00  0.00    +0.000 C 
ATOM      7  C   UNL     1       6.566   4.460  17.038  0.00  0.00    +0.000 C 
ENDROOT
BRANCH   7   8
ATOM      8  C   UNL     1       6.591   5.951  17.149  0.00  0.00    +0.000 A 
ATOM      9  C   UNL     1       5.590   6.873  17.364  0.00  0.00    +0.000 A 
ATOM     10  N   UNL     1       6.211   8.078  17.223  0.00  0.00    +0.000 N 
ATOM     11  N   UNL     1       7.511   7.925  16.936  0.00  0.00    +0.000 NA
ATOM     12  N   UNL     1       7.763   6.625  16.906  0.00  0.00    +0.000 NA
ATOM     13  H   UNL     1       5.830   9.016  17.278  0.00  0.00    +0.000 HD
ENDBRANCH   7   8
BRANCH   1  14
ATOM     14  C   UNL     1       5.669   4.859  14.618  0.00  0.00    +0.000 C 
BRANCH  14  16
ATOM     15  O   UNL     1       6.835   3.843  12.751  0.00  0.00    +0.000 OA
ATOM     16  C   UNL     1       6.835   4.626  13.687  0.00  0.00    +0.000 C 
BRANCH  16  17
ATOM     17  O   UNL     1       7.885   5.435  13.951  0.00  0.00    +0.000 OA
ATOM     18  H   UNL     1       8.741   5.098  13.624  0.00  0.00    +0.000 HD
ENDBRANCH  16  17
ENDBRANCH  14  16
ENDBRANCH   1  14
BRANCH   4  19
ATOM     19  C   UNL     1       2.332   2.532  18.252  0.00  0.00    +0.000 C 
BRANCH  19  20
ATOM     20  C   UNL     1       1.341   3.319  19.103  0.00  0.00    +0.000 C 
BRANCH  20  21
ATOM     21  C   UNL     1       1.677   4.788  19.135  0.00  0.00    +0.000 A 
ATOM     22  C   UNL     1       1.752   5.531  17.948  0.00  0.00    +0.000 A 
ATOM     23  C   UNL     1       2.066   6.892  17.987  0.00  0.00    +0.000 A 
ATOM     24  C   UNL     1       2.317   7.525  19.205  0.00  0.00    +0.000 A 
ATOM     25  C   UNL     1       2.259   6.794  20.390  0.00  0.00    +0.000 A 
ATOM     26  C   UNL     1       1.946   5.439  20.347  0.00  0.00    +0.000 A 
ATOM     27  F   UNL     1       1.909   4.746  21.494  0.00  0.00    +0.000 F 
ENDBRANCH  20  21
ENDBRANCH  19  20
ENDBRANCH   4  19
TORSDOF 7
ENDMDL
MODEL 5
REMARK VINA RESULT:      -7.6      4.799      8.140
REMARK  Name = 
REMARK  7 active torsions:
REMARK  status: ('A' for Active; 'I' for Inactive)
REMARK    1  A    between atoms: C_2  and  O_3
REMARK    2  A    between atoms: C_2  and  C_4
REMARK    3  A    between atoms: C_4  and  C_5
REMARK    4  A    between atoms: C_8  and  C_10
REMARK    5  A    between atoms: C_10  and  C_11
REMARK    6  A    between atoms: C_11  and  C_12
REMARK    7  A    between atoms: C_20  and  C_21
REMARK                            x       y       z     vdW  Elec       q    Type
REMARK                         _______ _______ _______ _____ _____    ______ ____
ROOT
ATOM      1  C   UNL     1       3.154   5.471  18.146  0.00  0.00    +0.000 C 
ATOM      2  C   UNL     1       4.296   4.695  17.493  0.00  0.00    +0.000 C 
ATOM      3  N   UNL     1       5.451   4.995  18.317  0.00  0.00    +0.000 N 
ATOM      4  C   UNL     1       6.773   4.843  17.958  0.00  0.00    +0.000 C 
ATOM      5  O   UNL     1       7.690   5.203  18.696  0.00  0.00    +0.000 OA
ATOM      6  C   UNL     1       5.060   5.436  19.649  0.00  0.00    +0.000 C 
ATOM      7  C   UNL     1       3.521   5.415  19.655  0.00  0.00    +0.000 C 
ENDROOT
BRANCH   7   8
ATOM      8  C   UNL     1       2.923   4.236  20.354  0.00  0.00    +0.000 A 
ATOM      9  C   UNL     1       3.359   2.938  20.500  0.00  0.00    +0.000 A 
ATOM     10  N   UNL     1       2.320   2.306  21.116  0.00  0.00    +0.000 N 
ATOM     11  N   UNL     1       1.300   3.147  21.337  0.00  0.00    +0.000 NA
ATOM     12  N   UNL     1       1.663   4.340  20.891  0.00  0.00    +0.000 NA
ATOM     13  H   UNL     1       2.218   1.333  21.384  0.00  0.00    +0.000 HD
ENDBRANCH   7   8
BRANCH   1  14
ATOM     14  C   UNL     1       1.759   4.944  17.786  0.00  0.00    +0.000 C 
BRANCH  14  16
ATOM     15  O   UNL     1       2.438   2.904  16.667  0.00  0.00    +0.000 OA
ATOM     16  C   UNL     1       1.730   3.465  17.486  0.00  0.00    +0.000 C 
BRANCH  16  17
ATOM     17  O   UNL     1       0.870   2.786  18.278  0.00  0.00    +0.000 OA
ATOM     18  H   UNL     1       0.874   3.073  19.212  0.00  0.00    +0.000 HD
ENDBRANCH  16  17
ENDBRANCH  14  16
ENDBRANCH   1  14
BRANCH   4  19
ATOM     19  C   UNL     1       7.033   4.232  16.592  0.00  0.00    +0.000 C 
BRANCH  19  20
ATOM     20  C   UNL     1       7.004   5.295  15.499  0.00  0.00    +0.000 C 
BRANCH  20  21
ATOM     21  C   UNL     1       6.722   4.696  14.145  0.00  0.00    +0.000 A 
ATOM     22  C   UNL     1       5.606   3.870  13.946  0.00  0.00    +0.000 A 
ATOM     23  C   UNL     1       5.354   3.317  12.689  0.00  0.00    +0.000 A 
ATOM     24  C   UNL     1       6.212   3.575  11.618  0.00  0.00    +0.000 A 
ATOM     25  C   UNL     1       7.330   4.384  11.807  0.00  0.00    +0.000 A 
ATOM     26  C   UNL     1       7.578   4.932  13.061  0.00  0.00    +0.000 A 
ATOM     27  F   UNL     1       8.667   5.696  13.230  0.00  0.00    +0.000 F 
ENDBRANCH  20  21
ENDBRANCH  19  20
ENDBRANCH   4  19
TORSDOF 7
ENDMDL
MODEL 6
REMARK VINA RESULT:      -7.6      3.728      8.442
REMARK  Name = 
REMARK  7 active torsions:
REMARK  status: ('A' for Active; 'I' for Inactive)
REMARK    1  A    between atoms: C_2  and  O_3
REMARK    2  A    between atoms: C_2  and  C_4
REMARK    3  A    between atoms: C_4  and  C_5
REMARK    4  A    between atoms: C_8  and  C_10
REMARK    5  A    between atoms: C_10  and  C_11
REMARK    6  A    between atoms: C_11  and  C_12
REMARK    7  A    between atoms: C_20  and  C_21
REMARK                            x       y       z     vdW  Elec       q    Type
REMARK                         _______ _______ _______ _____ _____    ______ ____
ROOT
ATOM      1  C   UNL     1       3.190   6.559  19.401  0.00  0.00    +0.000 C 
ATOM      2  C   UNL     1       3.946   6.372  18.087  0.00  0.00    +0.000 C 
ATOM      3  N   UNL     1       4.957   5.378  18.393  0.00  0.00    +0.000 N 
ATOM      4  C   UNL     1       6.104   5.129  17.672  0.00  0.00    +0.000 C 
ATOM      5  O   UNL     1       6.948   4.319  18.055  0.00  0.00    +0.000 OA
ATOM      6  C   UNL     1       4.592   4.584  19.558  0.00  0.00    +0.000 C 
ATOM      7  C   UNL     1       3.235   5.138  20.026  0.00  0.00    +0.000 C 
ENDROOT
BRANCH   7   8
ATOM      8  C   UNL     1       2.060   4.296  19.641  0.00  0.00    +0.000 A 
ATOM      9  C   UNL     1       0.948   3.895  20.346  0.00  0.00    +0.000 A 
ATOM     10  N   UNL     1       0.312   3.032  19.503  0.00  0.00    +0.000 N 
ATOM     11  N   UNL     1       0.980   2.899  18.349  0.00  0.00    +0.000 NA
ATOM     12  N   UNL     1       2.046   3.683  18.412  0.00  0.00    +0.000 NA
ATOM     13  H   UNL     1      -0.534   2.493  19.643  0.00  0.00    +0.000 HD
ENDBRANCH   7   8
BRANCH   1  14
ATOM     14  C   UNL     1       1.789   7.161  19.232  0.00  0.00    +0.000 C 
BRANCH  14  16
ATOM     15  O   UNL     1       0.932   9.326  19.906  0.00  0.00    +0.000 OA
ATOM     16  C   UNL     1       1.492   8.282  20.198  0.00  0.00    +0.000 C 
BRANCH  16  17
ATOM     17  O   UNL     1       1.852   7.989  21.467  0.00  0.00    +0.000 OA
ATOM     18  H   UNL     1       2.632   8.482  21.786  0.00  0.00    +0.000 HD
ENDBRANCH  16  17
ENDBRANCH  14  16
ENDBRANCH   1  14
BRANCH   4  19
ATOM     19  C   UNL     1       6.282   5.932  16.393  0.00  0.00    +0.000 C 
BRANCH  19  20
ATOM     20  C   UNL     1       7.450   5.400  15.569  0.00  0.00    +0.000 C 
BRANCH  20  21
ATOM     21  C   UNL     1       6.983   4.780  14.277  0.00  0.00    +0.000 A 
ATOM     22  C   UNL     1       5.846   3.960  14.245  0.00  0.00    +0.000 A 
ATOM     23  C   UNL     1       5.423   3.388  13.044  0.00  0.00    +0.000 A 
ATOM     24  C   UNL     1       6.129   3.619  11.862  0.00  0.00    +0.000 A 
ATOM     25  C   UNL     1       7.268   4.422  11.883  0.00  0.00    +0.000 A 
ATOM     26  C   UNL     1       7.687   4.989  13.083  0.00  0.00    +0.000 A 
ATOM     27  F   UNL     1       8.793   5.747  13.089  0.00  0.00    +0.000 F 
ENDBRANCH  20  21
ENDBRANCH  19  20
ENDBRANCH   4  19
TORSDOF 7
ENDMDL
MODEL 7
REMARK VINA RESULT:      -7.5      4.305      8.406
REMARK  Name = 
REMARK  7 active torsions:
REMARK  status: ('A' for Active; 'I' for Inactive)
REMARK    1  A    between atoms: C_2  and  O_3
REMARK    2  A    between atoms: C_2  and  C_4
REMARK    3  A    between atoms: C_4  and  C_5
REMARK    4  A    between atoms: C_8  and  C_10
REMARK    5  A    between atoms: C_10  and  C_11
REMARK    6  A    between atoms: C_11  and  C_12
REMARK    7  A    between atoms: C_20  and  C_21
REMARK                            x       y       z     vdW  Elec       q    Type
REMARK                         _______ _______ _______ _____ _____    ______ ____
ROOT
ATOM      1  C   UNL     1      -0.335  10.203  20.626  0.00  0.00    +0.000 C 
ATOM      2  C   UNL     1       0.849   9.248  20.488  0.00  0.00    +0.000 C 
ATOM      3  N   UNL     1       1.257   9.379  19.103  0.00  0.00    +0.000 N 
ATOM      4  C   UNL     1       2.026   8.486  18.389  0.00  0.00    +0.000 C 
ATOM      5  O   UNL     1       2.254   8.642  17.190  0.00  0.00    +0.000 OA
ATOM      6  C   UNL     1       0.807  10.640  18.529  0.00  0.00    +0.000 C 
ATOM      7  C   UNL     1       0.043  11.357  19.656  0.00  0.00    +0.000 C 
ENDROOT
BRANCH   7   8
ATOM      8  C   UNL     1       0.814  12.450  20.325  0.00  0.00    +0.000 A 
ATOM      9  C   UNL     1       0.431  13.434  21.209  0.00  0.00    +0.000 A 
ATOM     10  N   UNL     1       1.546  14.207  21.349  0.00  0.00    +0.000 N 
ATOM     11  N   UNL     1       2.557  13.742  20.603  0.00  0.00    +0.000 NA
ATOM     12  N   UNL     1       2.128  12.654  19.983  0.00  0.00    +0.000 NA
ATOM     13  H   UNL     1       1.686  15.052  21.892  0.00  0.00    +0.000 HD
ENDBRANCH   7   8
BRANCH   1  14
ATOM     14  C   UNL     1      -0.628  10.627  22.072  0.00  0.00    +0.000 C 
BRANCH  14  16
ATOM     15  O   UNL     1       0.528   9.702  23.991  0.00  0.00    +0.000 OA
ATOM     16  C   UNL     1      -0.286   9.569  23.093  0.00  0.00    +0.000 C 
BRANCH  16  17
ATOM     17  O   UNL     1      -1.034   8.451  22.959  0.00  0.00    +0.000 OA
ATOM     18  H   UNL     1      -0.873   7.777  23.646  0.00  0.00    +0.000 HD
ENDBRANCH  16  17
ENDBRANCH  14  16
ENDBRANCH   1  14
BRANCH   4  19
ATOM     19  C   UNL     1       2.552   7.286  19.159  0.00  0.00    +0.000 C 
BRANCH  19  20
ATOM     20  C   UNL     1       2.967   6.165  18.212  0.00  0.00    +0.000 C 
BRANCH  20  21
ATOM     21  C   UNL     1       2.346   4.848  18.601  0.00  0.00    +0.000 A 
ATOM     22  C   UNL     1       1.615   4.725  19.791  0.00  0.00    +0.000 A 
ATOM     23  C   UNL     1       1.046   3.500  20.145  0.00  0.00    +0.000 A 
ATOM     24  C   UNL     1       1.203   2.383  19.322  0.00  0.00    +0.000 A 
ATOM     25  C   UNL     1       1.938   2.490  18.144  0.00  0.00    +0.000 A 
ATOM     26  C   UNL     1       2.504   3.712  17.796  0.00  0.00    +0.000 A 
ATOM     27  F   UNL     1       3.221   3.795  16.665  0.00  0.00    +0.000 F 
ENDBRANCH  20  21
ENDBRANCH  19  20
ENDBRANCH   4  19
TORSDOF 7
ENDMDL
MODEL 8
REMARK VINA RESULT:      -7.5      0.985      1.362
REMARK  Name = 
REMARK  7 active torsions:
REMARK  status: ('A' for Active; 'I' for Inactive)
REMARK    1  A    between atoms: C_2  and  O_3
REMARK    2  A    between atoms: C_2  and  C_4
REMARK    3  A    between atoms: C_4  and  C_5
REMARK    4  A    between atoms: C_8  and  C_10
REMARK    5  A    between atoms: C_10  and  C_11
REMARK    6  A    between atoms: C_11  and  C_12
REMARK    7  A    between atoms: C_20  and  C_21
REMARK                            x       y       z     vdW  Elec       q    Type
REMARK                         _______ _______ _______ _____ _____    ______ ____
ROOT
ATOM      1  C   UNL     1       4.239   5.543  17.188  0.00  0.00    +0.000 C 
ATOM      2  C   UNL     1       3.542   6.473  18.180  0.00  0.00    +0.000 C 
ATOM      3  N   UNL     1       3.071   5.590  19.229  0.00  0.00    +0.000 N 
ATOM      4  C   UNL     1       2.087   5.870  20.153  0.00  0.00    +0.000 C 
ATOM      5  O   UNL     1       1.694   5.025  20.957  0.00  0.00    +0.000 OA
ATOM      6  C   UNL     1       3.817   4.339  19.253  0.00  0.00    +0.000 C 
ATOM      7  C   UNL     1       4.842   4.449  18.111  0.00  0.00    +0.000 C 
ENDROOT
BRANCH   7   8
ATOM      8  C   UNL     1       6.232   4.770  18.560  0.00  0.00    +0.000 A 
ATOM      9  C   UNL     1       7.462   4.513  17.996  0.00  0.00    +0.000 A 
ATOM     10  N   UNL     1       8.355   4.926  18.940  0.00  0.00    +0.000 N 
ATOM     11  N   UNL     1       7.730   5.406  20.024  0.00  0.00    +0.000 NA
ATOM     12  N   UNL     1       6.427   5.333  19.798  0.00  0.00    +0.000 NA
ATOM     13  H   UNL     1       9.368   4.891  18.935  0.00  0.00    +0.000 HD
ENDBRANCH   7   8
BRANCH   1  14
ATOM     14  C   UNL     1       5.239   6.254  16.267  0.00  0.00    +0.000 C 
BRANCH  14  16
ATOM     15  O   UNL     1       5.160   4.531  14.564  0.00  0.00    +0.000 OA
ATOM     16  C   UNL     1       5.799   5.366  15.182  0.00  0.00    +0.000 C 
BRANCH  16  17
ATOM     17  O   UNL     1       7.094   5.633  14.903  0.00  0.00    +0.000 OA
ATOM     18  H   UNL     1       7.608   5.963  15.664  0.00  0.00    +0.000 HD
ENDBRANCH  16  17
ENDBRANCH  14  16
ENDBRANCH   1  14
BRANCH   4  19
ATOM     19  C   UNL     1       1.498   7.270  20.105  0.00  0.00    +0.000 C 
BRANCH  19  20
ATOM     20  C   UNL     1       1.843   8.055  21.367  0.00  0.00    +0.000 C 
BRANCH  20  21
ATOM     21  C   UNL     1       0.865   9.176  21.610  0.00  0.00    +0.000 A 
ATOM     22  C   UNL     1       0.121   9.232  22.796  0.00  0.00    +0.000 A 
ATOM     23  C   UNL     1      -0.785  10.274  23.011  0.00  0.00    +0.000 A 
ATOM     24  C   UNL     1      -0.963  11.266  22.046  0.00  0.00    +0.000 A 
ATOM     25  C   UNL     1      -0.239  11.214  20.858  0.00  0.00    +0.000 A 
ATOM     26  C   UNL     1       0.661  10.174  20.647  0.00  0.00    +0.000 A 
ATOM     27  F   UNL     1       1.340  10.129  19.491  0.00  0.00    +0.000 F 
ENDBRANCH  20  21
ENDBRANCH  19  20
ENDBRANCH   4  19
TORSDOF 7
ENDMDL
MODEL 9
REMARK VINA RESULT:      -7.5      4.013      8.293
REMARK  Name = 
REMARK  7 active torsions:
REMARK  status: ('A' for Active; 'I' for Inactive)
REMARK    1  A    between atoms: C_2  and  O_3
REMARK    2  A    between atoms: C_2  and  C_4
REMARK    3  A    between atoms: C_4  and  C_5
REMARK    4  A    between atoms: C_8  and  C_10
REMARK    5  A    between atoms: C_10  and  C_11
REMARK    6  A    between atoms: C_11  and  C_12
REMARK    7  A    between atoms: C_20  and  C_21
REMARK                            x       y       z     vdW  Elec       q    Type
REMARK                         _______ _______ _______ _____ _____    ______ ____
ROOT
ATOM      1  C   UNL     1       3.206   6.902  18.775  0.00  0.00    +0.000 C 
ATOM      2  C   UNL     1       4.158   6.547  17.635  0.00  0.00    +0.000 C 
ATOM      3  N   UNL     1       5.159   5.699  18.253  0.00  0.00    +0.000 N 
ATOM      4  C   UNL     1       6.412   5.417  17.754  0.00  0.00    +0.000 C 
ATOM      5  O   UNL     1       7.228   4.751  18.391  0.00  0.00    +0.000 OA
ATOM      6  C   UNL     1       4.665   5.095  19.482  0.00  0.00    +0.000 C 
ATOM      7  C   UNL     1       3.227   5.618  19.650  0.00  0.00    +0.000 C 
ENDROOT
BRANCH   7   8
ATOM      8  C   UNL     1       2.166   4.637  19.267  0.00  0.00    +0.000 A 
ATOM      9  C   UNL     1       1.064   4.165  19.944  0.00  0.00    +0.000 A 
ATOM     10  N   UNL     1       0.564   3.191  19.131  0.00  0.00    +0.000 N 
ATOM     11  N   UNL     1       1.303   3.057  18.021  0.00  0.00    +0.000 NA
ATOM     12  N   UNL     1       2.279   3.951  18.082  0.00  0.00    +0.000 NA
ATOM     13  H   UNL     1      -0.230   2.576  19.266  0.00  0.00    +0.000 HD
ENDBRANCH   7   8
BRANCH   1  14
ATOM     14  C   UNL     1       1.818   7.359  18.308  0.00  0.00    +0.000 C 
BRANCH  14  16
ATOM     15  O   UNL     1       1.179   9.426  19.400  0.00  0.00    +0.000 OA
ATOM     16  C   UNL     1       1.605   8.849  18.413  0.00  0.00    +0.000 C 
BRANCH  16  17
ATOM     17  O   UNL     1       2.003   9.514  17.306  0.00  0.00    +0.000 OA
ATOM     18  H   UNL     1       2.723   9.076  16.813  0.00  0.00    +0.000 HD
ENDBRANCH  16  17
ENDBRANCH  14  16
ENDBRANCH   1  14
BRANCH   4  19
ATOM     19  C   UNL     1       6.738   5.996  16.387  0.00  0.00    +0.000 C 
BRANCH  19  20
ATOM     20  C   UNL     1       7.699   5.092  15.622  0.00  0.00    +0.000 C 
BRANCH  20  21
ATOM     21  C   UNL     1       7.105   4.624  14.319  0.00  0.00    +0.000 A 
ATOM     22  C   UNL     1       5.966   3.806  14.303  0.00  0.00    +0.000 A 
ATOM     23  C   UNL     1       5.425   3.374  13.090  0.00  0.00    +0.000 A 
ATOM     24  C   UNL     1       6.014   3.747  11.881  0.00  0.00    +0.000 A 
ATOM     25  C   UNL     1       7.153   4.548  11.884  0.00  0.00    +0.000 A 
ATOM     26  C   UNL     1       7.690   4.975  13.094  0.00  0.00    +0.000 A 
ATOM     27  F   UNL     1       8.796   5.734  13.081  0.00  0.00    +0.000 F 
ENDBRANCH  20  21
ENDBRANCH  19  20
ENDBRANCH   4  19
TORSDOF 7
ENDMDL
