MODEL 1
REMARK VINA RESULT:      -8.2      0.000      0.000
REMARK  Name = 
REMARK  5 active torsions:
REMARK  status: ('A' for Active; 'I' for Inactive)
REMARK    1  A    between atoms: C_1  and  C_2
REMARK    2  A    between atoms: C_2  and  C_3
REMARK    3  A    between atoms: C_7  and  C_8
REMARK    4  A    between atoms: C_8  and  N_9
REMARK    5  A    between atoms: N_9  and  C_10
REMARK                            x       y       z     vdW  Elec       q    Type
REMARK                         _______ _______ _______ _____ _____    ______ ____
ROOT
ATOM      1  N   UNL     1       4.022   6.304  19.441  0.00  0.00    +0.000 N 
ATOM      2  H   UNL     1       4.256   7.241  19.760  0.00  0.00    +0.000 HD
ENDROOT
BRANCH   1   3
ATOM      3  C   UNL     1       5.017   5.818  18.586  0.00  0.00    +0.000 A 
ATOM      4  C   UNL     1       6.286   5.374  19.015  0.00  0.00    +0.000 A 
ATOM      5  C   UNL     1       7.253   4.913  18.107  0.00  0.00    +0.000 A 
ATOM      6  C   UNL     1       6.944   4.950  16.766  0.00  0.00    +0.000 A 
ATOM      7  C   UNL     1       5.729   5.411  16.323  0.00  0.00    +0.000 A 
ATOM      8  C   UNL     1       4.758   5.847  17.202  0.00  0.00    +0.000 A 
ATOM      9  O   UNL     1       5.619   5.369  14.967  0.00  0.00    +0.000 OA
ATOM     10  C   UNL     1       6.935   4.902  14.607  0.00  0.00    +0.000 C 
ATOM     11  O   UNL     1       7.756   4.563  15.746  0.00  0.00    +0.000 OA
ENDBRANCH   1   3
BRANCH   1  12
ATOM     12  C   UNL     1       2.603   6.129  19.150  0.00  0.00    +0.000 C 
BRANCH  12  19
ATOM     13  C   UNL     1       4.211   2.637  20.187  0.00  0.00    +0.000 C 
ATOM     14  C   UNL     1       3.033   2.345  19.243  0.00  0.00    +0.000 C 
ATOM     15  C   UNL     1       3.494   1.263  18.252  0.00  0.00    +0.000 C 
ATOM     16  C   UNL     1       1.599   2.084  19.881  0.00  0.00    +0.000 C 
ATOM     17  C   UNL     1       1.245   2.962  21.098  0.00  0.00    +0.000 C 
ATOM     18  C   UNL     1       1.612   4.411  20.784  0.00  0.00    +0.000 C 
ATOM     19  C   UNL     1       2.163   4.756  19.586  0.00  0.00    +0.000 C 
ATOM     20  C   UNL     1       2.307   3.611  18.608  0.00  0.00    +0.000 C 
ATOM     21  C   UNL     1       1.015   2.722  18.577  0.00  0.00    +0.000 C 
ENDBRANCH  12  19
ENDBRANCH   1  12
TORSDOF 3
ENDMDL
MODEL 2
REMARK VINA RESULT:      -8.0      1.399      2.645
REMARK  Name = 
REMARK  5 active torsions:
REMARK  status: ('A' for Active; 'I' for Inactive)
REMARK    1  A    between atoms: C_1  and  C_2
REMARK    2  A    between atoms: C_2  and  C_3
REMARK    3  A    between atoms: C_7  and  C_8
REMARK    4  A    between atoms: C_8  and  N_9
REMARK    5  A    between atoms: N_9  and  C_10
REMARK                            x       y       z     vdW  Elec       q    Type
REMARK                         _______ _______ _______ _____ _____    ______ ____
ROOT
ATOM      1  N   UNL     1       5.384   3.658  19.368  0.00  0.00    +0.000 N 
ATOM      2  H   UNL     1       4.929   4.382  19.918  0.00  0.00    +0.000 HD
ENDROOT
BRANCH   1   3
ATOM      3  C   UNL     1       5.975   4.213  18.228  0.00  0.00    +0.000 A 
ATOM      4  C   UNL     1       6.765   5.382  18.231  0.00  0.00    +0.000 A 
ATOM      5  C   UNL     1       7.318   5.903  17.051  0.00  0.00    +0.000 A 
ATOM      6  C   UNL     1       7.029   5.260  15.867  0.00  0.00    +0.000 A 
ATOM      7  C   UNL     1       6.233   4.142  15.836  0.00  0.00    +0.000 A 
ATOM      8  C   UNL     1       5.699   3.602  16.989  0.00  0.00    +0.000 A 
ATOM      9  O   UNL     1       6.065   3.658  14.575  0.00  0.00    +0.000 OA
ATOM     10  C   UNL     1       6.782   4.650  13.811  0.00  0.00    +0.000 C 
ATOM     11  O   UNL     1       7.458   5.628  14.630  0.00  0.00    +0.000 OA
ENDBRANCH   1   3
BRANCH   1  12
ATOM     12  C   UNL     1       4.631   2.410  19.316  0.00  0.00    +0.000 C 
BRANCH  12  19
ATOM     13  C   UNL     1       2.035   5.301  18.444  0.00  0.00    +0.000 C 
ATOM     14  C   UNL     1       1.728   4.813  19.870  0.00  0.00    +0.000 C 
ATOM     15  C   UNL     1       1.477   6.058  20.738  0.00  0.00    +0.000 C 
ATOM     16  C   UNL     1       0.655   3.653  20.057  0.00  0.00    +0.000 C 
ATOM     17  C   UNL     1       0.688   2.540  18.992  0.00  0.00    +0.000 C 
ATOM     18  C   UNL     1       2.138   2.116  18.766  0.00  0.00    +0.000 C 
ATOM     19  C   UNL     1       3.159   2.700  19.455  0.00  0.00    +0.000 C 
ATOM     20  C   UNL     1       2.723   3.728  20.475  0.00  0.00    +0.000 C 
ATOM     21  C   UNL     1       1.493   3.219  21.306  0.00  0.00    +0.000 C 
ENDBRANCH  12  19
ENDBRANCH   1  12
TORSDOF 3
ENDMDL
MODEL 3
REMARK VINA RESULT:      -8.0      1.841      3.262
REMARK  Name = 
REMARK  5 active torsions:
REMARK  status: ('A' for Active; 'I' for Inactive)
REMARK    1  A    between atoms: C_1  and  C_2
REMARK    2  A    between atoms: C_2  and  C_3
REMARK    3  A    between atoms: C_7  and  C_8
REMARK    4  A    between atoms: C_8  and  N_9
REMARK    5  A    between atoms: N_9  and  C_10
REMARK                            x       y       z     vdW  Elec       q    Type
REMARK                         _______ _______ _______ _____ _____    ______ ____
ROOT
ATOM      1  N   UNL     1       4.624   2.686  17.552  0.00  0.00    +0.000 N 
ATOM      2  H   UNL     1       5.041   1.978  16.952  0.00  0.00    +0.000 HD
ENDROOT
BRANCH   1   3
ATOM      3  C   UNL     1       5.190   3.939  17.290  0.00  0.00    +0.000 A 
ATOM      4  C   UNL     1       4.983   4.673  16.103  0.00  0.00    +0.000 A 
ATOM      5  C   UNL     1       5.593   5.919  15.890  0.00  0.00    +0.000 A 
ATOM      6  C   UNL     1       6.447   6.392  16.862  0.00  0.00    +0.000 A 
ATOM      7  C   UNL     1       6.692   5.678  18.008  0.00  0.00    +0.000 A 
ATOM      8  C   UNL     1       6.084   4.462  18.246  0.00  0.00    +0.000 A 
ATOM      9  O   UNL     1       7.564   6.311  18.839  0.00  0.00    +0.000 OA
ATOM     10  C   UNL     1       7.898   7.467  18.044  0.00  0.00    +0.000 C 
ATOM     11  O   UNL     1       7.137   7.563  16.821  0.00  0.00    +0.000 OA
ENDBRANCH   1   3
BRANCH   1  12
ATOM     12  C   UNL     1       4.375   2.222  18.911  0.00  0.00    +0.000 C 
BRANCH  12  19
ATOM     13  C   UNL     1       1.849   5.198  18.129  0.00  0.00    +0.000 C 
ATOM     14  C   UNL     1       1.969   5.078  19.657  0.00  0.00    +0.000 C 
ATOM     15  C   UNL     1       2.092   6.503  20.223  0.00  0.00    +0.000 C 
ATOM     16  C   UNL     1       0.929   4.152  20.427  0.00  0.00    +0.000 C 
ATOM     17  C   UNL     1       0.548   2.843  19.709  0.00  0.00    +0.000 C 
ATOM     18  C   UNL     1       1.821   2.176  19.190  0.00  0.00    +0.000 C 
ATOM     19  C   UNL     1       3.045   2.743  19.389  0.00  0.00    +0.000 C 
ATOM     20  C   UNL     1       3.024   4.018  20.202  0.00  0.00    +0.000 C 
ATOM     21  C   UNL     1       2.082   3.882  21.450  0.00  0.00    +0.000 C 
ENDBRANCH  12  19
ENDBRANCH   1  12
TORSDOF 3
ENDMDL
MODEL 4
REMARK VINA RESULT:      -7.7      5.670      8.657
REMARK  Name = 
REMARK  5 active torsions:
REMARK  status: ('A' for Active; 'I' for Inactive)
REMARK    1  A    between atoms: C_1  and  C_2
REMARK    2  A    between atoms: C_2  and  C_3
REMARK    3  A    between atoms: C_7  and  C_8
REMARK    4  A    between atoms: C_8  and  N_9
REMARK    5  A    between atoms: N_9  and  C_10
REMARK                            x       y       z     vdW  Elec       q    Type
REMARK                         _______ _______ _______ _____ _____    ______ ____
ROOT
ATOM      1  N   UNL     1       8.624   8.277  18.803  0.00  0.00    +0.000 N 
ATOM      2  H   UNL     1       9.588   8.040  19.024  0.00  0.00    +0.000 HD
ENDROOT
BRANCH   1   3
ATOM      3  C   UNL     1       7.941   7.149  18.335  0.00  0.00    +0.000 A 
ATOM      4  C   UNL     1       7.942   5.894  18.979  0.00  0.00    +0.000 A 
ATOM      5  C   UNL     1       7.251   4.792  18.451  0.00  0.00    +0.000 A 
ATOM      6  C   UNL     1       6.602   4.958  17.248  0.00  0.00    +0.000 A 
ATOM      7  C   UNL     1       6.617   6.159  16.585  0.00  0.00    +0.000 A 
ATOM      8  C   UNL     1       7.272   7.260  17.100  0.00  0.00    +0.000 A 
ATOM      9  O   UNL     1       5.922   6.118  15.416  0.00  0.00    +0.000 OA
ATOM     10  C   UNL     1       5.536   4.729  15.384  0.00  0.00    +0.000 C 
ATOM     11  O   UNL     1       5.900   4.004  16.579  0.00  0.00    +0.000 OA
ENDBRANCH   1   3
BRANCH   1  12
ATOM     12  C   UNL     1       8.479   9.583  18.172  0.00  0.00    +0.000 C 
BRANCH  12  19
ATOM     13  C   UNL     1       8.813  13.525  18.627  0.00  0.00    +0.000 C 
ATOM     14  C   UNL     1      10.216  12.969  18.335  0.00  0.00    +0.000 C 
ATOM     15  C   UNL     1      10.884  13.915  17.323  0.00  0.00    +0.000 C 
ATOM     16  C   UNL     1      11.140  12.563  19.565  0.00  0.00    +0.000 C 
ATOM     17  C   UNL     1      10.414  11.886  20.745  0.00  0.00    +0.000 C 
ATOM     18  C   UNL     1       9.477  10.813  20.196  0.00  0.00    +0.000 C 
ATOM     19  C   UNL     1       9.378  10.580  18.857  0.00  0.00    +0.000 C 
ATOM     20  C   UNL     1      10.305  11.415  18.003  0.00  0.00    +0.000 C 
ATOM     21  C   UNL     1      11.747  11.475  18.619  0.00  0.00    +0.000 C 
ENDBRANCH  12  19
ENDBRANCH   1  12
TORSDOF 3
ENDMDL
MODEL 5
REMARK VINA RESULT:      -7.5      0.697      1.458
REMARK  Name = 
REMARK  5 active torsions:
REMARK  status: ('A' for Active; 'I' for Inactive)
REMARK    1  A    between atoms: C_1  and  C_2
REMARK    2  A    between atoms: C_2  and  C_3
REMARK    3  A    between atoms: C_7  and  C_8
REMARK    4  A    between atoms: C_8  and  N_9
REMARK    5  A    between atoms: N_9  and  C_10
REMARK                            x       y       z     vdW  Elec       q    Type
REMARK                         _______ _______ _______ _____ _____    ______ ____
ROOT
ATOM      1  N   UNL     1       4.146   6.152  19.583  0.00  0.00    +0.000 N 
ATOM      2  H   UNL     1       4.642   6.820  20.168  0.00  0.00    +0.000 HD
ENDROOT
BRANCH   1   3
ATOM      3  C   UNL     1       4.696   6.130  18.296  0.00  0.00    +0.000 A 
ATOM      4  C   UNL     1       4.195   6.872  17.205  0.00  0.00    +0.000 A 
ATOM      5  C   UNL     1       4.778   6.795  15.931  0.00  0.00    +0.000 A 
ATOM      6  C   UNL     1       5.837   5.931  15.759  0.00  0.00    +0.000 A 
ATOM      7  C   UNL     1       6.317   5.173  16.797  0.00  0.00    +0.000 A 
ATOM      8  C   UNL     1       5.772   5.252  18.063  0.00  0.00    +0.000 A 
ATOM      9  O   UNL     1       7.362   4.383  16.425  0.00  0.00    +0.000 OA
ATOM     10  C   UNL     1       7.428   4.676  15.014  0.00  0.00    +0.000 C 
ATOM     11  O   UNL     1       6.513   5.712  14.599  0.00  0.00    +0.000 OA
ENDBRANCH   1   3
BRANCH   1  12
ATOM     12  C   UNL     1       2.705   6.143  19.806  0.00  0.00    +0.000 C 
BRANCH  12  19
ATOM     13  C   UNL     1       4.219   2.477  20.157  0.00  0.00    +0.000 C 
ATOM     14  C   UNL     1       3.029   2.399  19.187  0.00  0.00    +0.000 C 
ATOM     15  C   UNL     1       3.454   1.509  18.007  0.00  0.00    +0.000 C 
ATOM     16  C   UNL     1       1.591   2.062  19.780  0.00  0.00    +0.000 C 
ATOM     17  C   UNL     1       1.267   2.706  21.143  0.00  0.00    +0.000 C 
ATOM     18  C   UNL     1       1.674   4.178  21.101  0.00  0.00    +0.000 C 
ATOM     19  C   UNL     1       2.228   4.725  19.982  0.00  0.00    +0.000 C 
ATOM     20  C   UNL     1       2.336   3.780  18.807  0.00  0.00    +0.000 C 
ATOM     21  C   UNL     1       1.019   2.947  18.624  0.00  0.00    +0.000 C 
ENDBRANCH  12  19
ENDBRANCH   1  12
TORSDOF 3
ENDMDL
MODEL 6
REMARK VINA RESULT:      -7.5      3.949      5.644
REMARK  Name = 
REMARK  5 active torsions:
REMARK  status: ('A' for Active; 'I' for Inactive)
REMARK    1  A    between atoms: C_1  and  C_2
REMARK    2  A    between atoms: C_2  and  C_3
REMARK    3  A    between atoms: C_7  and  C_8
REMARK    4  A    between atoms: C_8  and  N_9
REMARK    5  A    between atoms: N_9  and  C_10
REMARK                            x       y       z     vdW  Elec       q    Type
REMARK                         _______ _______ _______ _____ _____    ______ ____
ROOT
ATOM      1  N   UNL     1       2.504   6.746  20.318  0.00  0.00    +0.000 N 
ATOM      2  H   UNL     1       3.308   7.005  20.884  0.00  0.00    +0.000 HD
ENDROOT
BRANCH   1   3
ATOM      3  C   UNL     1       1.899   7.886  19.780  0.00  0.00    +0.000 A 
ATOM      4  C   UNL     1       2.086   8.335  18.455  0.00  0.00    +0.000 A 
ATOM      5  C   UNL     1       1.465   9.500  17.976  0.00  0.00    +0.000 A 
ATOM      6  C   UNL     1       0.696  10.228  18.857  0.00  0.00    +0.000 A 
ATOM      7  C   UNL     1       0.530   9.830  20.160  0.00  0.00    +0.000 A 
ATOM      8  C   UNL     1       1.113   8.675  20.643  0.00  0.00    +0.000 A 
ATOM      9  O   UNL     1      -0.260  10.682  20.868  0.00  0.00    +0.000 OA
ATOM     10  C   UNL     1      -0.505  11.702  19.879  0.00  0.00    +0.000 C 
ATOM     11  O   UNL     1       0.037  11.385  18.579  0.00  0.00    +0.000 OA
ENDBRANCH   1   3
BRANCH   1  12
ATOM     12  C   UNL     1       1.722   5.655  20.888  0.00  0.00    +0.000 C 
BRANCH  12  19
ATOM     13  C   UNL     1       4.175   2.834  19.517  0.00  0.00    +0.000 C 
ATOM     14  C   UNL     1       3.400   3.401  18.317  0.00  0.00    +0.000 C 
ATOM     15  C   UNL     1       4.406   3.596  17.169  0.00  0.00    +0.000 C 
ATOM     16  C   UNL     1       2.043   2.689  17.889  0.00  0.00    +0.000 C 
ATOM     17  C   UNL     1       1.157   2.195  19.050  0.00  0.00    +0.000 C 
ATOM     18  C   UNL     1       1.060   3.300  20.100  0.00  0.00    +0.000 C 
ATOM     19  C   UNL     1       1.700   4.492  19.931  0.00  0.00    +0.000 C 
ATOM     20  C   UNL     1       2.435   4.631  18.616  0.00  0.00    +0.000 C 
ATOM     21  C   UNL     1       1.567   4.104  17.420  0.00  0.00    +0.000 C 
ENDBRANCH  12  19
ENDBRANCH   1  12
TORSDOF 3
ENDMDL
MODEL 7
REMARK VINA RESULT:      -7.5      0.947      1.976
REMARK  Name = 
REMARK  5 active torsions:
REMARK  status: ('A' for Active; 'I' for Inactive)
REMARK    1  A    between atoms: C_1  and  C_2
REMARK    2  A    between atoms: C_2  and  C_3
REMARK    3  A    between atoms: C_7  and  C_8
REMARK    4  A    between atoms: C_8  and  N_9
REMARK    5  A    between atoms: N_9  and  C_10
REMARK                            x       y       z     vdW  Elec       q    Type
REMARK                         _______ _______ _______ _____ _____    ______ ____
ROOT
ATOM      1  N   UNL     1       3.863   6.763  18.473  0.00  0.00    +0.000 N 
ATOM      2  H   UNL     1       3.908   7.775  18.389  0.00  0.00    +0.000 HD
ENDROOT
BRANCH   1   3
ATOM      3  C   UNL     1       4.915   6.169  17.768  0.00  0.00    +0.000 A 
ATOM      4  C   UNL     1       6.094   5.674  18.366  0.00  0.00    +0.000 A 
ATOM      5  C   UNL     1       7.125   5.104  17.604  0.00  0.00    +0.000 A 
ATOM      6  C   UNL     1       6.975   5.080  16.235  0.00  0.00    +0.000 A 
ATOM      7  C   UNL     1       5.854   5.589  15.629  0.00  0.00    +0.000 A 
ATOM      8  C   UNL     1       4.819   6.132  16.363  0.00  0.00    +0.000 A 
ATOM      9  O   UNL     1       5.897   5.474  14.273  0.00  0.00    +0.000 OA
ATOM     10  C   UNL     1       7.212   4.908  14.096  0.00  0.00    +0.000 C 
ATOM     11  O   UNL     1       7.872   4.587  15.339  0.00  0.00    +0.000 OA
ENDBRANCH   1   3
BRANCH   1  12
ATOM     12  C   UNL     1       2.504   6.237  18.417  0.00  0.00    +0.000 C 
BRANCH  12  19
ATOM     13  C   UNL     1       0.449   3.296  20.143  0.00  0.00    +0.000 C 
ATOM     14  C   UNL     1       1.944   3.005  20.352  0.00  0.00    +0.000 C 
ATOM     15  C   UNL     1       2.124   2.547  21.810  0.00  0.00    +0.000 C 
ATOM     16  C   UNL     1       2.695   2.100  19.281  0.00  0.00    +0.000 C 
ATOM     17  C   UNL     1       2.286   2.331  17.813  0.00  0.00    +0.000 C 
ATOM     18  C   UNL     1       2.242   3.834  17.544  0.00  0.00    +0.000 C 
ATOM     19  C   UNL     1       2.536   4.735  18.525  0.00  0.00    +0.000 C 
ATOM     20  C   UNL     1       2.959   4.119  19.839  0.00  0.00    +0.000 C 
ATOM     21  C   UNL     1       3.972   2.941  19.617  0.00  0.00    +0.000 C 
ENDBRANCH  12  19
ENDBRANCH   1  12
TORSDOF 3
ENDMDL
MODEL 8
REMARK VINA RESULT:      -7.5      2.855      5.926
REMARK  Name = 
REMARK  5 active torsions:
REMARK  status: ('A' for Active; 'I' for Inactive)
REMARK    1  A    between atoms: C_1  and  C_2
REMARK    2  A    between atoms: C_2  and  C_3
REMARK    3  A    between atoms: C_7  and  C_8
REMARK    4  A    between atoms: C_8  and  N_9
REMARK    5  A    between atoms: N_9  and  C_10
REMARK                            x       y       z     vdW  Elec       q    Type
REMARK                         _______ _______ _______ _____ _____    ______ ____
ROOT
ATOM      1  N   UNL     1       3.133   7.117  18.421  0.00  0.00    +0.000 N 
ATOM      2  H   UNL     1       3.750   7.472  19.147  0.00  0.00    +0.000 HD
ENDROOT
BRANCH   1   3
ATOM      3  C   UNL     1       2.625   5.865  18.784  0.00  0.00    +0.000 A 
ATOM      4  C   UNL     1       1.979   4.980  17.895  0.00  0.00    +0.000 A 
ATOM      5  C   UNL     1       1.473   3.742  18.322  0.00  0.00    +0.000 A 
ATOM      6  C   UNL     1       1.584   3.430  19.659  0.00  0.00    +0.000 A 
ATOM      7  C   UNL     1       2.175   4.291  20.549  0.00  0.00    +0.000 A 
ATOM      8  C   UNL     1       2.699   5.502  20.144  0.00  0.00    +0.000 A 
ATOM      9  O   UNL     1       2.184   3.802  21.819  0.00  0.00    +0.000 OA
ATOM     10  C   UNL     1       1.458   2.570  21.635  0.00  0.00    +0.000 C 
ATOM     11  O   UNL     1       1.139   2.291  20.255  0.00  0.00    +0.000 OA
ENDBRANCH   1   3
BRANCH   1  12
ATOM     12  C   UNL     1       3.607   7.394  17.070  0.00  0.00    +0.000 C 
BRANCH  12  19
ATOM     13  C   UNL     1       5.697   4.368  18.595  0.00  0.00    +0.000 C 
ATOM     14  C   UNL     1       6.677   5.521  18.323  0.00  0.00    +0.000 C 
ATOM     15  C   UNL     1       7.613   5.627  19.539  0.00  0.00    +0.000 C 
ATOM     16  C   UNL     1       7.419   5.566  16.916  0.00  0.00    +0.000 C 
ATOM     17  C   UNL     1       6.566   5.149  15.702  0.00  0.00    +0.000 C 
ATOM     18  C   UNL     1       5.207   5.841  15.794  0.00  0.00    +0.000 C 
ATOM     19  C   UNL     1       4.907   6.673  16.831  0.00  0.00    +0.000 C 
ATOM     20  C   UNL     1       6.037   6.886  17.813  0.00  0.00    +0.000 C 
ATOM     21  C   UNL     1       7.399   7.123  17.071  0.00  0.00    +0.000 C 
ENDBRANCH  12  19
ENDBRANCH   1  12
TORSDOF 3
ENDMDL
MODEL 9
REMARK VINA RESULT:      -7.4      3.583      5.560
REMARK  Name = 
REMARK  5 active torsions:
REMARK  status: ('A' for Active; 'I' for Inactive)
REMARK    1  A    between atoms: C_1  and  C_2
REMARK    2  A    between atoms: C_2  and  C_3
REMARK    3  A    between atoms: C_7  and  C_8
REMARK    4  A    between atoms: C_8  and  N_9
REMARK    5  A    between atoms: N_9  and  C_10
REMARK                            x       y       z     vdW  Elec       q    Type
REMARK                         _______ _______ _______ _____ _____    ______ ____
ROOT
ATOM      1  N   UNL     1       3.364   6.772  17.788  0.00  0.00    +0.000 N 
ATOM      2  H   UNL     1       3.890   7.207  17.034  0.00  0.00    +0.000 HD
ENDROOT
BRANCH   1   3
ATOM      3  C   UNL     1       2.496   7.700  18.373  0.00  0.00    +0.000 A 
ATOM      4  C   UNL     1       1.952   8.815  17.701  0.00  0.00    +0.000 A 
ATOM      5  C   UNL     1       1.099   9.723  18.347  0.00  0.00    +0.000 A 
ATOM      6  C   UNL     1       0.840   9.522  19.685  0.00  0.00    +0.000 A 
ATOM      7  C   UNL     1       1.387   8.465  20.368  0.00  0.00    +0.000 A 
ATOM      8  C   UNL     1       2.209   7.548  19.745  0.00  0.00    +0.000 A 
ATOM      9  O   UNL     1       1.013   8.442  21.677  0.00  0.00    +0.000 OA
ATOM     10  C   UNL     1       0.233   9.652  21.752  0.00  0.00    +0.000 C 
ATOM     11  O   UNL     1       0.057  10.303  20.476  0.00  0.00    +0.000 OA
ENDBRANCH   1   3
BRANCH   1  12
ATOM     12  C   UNL     1       4.157   5.846  18.589  0.00  0.00    +0.000 C 
BRANCH  12  19
ATOM     13  C   UNL     1       0.939   4.070  20.119  0.00  0.00    +0.000 C 
ATOM     14  C   UNL     1       2.130   3.117  20.307  0.00  0.00    +0.000 C 
ATOM     15  C   UNL     1       2.041   2.542  21.731  0.00  0.00    +0.000 C 
ATOM     16  C   UNL     1       2.418   2.034  19.178  0.00  0.00    +0.000 C 
ATOM     17  C   UNL     1       2.202   2.513  17.729  0.00  0.00    +0.000 C 
ATOM     18  C   UNL     1       2.855   3.884  17.560  0.00  0.00    +0.000 C 
ATOM     19  C   UNL     1       3.498   4.491  18.597  0.00  0.00    +0.000 C 
ATOM     20  C   UNL     1       3.556   3.673  19.867  0.00  0.00    +0.000 C 
ATOM     21  C   UNL     1       3.927   2.179  19.566  0.00  0.00    +0.000 C 
ENDBRANCH  12  19
ENDBRANCH   1  12
TORSDOF 3
ENDMDL
