MODEL 1
REMARK VINA RESULT:      -7.5      0.000      0.000
REMARK  Name = 
REMARK  6 active torsions:
REMARK  status: ('A' for Active; 'I' for Inactive)
REMARK    1  A    between atoms: C_2  and  C_11
REMARK    2  A    between atoms: N_3  and  C_4
REMARK    3  A    between atoms: C_4  and  C_5
REMARK    4  A    between atoms: C_5  and  C_6
REMARK    5  A    between atoms: C_13  and  C_14
REMARK    6  A    between atoms: C_14  and  C_15
REMARK                            x       y       z     vdW  Elec       q    Type
REMARK                         _______ _______ _______ _____ _____    ______ ____
ROOT
ATOM      1  C   UNL     1       5.895   5.273  16.827  0.00  0.00    +0.000 A 
ATOM      2  C   UNL     1       4.618   5.728  16.590  0.00  0.00    +0.000 A 
ATOM      3  C   UNL     1       4.032   5.856  17.870  0.00  0.00    +0.000 A 
ATOM      4  N   UNL     1       4.907   5.515  18.830  0.00  0.00    +0.000 NA
ATOM      5  O   UNL     1       6.074   5.158  18.172  0.00  0.00    +0.000 OA
ENDROOT
BRANCH   1   7
ATOM      6  O   UNL     1       7.998   4.391  16.292  0.00  0.00    +0.000 OA
ATOM      7  C   UNL     1       6.949   4.913  15.911  0.00  0.00    +0.000 C 
ATOM      8  N   UNL     1       6.737   5.215  14.578  0.00  0.00    +0.000 N 
ATOM      9  H   UNL     1       5.930   5.782  14.338  0.00  0.00    +0.000 HD
BRANCH   8  10
ATOM     10  C   UNL     1       7.819   5.028  13.623  0.00  0.00    +0.000 C 
BRANCH  10  11
ATOM     11  C   UNL     1       7.368   4.976  12.166  0.00  0.00    +0.000 C 
BRANCH  11  12
ATOM     12  C   UNL     1       6.836   3.628  11.829  0.00  0.00    +0.000 A 
ATOM     13  C   UNL     1       7.417   2.464  11.368  0.00  0.00    +0.000 A 
ATOM     14  C   UNL     1       6.366   1.530  11.206  0.00  0.00    +0.000 A 
ATOM     15  C   UNL     1       5.214   2.182  11.579  0.00  0.00    +0.000 A 
ATOM     16  O   UNL     1       5.491   3.457  11.959  0.00  0.00    +0.000 OA
ENDBRANCH  11  12
ENDBRANCH  10  11
ENDBRANCH   8  10
ENDBRANCH   1   7
BRANCH   3  17
ATOM     17  C   UNL     1       2.615   6.184  18.194  0.00  0.00    +0.000 C 
BRANCH  17  18
ATOM     18  C   UNL     1       1.987   4.969  18.832  0.00  0.00    +0.000 A 
ATOM     19  C   UNL     1       1.772   4.910  20.218  0.00  0.00    +0.000 A 
ATOM     20  C   UNL     1       1.126   3.811  20.792  0.00  0.00    +0.000 A 
ATOM     21  C   UNL     1       0.688   2.761  19.987  0.00  0.00    +0.000 A 
ATOM     22  C   UNL     1       0.905   2.801  18.612  0.00  0.00    +0.000 A 
ATOM     23  C   UNL     1       1.553   3.897  18.037  0.00  0.00    +0.000 A 
ENDBRANCH  17  18
ENDBRANCH   3  17
TORSDOF 6
ENDMDL
MODEL 2
REMARK VINA RESULT:      -7.4      4.086      6.347
REMARK  Name = 
REMARK  6 active torsions:
REMARK  status: ('A' for Active; 'I' for Inactive)
REMARK    1  A    between atoms: C_2  and  C_11
REMARK    2  A    between atoms: N_3  and  C_4
REMARK    3  A    between atoms: C_4  and  C_5
REMARK    4  A    between atoms: C_5  and  C_6
REMARK    5  A    between atoms: C_13  and  C_14
REMARK    6  A    between atoms: C_14  and  C_15
REMARK                            x       y       z     vdW  Elec       q    Type
REMARK                         _______ _______ _______ _____ _____    ______ ____
ROOT
ATOM      1  C   UNL     1       5.527   6.014  17.223  0.00  0.00    +0.000 A 
ATOM      2  C   UNL     1       4.326   6.403  17.772  0.00  0.00    +0.000 A 
ATOM      3  C   UNL     1       3.463   5.300  17.582  0.00  0.00    +0.000 A 
ATOM      4  N   UNL     1       4.106   4.293  16.969  0.00  0.00    +0.000 NA
ATOM      5  O   UNL     1       5.400   4.742  16.753  0.00  0.00    +0.000 OA
ENDROOT
BRANCH   1   7
ATOM      6  O   UNL     1       7.688   6.312  16.373  0.00  0.00    +0.000 OA
ATOM      7  C   UNL     1       6.769   6.732  17.076  0.00  0.00    +0.000 C 
ATOM      8  N   UNL     1       6.890   7.907  17.796  0.00  0.00    +0.000 N 
ATOM      9  H   UNL     1       6.171   8.128  18.477  0.00  0.00    +0.000 HD
BRANCH   8  10
ATOM     10  C   UNL     1       8.170   8.599  17.822  0.00  0.00    +0.000 C 
BRANCH  10  11
ATOM     11  C   UNL     1       8.061  10.121  17.851  0.00  0.00    +0.000 C 
BRANCH  11  12
ATOM     12  C   UNL     1       9.299  10.724  18.412  0.00  0.00    +0.000 A 
ATOM     13  C   UNL     1      10.455  11.224  17.847  0.00  0.00    +0.000 A 
ATOM     14  C   UNL     1      11.284  11.628  18.921  0.00  0.00    +0.000 A 
ATOM     15  C   UNL     1      10.581  11.352  20.070  0.00  0.00    +0.000 A 
ATOM     16  O   UNL     1       9.375  10.803  19.771  0.00  0.00    +0.000 OA
ENDBRANCH  11  12
ENDBRANCH  10  11
ENDBRANCH   8  10
ENDBRANCH   1   7
BRANCH   3  17
ATOM     17  C   UNL     1       2.002   5.227  17.867  0.00  0.00    +0.000 C 
BRANCH  17  18
ATOM     18  C   UNL     1       1.804   4.343  19.076  0.00  0.00    +0.000 A 
ATOM     19  C   UNL     1       1.240   3.064  18.952  0.00  0.00    +0.000 A 
ATOM     20  C   UNL     1       1.125   2.227  20.064  0.00  0.00    +0.000 A 
ATOM     21  C   UNL     1       1.574   2.657  21.312  0.00  0.00    +0.000 A 
ATOM     22  C   UNL     1       2.125   3.928  21.452  0.00  0.00    +0.000 A 
ATOM     23  C   UNL     1       2.237   4.769  20.341  0.00  0.00    +0.000 A 
ENDBRANCH  17  18
ENDBRANCH   3  17
TORSDOF 6
ENDMDL
MODEL 3
REMARK VINA RESULT:      -7.4      1.809      7.524
REMARK  Name = 
REMARK  6 active torsions:
REMARK  status: ('A' for Active; 'I' for Inactive)
REMARK    1  A    between atoms: C_2  and  C_11
REMARK    2  A    between atoms: N_3  and  C_4
REMARK    3  A    between atoms: C_4  and  C_5
REMARK    4  A    between atoms: C_5  and  C_6
REMARK    5  A    between atoms: C_13  and  C_14
REMARK    6  A    between atoms: C_14  and  C_15
REMARK                            x       y       z     vdW  Elec       q    Type
REMARK                         _______ _______ _______ _____ _____    ______ ____
ROOT
ATOM      1  C   UNL     1       6.079   4.761  15.855  0.00  0.00    +0.000 A 
ATOM      2  C   UNL     1       5.949   4.321  14.558  0.00  0.00    +0.000 A 
ATOM      3  C   UNL     1       7.067   4.853  13.877  0.00  0.00    +0.000 A 
ATOM      4  N   UNL     1       7.842   5.561  14.715  0.00  0.00    +0.000 NA
ATOM      5  O   UNL     1       7.223   5.494  15.954  0.00  0.00    +0.000 OA
ENDROOT
BRANCH   1   7
ATOM      6  O   UNL     1       4.062   4.996  17.021  0.00  0.00    +0.000 OA
ATOM      7  C   UNL     1       5.220   4.580  17.000  0.00  0.00    +0.000 C 
ATOM      8  N   UNL     1       5.778   3.941  18.093  0.00  0.00    +0.000 N 
ATOM      9  H   UNL     1       6.776   3.758  18.084  0.00  0.00    +0.000 HD
BRANCH   8  10
ATOM     10  C   UNL     1       5.024   3.867  19.336  0.00  0.00    +0.000 C 
BRANCH  10  11
ATOM     11  C   UNL     1       4.399   2.502  19.610  0.00  0.00    +0.000 C 
BRANCH  11  12
ATOM     12  C   UNL     1       2.923   2.557  19.437  0.00  0.00    +0.000 A 
ATOM     13  C   UNL     1       2.067   2.154  18.432  0.00  0.00    +0.000 A 
ATOM     14  C   UNL     1       0.763   2.517  18.847  0.00  0.00    +0.000 A 
ATOM     15  C   UNL     1       0.906   3.115  20.077  0.00  0.00    +0.000 A 
ATOM     16  O   UNL     1       2.214   3.143  20.443  0.00  0.00    +0.000 OA
ENDBRANCH  11  12
ENDBRANCH  10  11
ENDBRANCH   8  10
ENDBRANCH   1   7
BRANCH   3  17
ATOM     17  C   UNL     1       7.353   4.800  12.416  0.00  0.00    +0.000 C 
BRANCH  17  18
ATOM     18  C   UNL     1       6.744   3.532  11.865  0.00  0.00    +0.000 A 
ATOM     19  C   UNL     1       7.550   2.441  11.504  0.00  0.00    +0.000 A 
ATOM     20  C   UNL     1       6.974   1.247  11.062  0.00  0.00    +0.000 A 
ATOM     21  C   UNL     1       5.588   1.131  10.976  0.00  0.00    +0.000 A 
ATOM     22  C   UNL     1       4.777   2.209  11.320  0.00  0.00    +0.000 A 
ATOM     23  C   UNL     1       5.351   3.405  11.759  0.00  0.00    +0.000 A 
ENDBRANCH  17  18
ENDBRANCH   3  17
TORSDOF 6
ENDMDL
MODEL 4
REMARK VINA RESULT:      -7.3      1.850      7.494
REMARK  Name = 
REMARK  6 active torsions:
REMARK  status: ('A' for Active; 'I' for Inactive)
REMARK    1  A    between atoms: C_2  and  C_11
REMARK    2  A    between atoms: N_3  and  C_4
REMARK    3  A    between atoms: C_4  and  C_5
REMARK    4  A    between atoms: C_5  and  C_6
REMARK    5  A    between atoms: C_13  and  C_14
REMARK    6  A    between atoms: C_14  and  C_15
REMARK                            x       y       z     vdW  Elec       q    Type
REMARK                         _______ _______ _______ _____ _____    ______ ____
ROOT
ATOM      1  C   UNL     1       5.958   4.740  16.214  0.00  0.00    +0.000 A 
ATOM      2  C   UNL     1       5.667   4.496  14.891  0.00  0.00    +0.000 A 
ATOM      3  C   UNL     1       6.832   4.874  14.185  0.00  0.00    +0.000 A 
ATOM      4  N   UNL     1       7.782   5.305  15.030  0.00  0.00    +0.000 NA
ATOM      5  O   UNL     1       7.232   5.213  16.300  0.00  0.00    +0.000 OA
ENDROOT
BRANCH   1   7
ATOM      6  O   UNL     1       4.069   5.181  17.526  0.00  0.00    +0.000 OA
ATOM      7  C   UNL     1       5.145   4.596  17.396  0.00  0.00    +0.000 C 
ATOM      8  N   UNL     1       5.653   3.790  18.398  0.00  0.00    +0.000 N 
ATOM      9  H   UNL     1       6.608   3.458  18.308  0.00  0.00    +0.000 HD
BRANCH   8  10
ATOM     10  C   UNL     1       4.966   3.726  19.680  0.00  0.00    +0.000 C 
BRANCH  10  11
ATOM     11  C   UNL     1       4.265   2.398  19.951  0.00  0.00    +0.000 C 
BRANCH  11  12
ATOM     12  C   UNL     1       2.832   2.471  19.559  0.00  0.00    +0.000 A 
ATOM     13  C   UNL     1       2.142   2.136  18.412  0.00  0.00    +0.000 A 
ATOM     14  C   UNL     1       0.788   2.479  18.646  0.00  0.00    +0.000 A 
ATOM     15  C   UNL     1       0.740   2.998  19.918  0.00  0.00    +0.000 A 
ATOM     16  O   UNL     1       1.976   2.996  20.480  0.00  0.00    +0.000 OA
ENDBRANCH  11  12
ENDBRANCH  10  11
ENDBRANCH   8  10
ENDBRANCH   1   7
BRANCH   3  17
ATOM     17  C   UNL     1       7.020   4.943  12.708  0.00  0.00    +0.000 C 
BRANCH  17  18
ATOM     18  C   UNL     1       6.614   3.612  12.122  0.00  0.00    +0.000 A 
ATOM     19  C   UNL     1       5.261   3.283  11.943  0.00  0.00    +0.000 A 
ATOM     20  C   UNL     1       4.896   2.079  11.335  0.00  0.00    +0.000 A 
ATOM     21  C   UNL     1       5.878   1.191  10.899  0.00  0.00    +0.000 A 
ATOM     22  C   UNL     1       7.224   1.500  11.081  0.00  0.00    +0.000 A 
ATOM     23  C   UNL     1       7.591   2.701  11.691  0.00  0.00    +0.000 A 
ENDBRANCH  17  18
ENDBRANCH   3  17
TORSDOF 6
ENDMDL
MODEL 5
REMARK VINA RESULT:      -7.3      1.108      1.513
REMARK  Name = 
REMARK  6 active torsions:
REMARK  status: ('A' for Active; 'I' for Inactive)
REMARK    1  A    between atoms: C_2  and  C_11
REMARK    2  A    between atoms: N_3  and  C_4
REMARK    3  A    between atoms: C_4  and  C_5
REMARK    4  A    between atoms: C_5  and  C_6
REMARK    5  A    between atoms: C_13  and  C_14
REMARK    6  A    between atoms: C_14  and  C_15
REMARK                            x       y       z     vdW  Elec       q    Type
REMARK                         _______ _______ _______ _____ _____    ______ ____
ROOT
ATOM      1  C   UNL     1       5.256   5.172  16.449  0.00  0.00    +0.000 A 
ATOM      2  C   UNL     1       4.532   6.020  17.256  0.00  0.00    +0.000 A 
ATOM      3  C   UNL     1       3.412   5.263  17.670  0.00  0.00    +0.000 A 
ATOM      4  N   UNL     1       3.462   4.022  17.160  0.00  0.00    +0.000 NA
ATOM      5  O   UNL     1       4.622   3.968  16.402  0.00  0.00    +0.000 OA
ENDROOT
BRANCH   1   7
ATOM      6  O   UNL     1       7.323   6.205  16.065  0.00  0.00    +0.000 OA
ATOM      7  C   UNL     1       6.469   5.395  15.702  0.00  0.00    +0.000 C 
ATOM      8  N   UNL     1       6.612   4.673  14.530  0.00  0.00    +0.000 N 
ATOM      9  H   UNL     1       5.816   4.139  14.197  0.00  0.00    +0.000 HD
BRANCH   8  10
ATOM     10  C   UNL     1       7.731   4.963  13.646  0.00  0.00    +0.000 C 
BRANCH  10  11
ATOM     11  C   UNL     1       7.388   4.905  12.160  0.00  0.00    +0.000 C 
BRANCH  11  12
ATOM     12  C   UNL     1       6.864   3.561  11.795  0.00  0.00    +0.000 A 
ATOM     13  C   UNL     1       7.444   2.426  11.267  0.00  0.00    +0.000 A 
ATOM     14  C   UNL     1       6.402   1.479  11.114  0.00  0.00    +0.000 A 
ATOM     15  C   UNL     1       5.257   2.096  11.558  0.00  0.00    +0.000 A 
ATOM     16  O   UNL     1       5.528   3.360  11.974  0.00  0.00    +0.000 OA
ENDBRANCH  11  12
ENDBRANCH  10  11
ENDBRANCH   8  10
ENDBRANCH   1   7
BRANCH   3  17
ATOM     17  C   UNL     1       2.232   5.734  18.448  0.00  0.00    +0.000 C 
BRANCH  17  18
ATOM     18  C   UNL     1       1.909   4.688  19.488  0.00  0.00    +0.000 A 
ATOM     19  C   UNL     1       1.069   3.605  19.188  0.00  0.00    +0.000 A 
ATOM     20  C   UNL     1       0.832   2.604  20.134  0.00  0.00    +0.000 A 
ATOM     21  C   UNL     1       1.432   2.675  21.390  0.00  0.00    +0.000 A 
ATOM     22  C   UNL     1       2.258   3.750  21.706  0.00  0.00    +0.000 A 
ATOM     23  C   UNL     1       2.494   4.754  20.762  0.00  0.00    +0.000 A 
ENDBRANCH  17  18
ENDBRANCH   3  17
TORSDOF 6
ENDMDL
MODEL 6
REMARK VINA RESULT:      -7.3      4.712      6.837
REMARK  Name = 
REMARK  6 active torsions:
REMARK  status: ('A' for Active; 'I' for Inactive)
REMARK    1  A    between atoms: C_2  and  C_11
REMARK    2  A    between atoms: N_3  and  C_4
REMARK    3  A    between atoms: C_4  and  C_5
REMARK    4  A    between atoms: C_5  and  C_6
REMARK    5  A    between atoms: C_13  and  C_14
REMARK    6  A    between atoms: C_14  and  C_15
REMARK                            x       y       z     vdW  Elec       q    Type
REMARK                         _______ _______ _______ _____ _____    ______ ____
ROOT
ATOM      1  C   UNL     1       6.598   6.193  17.528  0.00  0.00    +0.000 A 
ATOM      2  C   UNL     1       5.953   5.014  17.820  0.00  0.00    +0.000 A 
ATOM      3  C   UNL     1       4.985   4.864  16.801  0.00  0.00    +0.000 A 
ATOM      4  N   UNL     1       5.050   5.883  15.930  0.00  0.00    +0.000 NA
ATOM      5  O   UNL     1       6.067   6.709  16.385  0.00  0.00    +0.000 OA
ENDROOT
BRANCH   1   7
ATOM      6  O   UNL     1       8.295   6.359  19.133  0.00  0.00    +0.000 OA
ATOM      7  C   UNL     1       7.646   6.891  18.232  0.00  0.00    +0.000 C 
ATOM      8  N   UNL     1       7.863   8.207  17.866  0.00  0.00    +0.000 N 
ATOM      9  H   UNL     1       7.202   8.643  17.232  0.00  0.00    +0.000 HD
BRANCH   8  10
ATOM     10  C   UNL     1       8.791   9.018  18.640  0.00  0.00    +0.000 C 
BRANCH  10  11
ATOM     11  C   UNL     1       8.829  10.488  18.234  0.00  0.00    +0.000 C 
BRANCH  11  12
ATOM     12  C   UNL     1      10.049  11.149  18.769  0.00  0.00    +0.000 A 
ATOM     13  C   UNL     1      10.468  11.490  20.039  0.00  0.00    +0.000 A 
ATOM     14  C   UNL     1      11.719  12.136  19.888  0.00  0.00    +0.000 A 
ATOM     15  C   UNL     1      11.983  12.146  18.540  0.00  0.00    +0.000 A 
ATOM     16  O   UNL     1      10.975  11.548  17.852  0.00  0.00    +0.000 OA
ENDBRANCH  11  12
ENDBRANCH  10  11
ENDBRANCH   8  10
ENDBRANCH   1   7
BRANCH   3  17
ATOM     17  C   UNL     1       3.918   3.828  16.704  0.00  0.00    +0.000 C 
BRANCH  17  18
ATOM     18  C   UNL     1       3.169   3.802  18.015  0.00  0.00    +0.000 A 
ATOM     19  C   UNL     1       2.428   4.913  18.447  0.00  0.00    +0.000 A 
ATOM     20  C   UNL     1       1.681   4.856  19.626  0.00  0.00    +0.000 A 
ATOM     21  C   UNL     1       1.667   3.688  20.387  0.00  0.00    +0.000 A 
ATOM     22  C   UNL     1       2.408   2.582  19.978  0.00  0.00    +0.000 A 
ATOM     23  C   UNL     1       3.158   2.639  18.800  0.00  0.00    +0.000 A 
ENDBRANCH  17  18
ENDBRANCH   3  17
TORSDOF 6
ENDMDL
MODEL 7
REMARK VINA RESULT:      -7.2      4.179      6.305
REMARK  Name = 
REMARK  6 active torsions:
REMARK  status: ('A' for Active; 'I' for Inactive)
REMARK    1  A    between atoms: C_2  and  C_11
REMARK    2  A    between atoms: N_3  and  C_4
REMARK    3  A    between atoms: C_4  and  C_5
REMARK    4  A    between atoms: C_5  and  C_6
REMARK    5  A    between atoms: C_13  and  C_14
REMARK    6  A    between atoms: C_14  and  C_15
REMARK                            x       y       z     vdW  Elec       q    Type
REMARK                         _______ _______ _______ _____ _____    ______ ____
ROOT
ATOM      1  C   UNL     1       5.560   5.992  17.042  0.00  0.00    +0.000 A 
ATOM      2  C   UNL     1       5.210   4.694  16.747  0.00  0.00    +0.000 A 
ATOM      3  C   UNL     1       3.894   4.548  17.242  0.00  0.00    +0.000 A 
ATOM      4  N   UNL     1       3.462   5.696  17.789  0.00  0.00    +0.000 NA
ATOM      5  O   UNL     1       4.506   6.599  17.655  0.00  0.00    +0.000 OA
ENDROOT
BRANCH   1   7
ATOM      6  O   UNL     1       7.692   6.257  16.110  0.00  0.00    +0.000 OA
ATOM      7  C   UNL     1       6.795   6.704  16.825  0.00  0.00    +0.000 C 
ATOM      8  N   UNL     1       6.938   7.906  17.494  0.00  0.00    +0.000 N 
ATOM      9  H   UNL     1       6.241   8.154  18.189  0.00  0.00    +0.000 HD
BRANCH   8  10
ATOM     10  C   UNL     1       8.217   8.599  17.450  0.00  0.00    +0.000 C 
BRANCH  10  11
ATOM     11  C   UNL     1       8.596   9.301  18.751  0.00  0.00    +0.000 C 
BRANCH  11  12
ATOM     12  C   UNL     1       9.199  10.632  18.473  0.00  0.00    +0.000 A 
ATOM     13  C   UNL     1       8.750  11.764  17.824  0.00  0.00    +0.000 A 
ATOM     14  C   UNL     1       9.815  12.696  17.861  0.00  0.00    +0.000 A 
ATOM     15  C   UNL     1      10.843  12.075  18.529  0.00  0.00    +0.000 A 
ATOM     16  O   UNL     1      10.478  10.821  18.905  0.00  0.00    +0.000 OA
ENDBRANCH  11  12
ENDBRANCH  10  11
ENDBRANCH   8  10
ENDBRANCH   1   7
BRANCH   3  17
ATOM     17  C   UNL     1       3.079   3.303  17.310  0.00  0.00    +0.000 C 
BRANCH  17  18
ATOM     18  C   UNL     1       2.580   3.146  18.726  0.00  0.00    +0.000 A 
ATOM     19  C   UNL     1       3.457   2.804  19.768  0.00  0.00    +0.000 A 
ATOM     20  C   UNL     1       3.000   2.729  21.087  0.00  0.00    +0.000 A 
ATOM     21  C   UNL     1       1.664   2.996  21.378  0.00  0.00    +0.000 A 
ATOM     22  C   UNL     1       0.780   3.325  20.353  0.00  0.00    +0.000 A 
ATOM     23  C   UNL     1       1.234   3.397  19.034  0.00  0.00    +0.000 A 
ENDBRANCH  17  18
ENDBRANCH   3  17
TORSDOF 6
ENDMDL
MODEL 8
REMARK VINA RESULT:      -7.2      4.380      6.647
REMARK  Name = 
REMARK  6 active torsions:
REMARK  status: ('A' for Active; 'I' for Inactive)
REMARK    1  A    between atoms: C_2  and  C_11
REMARK    2  A    between atoms: N_3  and  C_4
REMARK    3  A    between atoms: C_4  and  C_5
REMARK    4  A    between atoms: C_5  and  C_6
REMARK    5  A    between atoms: C_13  and  C_14
REMARK    6  A    between atoms: C_14  and  C_15
REMARK                            x       y       z     vdW  Elec       q    Type
REMARK                         _______ _______ _______ _____ _____    ______ ____
ROOT
ATOM      1  C   UNL     1       6.293   5.569  17.791  0.00  0.00    +0.000 A 
ATOM      2  C   UNL     1       5.650   4.421  18.192  0.00  0.00    +0.000 A 
ATOM      3  C   UNL     1       4.641   4.210  17.225  0.00  0.00    +0.000 A 
ATOM      4  N   UNL     1       4.679   5.164  16.281  0.00  0.00    +0.000 NA
ATOM      5  O   UNL     1       5.720   6.009  16.635  0.00  0.00    +0.000 OA
ENDROOT
BRANCH   1   7
ATOM      6  O   UNL     1       7.995   5.868  19.371  0.00  0.00    +0.000 OA
ATOM      7  C   UNL     1       7.373   6.304  18.402  0.00  0.00    +0.000 C 
ATOM      8  N   UNL     1       7.655   7.546  17.863  0.00  0.00    +0.000 N 
ATOM      9  H   UNL     1       7.017   7.925  17.171  0.00  0.00    +0.000 HD
BRANCH   8  10
ATOM     10  C   UNL     1       8.621   8.408  18.527  0.00  0.00    +0.000 C 
BRANCH  10  11
ATOM     11  C   UNL     1       8.472   9.891  18.197  0.00  0.00    +0.000 C 
BRANCH  11  12
ATOM     12  C   UNL     1       9.512  10.692  18.895  0.00  0.00    +0.000 A 
ATOM     13  C   UNL     1       9.708  11.056  20.212  0.00  0.00    +0.000 A 
ATOM     14  C   UNL     1      10.872  11.861  20.236  0.00  0.00    +0.000 A 
ATOM     15  C   UNL     1      11.312  11.935  18.935  0.00  0.00    +0.000 A 
ATOM     16  O   UNL     1      10.493  11.227  18.114  0.00  0.00    +0.000 OA
ENDBRANCH  11  12
ENDBRANCH  10  11
ENDBRANCH   8  10
ENDBRANCH   1   7
BRANCH   3  17
ATOM     17  C   UNL     1       3.562   3.181  17.244  0.00  0.00    +0.000 C 
BRANCH  17  18
ATOM     18  C   UNL     1       2.735   3.393  18.489  0.00  0.00    +0.000 A 
ATOM     19  C   UNL     1       2.458   2.329  19.362  0.00  0.00    +0.000 A 
ATOM     20  C   UNL     1       1.752   2.547  20.548  0.00  0.00    +0.000 A 
ATOM     21  C   UNL     1       1.316   3.830  20.874  0.00  0.00    +0.000 A 
ATOM     22  C   UNL     1       1.573   4.893  20.012  0.00  0.00    +0.000 A 
ATOM     23  C   UNL     1       2.276   4.676  18.824  0.00  0.00    +0.000 A 
ENDBRANCH  17  18
ENDBRANCH   3  17
TORSDOF 6
ENDMDL
MODEL 9
REMARK VINA RESULT:      -7.2      1.478      7.421
REMARK  Name = 
REMARK  6 active torsions:
REMARK  status: ('A' for Active; 'I' for Inactive)
REMARK    1  A    between atoms: C_2  and  C_11
REMARK    2  A    between atoms: N_3  and  C_4
REMARK    3  A    between atoms: C_4  and  C_5
REMARK    4  A    between atoms: C_5  and  C_6
REMARK    5  A    between atoms: C_13  and  C_14
REMARK    6  A    between atoms: C_14  and  C_15
REMARK                            x       y       z     vdW  Elec       q    Type
REMARK                         _______ _______ _______ _____ _____    ______ ____
ROOT
ATOM      1  C   UNL     1       6.116   5.007  15.890  0.00  0.00    +0.000 A 
ATOM      2  C   UNL     1       5.891   4.569  14.605  0.00  0.00    +0.000 A 
ATOM      3  C   UNL     1       7.042   4.951  13.880  0.00  0.00    +0.000 A 
ATOM      4  N   UNL     1       7.925   5.569  14.681  0.00  0.00    +0.000 NA
ATOM      5  O   UNL     1       7.344   5.595  15.940  0.00  0.00    +0.000 OA
ENDROOT
BRANCH   1   7
ATOM      6  O   UNL     1       5.206   3.937  17.763  0.00  0.00    +0.000 OA
ATOM      7  C   UNL     1       5.280   4.947  17.063  0.00  0.00    +0.000 C 
ATOM      8  N   UNL     1       4.535   6.078  17.345  0.00  0.00    +0.000 N 
ATOM      9  H   UNL     1       4.512   6.822  16.656  0.00  0.00    +0.000 HD
BRANCH   8  10
ATOM     10  C   UNL     1       3.551   6.033  18.418  0.00  0.00    +0.000 C 
BRANCH  10  11
ATOM     11  C   UNL     1       2.166   5.567  17.980  0.00  0.00    +0.000 C 
BRANCH  11  12
ATOM     12  C   UNL     1       1.785   4.316  18.688  0.00  0.00    +0.000 A 
ATOM     13  C   UNL     1       1.982   3.852  19.973  0.00  0.00    +0.000 A 
ATOM     14  C   UNL     1       1.408   2.560  20.025  0.00  0.00    +0.000 A 
ATOM     15  C   UNL     1       0.896   2.319  18.772  0.00  0.00    +0.000 A 
ATOM     16  O   UNL     1       1.120   3.380  17.954  0.00  0.00    +0.000 OA
ENDBRANCH  11  12
ENDBRANCH  10  11
ENDBRANCH   8  10
ENDBRANCH   1   7
BRANCH   3  17
ATOM     17  C   UNL     1       7.271   4.844  12.412  0.00  0.00    +0.000 C 
BRANCH  17  18
ATOM     18  C   UNL     1       6.704   3.525  11.944  0.00  0.00    +0.000 A 
ATOM     19  C   UNL     1       5.318   3.332  11.836  0.00  0.00    +0.000 A 
ATOM     20  C   UNL     1       4.803   2.133  11.336  0.00  0.00    +0.000 A 
ATOM     21  C   UNL     1       5.667   1.114  10.938  0.00  0.00    +0.000 A 
ATOM     22  C   UNL     1       7.044   1.287  11.051  0.00  0.00    +0.000 A 
ATOM     23  C   UNL     1       7.561   2.484  11.554  0.00  0.00    +0.000 A 
ENDBRANCH  17  18
ENDBRANCH   3  17
TORSDOF 6
ENDMDL
