MODEL 1
REMARK VINA RESULT:      -6.4      0.000      0.000
REMARK  Name = 
REMARK  6 active torsions:
REMARK  status: ('A' for Active; 'I' for Inactive)
REMARK    1  A    between atoms: C_1  and  O_2
REMARK    2  A    between atoms: O_2  and  C_3
REMARK    3  A    between atoms: C_8  and  C_9
REMARK    4  A    between atoms: C_12  and  S_13
REMARK    5  A    between atoms: S_13  and  C_14
REMARK    6  A    between atoms: N_15  and  C_16
REMARK                            x       y       z     vdW  Elec       q    Type
REMARK                         _______ _______ _______ _____ _____    ______ ____
ROOT
ATOM      1  C   UNL     1       6.334   4.481  17.440  0.00  0.00    +0.000 A 
ATOM      2  C   UNL     1       7.325   4.917  16.544  0.00  0.00    +0.000 A 
ATOM      3  C   UNL     1       7.104   4.904  15.164  0.00  0.00    +0.000 A 
ATOM      4  C   UNL     1       5.896   4.448  14.663  0.00  0.00    +0.000 A 
ATOM      5  C   UNL     1       4.898   4.028  15.544  0.00  0.00    +0.000 A 
ATOM      6  C   UNL     1       5.085   4.055  16.942  0.00  0.00    +0.000 A 
ENDROOT
BRANCH   6   7
ATOM      7  C   UNL     1       3.953   3.570  17.761  0.00  0.00    +0.000 A 
ATOM      8  N   UNL     1       3.507   2.319  17.726  0.00  0.00    +0.000 NA
ATOM      9  N   UNL     1       2.438   2.193  18.573  0.00  0.00    +0.000 NA
ATOM     10  C   UNL     1       2.223   3.369  19.108  0.00  0.00    +0.000 A 
ATOM     11  N   UNL     1       3.113   4.282  18.605  0.00  0.00    +0.000 N 
ATOM     12  C   UNL     1       3.108   5.700  18.855  0.00  0.00    +0.000 C 
BRANCH  10  13
ATOM     13  S   UNL     1       0.998   3.750  20.273  0.00  0.00    +0.000 S 
ATOM     14  C   UNL     1       1.508   2.723  21.671  0.00  0.00    +0.000 C 
ENDBRANCH  10  13
ENDBRANCH   6   7
BRANCH   1  16
ATOM     15  C   UNL     1       7.145   5.545  19.434  0.00  0.00    +0.000 C 
ATOM     16  O   UNL     1       6.526   4.434  18.795  0.00  0.00    +0.000 OA
ENDBRANCH   1  16
TORSDOF 3
ENDMDL
MODEL 2
REMARK VINA RESULT:      -6.4      0.824      1.572
REMARK  Name = 
REMARK  6 active torsions:
REMARK  status: ('A' for Active; 'I' for Inactive)
REMARK    1  A    between atoms: C_1  and  O_2
REMARK    2  A    between atoms: O_2  and  C_3
REMARK    3  A    between atoms: C_8  and  C_9
REMARK    4  A    between atoms: C_12  and  S_13
REMARK    5  A    between atoms: S_13  and  C_14
REMARK    6  A    between atoms: N_15  and  C_16
REMARK                            x       y       z     vdW  Elec       q    Type
REMARK                         _______ _______ _______ _____ _____    ______ ____
ROOT
ATOM      1  C   UNL     1       6.346   4.644  17.517  0.00  0.00    +0.000 A 
ATOM      2  C   UNL     1       7.373   4.654  16.558  0.00  0.00    +0.000 A 
ATOM      3  C   UNL     1       7.084   4.587  15.193  0.00  0.00    +0.000 A 
ATOM      4  C   UNL     1       5.768   4.501  14.770  0.00  0.00    +0.000 A 
ATOM      5  C   UNL     1       4.738   4.507  15.712  0.00  0.00    +0.000 A 
ATOM      6  C   UNL     1       5.000   4.599  17.095  0.00  0.00    +0.000 A 
ENDROOT
BRANCH   6   7
ATOM      7  C   UNL     1       3.820   4.582  17.986  0.00  0.00    +0.000 A 
ATOM      8  N   UNL     1       3.310   5.672  18.547  0.00  0.00    +0.000 NA
ATOM      9  N   UNL     1       2.244   5.324  19.333  0.00  0.00    +0.000 NA
ATOM     10  C   UNL     1       2.117   4.022  19.265  0.00  0.00    +0.000 A 
ATOM     11  N   UNL     1       3.103   3.497  18.469  0.00  0.00    +0.000 N 
ATOM     12  C   UNL     1       3.369   2.097  18.258  0.00  0.00    +0.000 C 
BRANCH  10  13
ATOM     13  S   UNL     1       0.902   3.073  20.057  0.00  0.00    +0.000 S 
ATOM     14  C   UNL     1       1.686   2.760  21.655  0.00  0.00    +0.000 C 
ENDBRANCH  10  13
ENDBRANCH   6   7
BRANCH   1  16
ATOM     15  C   UNL     1       7.461   5.656  19.388  0.00  0.00    +0.000 C 
ATOM     16  O   UNL     1       6.588   4.661  18.865  0.00  0.00    +0.000 OA
ENDBRANCH   1  16
TORSDOF 3
ENDMDL
MODEL 3
REMARK VINA RESULT:      -6.0      3.239      5.559
REMARK  Name = 
REMARK  6 active torsions:
REMARK  status: ('A' for Active; 'I' for Inactive)
REMARK    1  A    between atoms: C_1  and  O_2
REMARK    2  A    between atoms: O_2  and  C_3
REMARK    3  A    between atoms: C_8  and  C_9
REMARK    4  A    between atoms: C_12  and  S_13
REMARK    5  A    between atoms: S_13  and  C_14
REMARK    6  A    between atoms: N_15  and  C_16
REMARK                            x       y       z     vdW  Elec       q    Type
REMARK                         _______ _______ _______ _____ _____    ______ ____
ROOT
ATOM      1  C   UNL     1       2.590   3.298  18.721  0.00  0.00    +0.000 A 
ATOM      2  C   UNL     1       1.295   3.006  19.182  0.00  0.00    +0.000 A 
ATOM      3  C   UNL     1       0.695   3.775  20.182  0.00  0.00    +0.000 A 
ATOM      4  C   UNL     1       1.383   4.841  20.738  0.00  0.00    +0.000 A 
ATOM      5  C   UNL     1       2.664   5.152  20.278  0.00  0.00    +0.000 A 
ATOM      6  C   UNL     1       3.283   4.406  19.252  0.00  0.00    +0.000 A 
ENDROOT
BRANCH   6   7
ATOM      7  C   UNL     1       4.646   4.833  18.867  0.00  0.00    +0.000 A 
ATOM      8  N   UNL     1       5.751   4.290  19.365  0.00  0.00    +0.000 NA
ATOM      9  N   UNL     1       6.846   4.917  18.833  0.00  0.00    +0.000 NA
ATOM     10  C   UNL     1       6.408   5.852  18.028  0.00  0.00    +0.000 A 
ATOM     11  N   UNL     1       5.037   5.876  18.040  0.00  0.00    +0.000 N 
ATOM     12  C   UNL     1       4.198   6.846  17.384  0.00  0.00    +0.000 C 
BRANCH  10  13
ATOM     13  S   UNL     1       7.387   6.923  17.081  0.00  0.00    +0.000 S 
ATOM     14  C   UNL     1       8.207   7.886  18.372  0.00  0.00    +0.000 C 
ENDBRANCH  10  13
ENDBRANCH   6   7
BRANCH   1  16
ATOM     15  C   UNL     1       3.763   1.279  18.162  0.00  0.00    +0.000 C 
ATOM     16  O   UNL     1       3.231   2.541  17.778  0.00  0.00    +0.000 OA
ENDBRANCH   1  16
TORSDOF 3
ENDMDL
MODEL 4
REMARK VINA RESULT:      -6.0      3.172      5.309
REMARK  Name = 
REMARK  6 active torsions:
REMARK  status: ('A' for Active; 'I' for Inactive)
REMARK    1  A    between atoms: C_1  and  O_2
REMARK    2  A    between atoms: O_2  and  C_3
REMARK    3  A    between atoms: C_8  and  C_9
REMARK    4  A    between atoms: C_12  and  S_13
REMARK    5  A    between atoms: S_13  and  C_14
REMARK    6  A    between atoms: N_15  and  C_16
REMARK                            x       y       z     vdW  Elec       q    Type
REMARK                         _______ _______ _______ _____ _____    ______ ____
ROOT
ATOM      1  C   UNL     1       2.240   4.337  19.951  0.00  0.00    +0.000 A 
ATOM      2  C   UNL     1       1.003   3.687  20.100  0.00  0.00    +0.000 A 
ATOM      3  C   UNL     1       0.675   2.574  19.322  0.00  0.00    +0.000 A 
ATOM      4  C   UNL     1       1.575   2.101  18.381  0.00  0.00    +0.000 A 
ATOM      5  C   UNL     1       2.814   2.728  18.235  0.00  0.00    +0.000 A 
ATOM      6  C   UNL     1       3.180   3.838  19.026  0.00  0.00    +0.000 A 
ENDROOT
BRANCH   6   7
ATOM      7  C   UNL     1       4.516   4.415  18.761  0.00  0.00    +0.000 A 
ATOM      8  N   UNL     1       5.633   3.962  19.319  0.00  0.00    +0.000 NA
ATOM      9  N   UNL     1       6.693   4.719  18.896  0.00  0.00    +0.000 NA
ATOM     10  C   UNL     1       6.219   5.642  18.096  0.00  0.00    +0.000 A 
ATOM     11  N   UNL     1       4.855   5.529  18.007  0.00  0.00    +0.000 N 
ATOM     12  C   UNL     1       3.970   6.440  17.329  0.00  0.00    +0.000 C 
BRANCH  10  13
ATOM     13  S   UNL     1       7.148   6.848  17.268  0.00  0.00    +0.000 S 
ATOM     14  C   UNL     1       8.232   7.430  18.593  0.00  0.00    +0.000 C 
ENDBRANCH  10  13
ENDBRANCH   6   7
BRANCH   1  16
ATOM     15  C   UNL     1       1.878   6.667  20.403  0.00  0.00    +0.000 C 
ATOM     16  O   UNL     1       2.581   5.457  20.661  0.00  0.00    +0.000 OA
ENDBRANCH   1  16
TORSDOF 3
ENDMDL
MODEL 5
REMARK VINA RESULT:      -5.9      1.466      2.681
REMARK  Name = 
REMARK  6 active torsions:
REMARK  status: ('A' for Active; 'I' for Inactive)
REMARK    1  A    between atoms: C_1  and  O_2
REMARK    2  A    between atoms: O_2  and  C_3
REMARK    3  A    between atoms: C_8  and  C_9
REMARK    4  A    between atoms: C_12  and  S_13
REMARK    5  A    between atoms: S_13  and  C_14
REMARK    6  A    between atoms: N_15  and  C_16
REMARK                            x       y       z     vdW  Elec       q    Type
REMARK                         _______ _______ _______ _____ _____    ______ ____
ROOT
ATOM      1  C   UNL     1       5.931   6.150  17.264  0.00  0.00    +0.000 A 
ATOM      2  C   UNL     1       7.097   6.935  17.276  0.00  0.00    +0.000 A 
ATOM      3  C   UNL     1       7.997   6.872  18.342  0.00  0.00    +0.000 A 
ATOM      4  C   UNL     1       7.742   6.030  19.411  0.00  0.00    +0.000 A 
ATOM      5  C   UNL     1       6.596   5.232  19.404  0.00  0.00    +0.000 A 
ATOM      6  C   UNL     1       5.683   5.258  18.328  0.00  0.00    +0.000 A 
ENDROOT
BRANCH   6   7
ATOM      7  C   UNL     1       4.504   4.374  18.451  0.00  0.00    +0.000 A 
ATOM      8  N   UNL     1       4.403   3.198  17.841  0.00  0.00    +0.000 NA
ATOM      9  N   UNL     1       3.189   2.637  18.131  0.00  0.00    +0.000 NA
ATOM     10  C   UNL     1       2.543   3.478  18.901  0.00  0.00    +0.000 A 
ATOM     11  N   UNL     1       3.301   4.603  19.101  0.00  0.00    +0.000 N 
ATOM     12  C   UNL     1       2.879   5.800  19.784  0.00  0.00    +0.000 C 
BRANCH  10  13
ATOM     13  S   UNL     1       0.965   3.238  19.575  0.00  0.00    +0.000 S 
ATOM     14  C   UNL     1       1.374   2.766  21.271  0.00  0.00    +0.000 C 
ENDBRANCH  10  13
ENDBRANCH   6   7
BRANCH   1  16
ATOM     15  C   UNL     1       5.288   5.580  15.021  0.00  0.00    +0.000 C 
ATOM     16  O   UNL     1       5.001   6.216  16.261  0.00  0.00    +0.000 OA
ENDBRANCH   1  16
TORSDOF 3
ENDMDL
MODEL 6
REMARK VINA RESULT:      -5.9      1.481      1.959
REMARK  Name = 
REMARK  6 active torsions:
REMARK  status: ('A' for Active; 'I' for Inactive)
REMARK    1  A    between atoms: C_1  and  O_2
REMARK    2  A    between atoms: O_2  and  C_3
REMARK    3  A    between atoms: C_8  and  C_9
REMARK    4  A    between atoms: C_12  and  S_13
REMARK    5  A    between atoms: S_13  and  C_14
REMARK    6  A    between atoms: N_15  and  C_16
REMARK                            x       y       z     vdW  Elec       q    Type
REMARK                         _______ _______ _______ _____ _____    ______ ____
ROOT
ATOM      1  C   UNL     1       6.469   5.676  16.984  0.00  0.00    +0.000 A 
ATOM      2  C   UNL     1       7.339   5.476  15.899  0.00  0.00    +0.000 A 
ATOM      3  C   UNL     1       6.952   4.710  14.797  0.00  0.00    +0.000 A 
ATOM      4  C   UNL     1       5.696   4.128  14.769  0.00  0.00    +0.000 A 
ATOM      5  C   UNL     1       4.816   4.332  15.834  0.00  0.00    +0.000 A 
ATOM      6  C   UNL     1       5.172   5.123  16.947  0.00  0.00    +0.000 A 
ENDROOT
BRANCH   6   7
ATOM      7  C   UNL     1       4.153   5.248  18.011  0.00  0.00    +0.000 A 
ATOM      8  N   UNL     1       3.369   6.311  18.153  0.00  0.00    +0.000 NA
ATOM      9  N   UNL     1       2.556   6.136  19.240  0.00  0.00    +0.000 NA
ATOM     10  C   UNL     1       2.856   4.976  19.770  0.00  0.00    +0.000 A 
ATOM     11  N   UNL     1       3.880   4.392  19.068  0.00  0.00    +0.000 N 
ATOM     12  C   UNL     1       4.567   3.177  19.421  0.00  0.00    +0.000 C 
BRANCH  10  13
ATOM     13  S   UNL     1       2.100   4.261  21.155  0.00  0.00    +0.000 S 
ATOM     14  C   UNL     1       0.966   3.091  20.374  0.00  0.00    +0.000 C 
ENDBRANCH  10  13
ENDBRANCH   6   7
BRANCH   1  16
ATOM     15  C   UNL     1       7.695   5.768  19.047  0.00  0.00    +0.000 C 
ATOM     16  O   UNL     1       6.826   6.381  18.102  0.00  0.00    +0.000 OA
ENDBRANCH   1  16
TORSDOF 3
ENDMDL
MODEL 7
REMARK VINA RESULT:      -5.9      1.654      2.777
REMARK  Name = 
REMARK  6 active torsions:
REMARK  status: ('A' for Active; 'I' for Inactive)
REMARK    1  A    between atoms: C_1  and  O_2
REMARK    2  A    between atoms: O_2  and  C_3
REMARK    3  A    between atoms: C_8  and  C_9
REMARK    4  A    between atoms: C_12  and  S_13
REMARK    5  A    between atoms: S_13  and  C_14
REMARK    6  A    between atoms: N_15  and  C_16
REMARK                            x       y       z     vdW  Elec       q    Type
REMARK                         _______ _______ _______ _____ _____    ______ ____
ROOT
ATOM      1  C   UNL     1       5.843   5.480  17.257  0.00  0.00    +0.000 A 
ATOM      2  C   UNL     1       6.841   6.351  16.788  0.00  0.00    +0.000 A 
ATOM      3  C   UNL     1       7.838   6.831  17.640  0.00  0.00    +0.000 A 
ATOM      4  C   UNL     1       7.846   6.453  18.973  0.00  0.00    +0.000 A 
ATOM      5  C   UNL     1       6.870   5.575  19.448  0.00  0.00    +0.000 A 
ATOM      6  C   UNL     1       5.867   5.056  18.603  0.00  0.00    +0.000 A 
ENDROOT
BRANCH   6   7
ATOM      7  C   UNL     1       4.887   4.147  19.235  0.00  0.00    +0.000 A 
ATOM      8  N   UNL     1       5.149   2.878  19.529  0.00  0.00    +0.000 NA
ATOM      9  N   UNL     1       4.036   2.299  20.078  0.00  0.00    +0.000 NA
ATOM     10  C   UNL     1       3.093   3.208  20.102  0.00  0.00    +0.000 A 
ATOM     11  N   UNL     1       3.555   4.374  19.547  0.00  0.00    +0.000 N 
ATOM     12  C   UNL     1       2.774   5.555  19.280  0.00  0.00    +0.000 C 
BRANCH  10  13
ATOM     13  S   UNL     1       1.490   2.999  20.724  0.00  0.00    +0.000 S 
ATOM     14  C   UNL     1       0.590   2.527  19.229  0.00  0.00    +0.000 C 
ENDBRANCH  10  13
ENDBRANCH   6   7
BRANCH   1  16
ATOM     15  C   UNL     1       5.147   4.365  15.248  0.00  0.00    +0.000 C 
ATOM     16  O   UNL     1       4.823   5.024  16.467  0.00  0.00    +0.000 OA
ENDBRANCH   1  16
TORSDOF 3
ENDMDL
MODEL 8
REMARK VINA RESULT:      -5.9      2.603      5.395
REMARK  Name = 
REMARK  6 active torsions:
REMARK  status: ('A' for Active; 'I' for Inactive)
REMARK    1  A    between atoms: C_1  and  O_2
REMARK    2  A    between atoms: O_2  and  C_3
REMARK    3  A    between atoms: C_8  and  C_9
REMARK    4  A    between atoms: C_12  and  S_13
REMARK    5  A    between atoms: S_13  and  C_14
REMARK    6  A    between atoms: N_15  and  C_16
REMARK                            x       y       z     vdW  Elec       q    Type
REMARK                         _______ _______ _______ _____ _____    ______ ____
ROOT
ATOM      1  C   UNL     1       3.591   2.697  20.423  0.00  0.00    +0.000 A 
ATOM      2  C   UNL     1       2.703   2.433  21.480  0.00  0.00    +0.000 A 
ATOM      3  C   UNL     1       1.437   3.022  21.521  0.00  0.00    +0.000 A 
ATOM      4  C   UNL     1       1.046   3.887  20.513  0.00  0.00    +0.000 A 
ATOM      5  C   UNL     1       1.912   4.145  19.449  0.00  0.00    +0.000 A 
ATOM      6  C   UNL     1       3.187   3.544  19.370  0.00  0.00    +0.000 A 
ENDROOT
BRANCH   6   7
ATOM      7  C   UNL     1       4.010   3.912  18.198  0.00  0.00    +0.000 A 
ATOM      8  N   UNL     1       3.766   3.479  16.966  0.00  0.00    +0.000 NA
ATOM      9  N   UNL     1       4.717   3.972  16.114  0.00  0.00    +0.000 NA
ATOM     10  C   UNL     1       5.549   4.689  16.828  0.00  0.00    +0.000 A 
ATOM     11  N   UNL     1       5.182   4.653  18.149  0.00  0.00    +0.000 N 
ATOM     12  C   UNL     1       5.921   5.212  19.251  0.00  0.00    +0.000 C 
BRANCH  10  13
ATOM     13  S   UNL     1       6.923   5.557  16.227  0.00  0.00    +0.000 S 
ATOM     14  C   UNL     1       7.071   4.872  14.561  0.00  0.00    +0.000 C 
ENDBRANCH  10  13
ENDBRANCH   6   7
BRANCH   1  16
ATOM     15  C   UNL     1       5.159   1.034  21.161  0.00  0.00    +0.000 C 
ATOM     16  O   UNL     1       4.857   2.177  20.369  0.00  0.00    +0.000 OA
ENDBRANCH   1  16
TORSDOF 3
ENDMDL
MODEL 9
REMARK VINA RESULT:      -5.7      2.715      5.510
REMARK  Name = 
REMARK  6 active torsions:
REMARK  status: ('A' for Active; 'I' for Inactive)
REMARK    1  A    between atoms: C_1  and  O_2
REMARK    2  A    between atoms: O_2  and  C_3
REMARK    3  A    between atoms: C_8  and  C_9
REMARK    4  A    between atoms: C_12  and  S_13
REMARK    5  A    between atoms: S_13  and  C_14
REMARK    6  A    between atoms: N_15  and  C_16
REMARK                            x       y       z     vdW  Elec       q    Type
REMARK                         _______ _______ _______ _____ _____    ______ ____
ROOT
ATOM      1  C   UNL     1       2.404   4.944  19.772  0.00  0.00    +0.000 A 
ATOM      2  C   UNL     1       1.681   4.683  20.949  0.00  0.00    +0.000 A 
ATOM      3  C   UNL     1       1.872   3.498  21.663  0.00  0.00    +0.000 A 
ATOM      4  C   UNL     1       2.781   2.557  21.208  0.00  0.00    +0.000 A 
ATOM      5  C   UNL     1       3.517   2.812  20.050  0.00  0.00    +0.000 A 
ATOM      6  C   UNL     1       3.363   4.011  19.323  0.00  0.00    +0.000 A 
ENDROOT
BRANCH   6   7
ATOM      7  C   UNL     1       4.193   4.149  18.107  0.00  0.00    +0.000 A 
ATOM      8  N   UNL     1       3.857   3.639  16.928  0.00  0.00    +0.000 NA
ATOM      9  N   UNL     1       4.840   3.913  16.016  0.00  0.00    +0.000 NA
ATOM     10  C   UNL     1       5.782   4.573  16.642  0.00  0.00    +0.000 A 
ATOM     11  N   UNL     1       5.452   4.714  17.966  0.00  0.00    +0.000 N 
ATOM     12  C   UNL     1       6.293   5.268  18.996  0.00  0.00    +0.000 C 
BRANCH  10  13
ATOM     13  S   UNL     1       7.242   5.182  15.937  0.00  0.00    +0.000 S 
ATOM     14  C   UNL     1       6.977   4.798  14.190  0.00  0.00    +0.000 C 
ENDBRANCH  10  13
ENDBRANCH   6   7
BRANCH   1  16
ATOM     15  C   UNL     1       2.256   7.338  19.663  0.00  0.00    +0.000 C 
ATOM     16  O   UNL     1       2.214   6.070  19.017  0.00  0.00    +0.000 OA
ENDBRANCH   1  16
TORSDOF 3
ENDMDL
