MODEL 1
REMARK VINA RESULT:      -6.6      0.000      0.000
REMARK  Name = 
REMARK  4 active torsions:
REMARK  status: ('A' for Active; 'I' for Inactive)
REMARK    1  A    between atoms: C_1  and  N_2
REMARK    2  A    between atoms: N_2  and  C_3
REMARK    3  A    between atoms: C_3  and  C_4
REMARK    4  A    between atoms: C_4  and  O_5
REMARK                            x       y       z     vdW  Elec       q    Type
REMARK                         _______ _______ _______ _____ _____    ______ ____
ROOT
ATOM      1  C   UNL     1       1.711   4.813  18.710  0.00  0.00    +0.000 C 
ATOM      2  N   UNL     1       2.636   3.619  18.949  0.00  0.00    +0.000 N 
ATOM      3  C   UNL     1       3.953   4.162  19.645  0.00  0.00    +0.000 C 
ATOM      4  C   UNL     1       4.849   4.366  18.495  0.00  0.00    +0.000 A 
ATOM      5  S   UNL     1       6.260   5.232  18.321  0.00  0.00    +0.000 S 
ATOM      6  C   UNL     1       6.336   4.835  16.625  0.00  0.00    +0.000 A 
ATOM      7  C   UNL     1       7.319   5.241  15.703  0.00  0.00    +0.000 A 
ATOM      8  C   UNL     1       7.209   4.825  14.373  0.00  0.00    +0.000 A 
ATOM      9  C   UNL     1       6.148   4.023  13.972  0.00  0.00    +0.000 A 
ATOM     10 CL   UNL     1       6.029   3.517  12.332  0.00  0.00    +0.000 Cl
ATOM     11  C   UNL     1       5.166   3.619  14.878  0.00  0.00    +0.000 A 
ATOM     12  C   UNL     1       5.251   4.026  16.232  0.00  0.00    +0.000 A 
ATOM     13  C   UNL     1       4.405   3.781  17.344  0.00  0.00    +0.000 A 
ATOM     14  C   UNL     1       3.127   3.066  17.553  0.00  0.00    +0.000 C 
ENDROOT
BRANCH   2  15
ATOM     15  C   UNL     1       1.982   2.531  19.805  0.00  0.00    +0.000 C 
BRANCH  15  16
ATOM     16  C   UNL     1       1.222   3.073  21.029  0.00  0.00    +0.000 C 
BRANCH  16  17
ATOM     17  O   UNL     1       1.901   2.769  22.241  0.00  0.00    +0.000 OA
ATOM     18  H   UNL     1       2.416   1.950  22.118  0.00  0.00    +0.000 HD
ENDBRANCH  16  17
ENDBRANCH  15  16
ENDBRANCH   2  15
TORSDOF 3
ENDMDL
MODEL 2
REMARK VINA RESULT:      -6.4      4.176      6.453
REMARK  Name = 
REMARK  4 active torsions:
REMARK  status: ('A' for Active; 'I' for Inactive)
REMARK    1  A    between atoms: C_1  and  N_2
REMARK    2  A    between atoms: N_2  and  C_3
REMARK    3  A    between atoms: C_3  and  C_4
REMARK    4  A    between atoms: C_4  and  O_5
REMARK                            x       y       z     vdW  Elec       q    Type
REMARK                         _______ _______ _______ _____ _____    ______ ____
ROOT
ATOM      1  C   UNL     1       7.184   4.610  16.658  0.00  0.00    +0.000 C 
ATOM      2  N   UNL     1       5.870   4.547  15.878  0.00  0.00    +0.000 N 
ATOM      3  C   UNL     1       5.268   6.012  15.827  0.00  0.00    +0.000 C 
ATOM      4  C   UNL     1       4.349   6.010  16.978  0.00  0.00    +0.000 A 
ATOM      5  S   UNL     1       3.615   7.244  17.821  0.00  0.00    +0.000 S 
ATOM      6  C   UNL     1       2.905   6.106  18.935  0.00  0.00    +0.000 A 
ATOM      7  C   UNL     1       2.081   6.402  20.038  0.00  0.00    +0.000 A 
ATOM      8  C   UNL     1       1.607   5.350  20.827  0.00  0.00    +0.000 A 
ATOM      9  C   UNL     1       1.942   4.036  20.523  0.00  0.00    +0.000 A 
ATOM     10 CL   UNL     1       1.348   2.753  21.503  0.00  0.00    +0.000 Cl
ATOM     11  C   UNL     1       2.761   3.733  19.436  0.00  0.00    +0.000 A 
ATOM     12  C   UNL     1       3.258   4.779  18.618  0.00  0.00    +0.000 A 
ATOM     13  C   UNL     1       4.104   4.763  17.480  0.00  0.00    +0.000 A 
ATOM     14  C   UNL     1       4.819   3.717  16.718  0.00  0.00    +0.000 C 
ENDROOT
BRANCH   2  15
ATOM     15  C   UNL     1       6.051   3.988  14.464  0.00  0.00    +0.000 C 
BRANCH  15  16
ATOM     16  C   UNL     1       7.090   4.750  13.621  0.00  0.00    +0.000 C 
BRANCH  16  17
ATOM     17  O   UNL     1       7.145   4.255  12.289  0.00  0.00    +0.000 OA
ATOM     18  H   UNL     1       8.020   4.461  11.912  0.00  0.00    +0.000 HD
ENDBRANCH  16  17
ENDBRANCH  15  16
ENDBRANCH   2  15
TORSDOF 3
ENDMDL
MODEL 3
REMARK VINA RESULT:      -6.4      1.559      1.812
REMARK  Name = 
REMARK  4 active torsions:
REMARK  status: ('A' for Active; 'I' for Inactive)
REMARK    1  A    between atoms: C_1  and  N_2
REMARK    2  A    between atoms: N_2  and  C_3
REMARK    3  A    between atoms: C_3  and  C_4
REMARK    4  A    between atoms: C_4  and  O_5
REMARK                            x       y       z     vdW  Elec       q    Type
REMARK                         _______ _______ _______ _____ _____    ______ ____
ROOT
ATOM      1  C   UNL     1       2.776   5.675  18.290  0.00  0.00    +0.000 C 
ATOM      2  N   UNL     1       3.790   4.571  18.594  0.00  0.00    +0.000 N 
ATOM      3  C   UNL     1       5.206   5.257  18.787  0.00  0.00    +0.000 C 
ATOM      4  C   UNL     1       5.791   5.142  17.441  0.00  0.00    +0.000 A 
ATOM      5  S   UNL     1       7.076   5.912  16.714  0.00  0.00    +0.000 S 
ATOM      6  C   UNL     1       6.764   5.087  15.210  0.00  0.00    +0.000 A 
ATOM      7  C   UNL     1       7.479   5.225  14.005  0.00  0.00    +0.000 A 
ATOM      8  C   UNL     1       7.075   4.479  12.893  0.00  0.00    +0.000 A 
ATOM      9  C   UNL     1       5.990   3.616  12.981  0.00  0.00    +0.000 A 
ATOM     10 CL   UNL     1       5.509   2.703  11.604  0.00  0.00    +0.000 Cl
ATOM     11  C   UNL     1       5.274   3.476  14.170  0.00  0.00    +0.000 A 
ATOM     12  C   UNL     1       5.659   4.219  15.313  0.00  0.00    +0.000 A 
ATOM     13  C   UNL     1       5.115   4.284  16.621  0.00  0.00    +0.000 A 
ATOM     14  C   UNL     1       3.961   3.667  17.310  0.00  0.00    +0.000 C 
ENDROOT
BRANCH   2  15
ATOM     15  C   UNL     1       3.413   3.752  19.832  0.00  0.00    +0.000 C 
BRANCH  15  16
ATOM     16  C   UNL     1       3.767   2.258  19.723  0.00  0.00    +0.000 C 
BRANCH  16  17
ATOM     17  O   UNL     1       5.094   2.003  20.168  0.00  0.00    +0.000 OA
ATOM     18  H   UNL     1       5.676   2.720  19.854  0.00  0.00    +0.000 HD
ENDBRANCH  16  17
ENDBRANCH  15  16
ENDBRANCH   2  15
TORSDOF 3
ENDMDL
MODEL 4
REMARK VINA RESULT:      -6.4      4.778      6.720
REMARK  Name = 
REMARK  4 active torsions:
REMARK  status: ('A' for Active; 'I' for Inactive)
REMARK    1  A    between atoms: C_1  and  N_2
REMARK    2  A    between atoms: N_2  and  C_3
REMARK    3  A    between atoms: C_3  and  C_4
REMARK    4  A    between atoms: C_4  and  O_5
REMARK                            x       y       z     vdW  Elec       q    Type
REMARK                         _______ _______ _______ _____ _____    ______ ____
ROOT
ATOM      1  C   UNL     1       5.451   5.292  19.344  0.00  0.00    +0.000 C 
ATOM      2  N   UNL     1       4.052   4.835  18.925  0.00  0.00    +0.000 N 
ATOM      3  C   UNL     1       3.639   5.663  17.639  0.00  0.00    +0.000 C 
ATOM      4  C   UNL     1       2.877   6.781  18.222  0.00  0.00    +0.000 A 
ATOM      5  S   UNL     1       2.414   8.257  17.605  0.00  0.00    +0.000 S 
ATOM      6  C   UNL     1       1.710   8.712  19.133  0.00  0.00    +0.000 A 
ATOM      7  C   UNL     1       1.073   9.929  19.443  0.00  0.00    +0.000 A 
ATOM      8  C   UNL     1       0.570  10.118  20.734  0.00  0.00    +0.000 A 
ATOM      9  C   UNL     1       0.696   9.119  21.691  0.00  0.00    +0.000 A 
ATOM     10 CL   UNL     1       0.070   9.367  23.274  0.00  0.00    +0.000 Cl
ATOM     11  C   UNL     1       1.330   7.912  21.395  0.00  0.00    +0.000 A 
ATOM     12  C   UNL     1       1.849   7.692  20.095  0.00  0.00    +0.000 A 
ATOM     13  C   UNL     1       2.540   6.589  19.532  0.00  0.00    +0.000 A 
ATOM     14  C   UNL     1       3.016   5.282  20.032  0.00  0.00    +0.000 C 
ENDROOT
BRANCH   2  15
ATOM     15  C   UNL     1       3.985   3.331  18.644  0.00  0.00    +0.000 C 
BRANCH  15  16
ATOM     16  C   UNL     1       3.948   2.461  19.913  0.00  0.00    +0.000 C 
BRANCH  16  17
ATOM     17  O   UNL     1       5.187   1.798  20.128  0.00  0.00    +0.000 OA
ATOM     18  H   UNL     1       5.897   2.465  20.182  0.00  0.00    +0.000 HD
ENDBRANCH  16  17
ENDBRANCH  15  16
ENDBRANCH   2  15
TORSDOF 3
ENDMDL
MODEL 5
REMARK VINA RESULT:      -6.3      1.041      1.072
REMARK  Name = 
REMARK  4 active torsions:
REMARK  status: ('A' for Active; 'I' for Inactive)
REMARK    1  A    between atoms: C_1  and  N_2
REMARK    2  A    between atoms: N_2  and  C_3
REMARK    3  A    between atoms: C_3  and  C_4
REMARK    4  A    between atoms: C_4  and  O_5
REMARK                            x       y       z     vdW  Elec       q    Type
REMARK                         _______ _______ _______ _____ _____    ______ ____
ROOT
ATOM      1  C   UNL     1       2.697   5.579  18.853  0.00  0.00    +0.000 C 
ATOM      2  N   UNL     1       3.585   4.350  19.053  0.00  0.00    +0.000 N 
ATOM      3  C   UNL     1       5.046   4.860  19.391  0.00  0.00    +0.000 C 
ATOM      4  C   UNL     1       5.690   4.857  18.066  0.00  0.00    +0.000 A 
ATOM      5  S   UNL     1       7.078   5.580  17.499  0.00  0.00    +0.000 S 
ATOM      6  C   UNL     1       6.771   4.984  15.889  0.00  0.00    +0.000 A 
ATOM      7  C   UNL     1       7.558   5.200  14.742  0.00  0.00    +0.000 A 
ATOM      8  C   UNL     1       7.147   4.644  13.527  0.00  0.00    +0.000 A 
ATOM      9  C   UNL     1       5.982   3.889  13.458  0.00  0.00    +0.000 A 
ATOM     10 CL   UNL     1       5.491   3.209  11.955  0.00  0.00    +0.000 Cl
ATOM     11  C   UNL     1       5.193   3.674  14.588  0.00  0.00    +0.000 A 
ATOM     12  C   UNL     1       5.585   4.226  15.833  0.00  0.00    +0.000 A 
ATOM     13  C   UNL     1       4.980   4.181  17.115  0.00  0.00    +0.000 A 
ATOM     14  C   UNL     1       3.738   3.601  17.670  0.00  0.00    +0.000 C 
ENDROOT
BRANCH   2  15
ATOM     15  C   UNL     1       3.067   3.424  20.157  0.00  0.00    +0.000 C 
BRANCH  15  16
ATOM     16  C   UNL     1       1.861   3.990  20.930  0.00  0.00    +0.000 C 
BRANCH  16  17
ATOM     17  O   UNL     1       0.699   3.193  20.738  0.00  0.00    +0.000 OA
ATOM     18  H   UNL     1       0.940   2.253  20.837  0.00  0.00    +0.000 HD
ENDBRANCH  16  17
ENDBRANCH  15  16
ENDBRANCH   2  15
TORSDOF 3
ENDMDL
MODEL 6
REMARK VINA RESULT:      -6.1      4.819      6.807
REMARK  Name = 
REMARK  4 active torsions:
REMARK  status: ('A' for Active; 'I' for Inactive)
REMARK    1  A    between atoms: C_1  and  N_2
REMARK    2  A    between atoms: N_2  and  C_3
REMARK    3  A    between atoms: C_3  and  C_4
REMARK    4  A    between atoms: C_4  and  O_5
REMARK                            x       y       z     vdW  Elec       q    Type
REMARK                         _______ _______ _______ _____ _____    ______ ____
ROOT
ATOM      1  C   UNL     1       5.293   5.260  19.413  0.00  0.00    +0.000 C 
ATOM      2  N   UNL     1       3.889   4.844  18.970  0.00  0.00    +0.000 N 
ATOM      3  C   UNL     1       3.514   5.700  17.690  0.00  0.00    +0.000 C 
ATOM      4  C   UNL     1       2.773   6.828  18.278  0.00  0.00    +0.000 A 
ATOM      5  S   UNL     1       2.356   8.323  17.676  0.00  0.00    +0.000 S 
ATOM      6  C   UNL     1       1.642   8.776  19.201  0.00  0.00    +0.000 A 
ATOM      7  C   UNL     1       1.032  10.004  19.519  0.00  0.00    +0.000 A 
ATOM      8  C   UNL     1       0.517  10.188  20.806  0.00  0.00    +0.000 A 
ATOM      9  C   UNL     1       0.605   9.173  21.751  0.00  0.00    +0.000 A 
ATOM     10 CL   UNL     1      -0.035   9.415  23.329  0.00  0.00    +0.000 Cl
ATOM     11  C   UNL     1       1.212   7.955  21.446  0.00  0.00    +0.000 A 
ATOM     12  C   UNL     1       1.743   7.740  20.151  0.00  0.00    +0.000 A 
ATOM     13  C   UNL     1       2.413   6.627  19.581  0.00  0.00    +0.000 A 
ATOM     14  C   UNL     1       2.850   5.302  20.069  0.00  0.00    +0.000 C 
ENDROOT
BRANCH   2  15
ATOM     15  C   UNL     1       3.788   3.346  18.667  0.00  0.00    +0.000 C 
BRANCH  15  16
ATOM     16  C   UNL     1       2.652   2.983  17.692  0.00  0.00    +0.000 C 
BRANCH  16  17
ATOM     17  O   UNL     1       1.845   1.929  18.202  0.00  0.00    +0.000 OA
ATOM     18  H   UNL     1       1.707   1.268  17.498  0.00  0.00    +0.000 HD
ENDBRANCH  16  17
ENDBRANCH  15  16
ENDBRANCH   2  15
TORSDOF 3
ENDMDL
MODEL 7
REMARK VINA RESULT:      -5.8      5.107      7.108
REMARK  Name = 
REMARK  4 active torsions:
REMARK  status: ('A' for Active; 'I' for Inactive)
REMARK    1  A    between atoms: C_1  and  N_2
REMARK    2  A    between atoms: N_2  and  C_3
REMARK    3  A    between atoms: C_3  and  C_4
REMARK    4  A    between atoms: C_4  and  O_5
REMARK                            x       y       z     vdW  Elec       q    Type
REMARK                         _______ _______ _______ _____ _____    ______ ____
ROOT
ATOM      1  C   UNL     1       5.315   5.602  19.359  0.00  0.00    +0.000 C 
ATOM      2  N   UNL     1       3.919   5.145  18.930  0.00  0.00    +0.000 N 
ATOM      3  C   UNL     1       3.493   6.011  17.674  0.00  0.00    +0.000 C 
ATOM      4  C   UNL     1       2.722   7.101  18.297  0.00  0.00    +0.000 A 
ATOM      5  S   UNL     1       2.242   8.591  17.732  0.00  0.00    +0.000 S 
ATOM      6  C   UNL     1       1.538   8.988  19.277  0.00  0.00    +0.000 A 
ATOM      7  C   UNL     1       0.890  10.187  19.629  0.00  0.00    +0.000 A 
ATOM      8  C   UNL     1       0.390  10.327  20.927  0.00  0.00    +0.000 A 
ATOM      9  C   UNL     1       0.530   9.298  21.850  0.00  0.00    +0.000 A 
ATOM     10 CL   UNL     1      -0.093   9.486  23.443  0.00  0.00    +0.000 Cl
ATOM     11  C   UNL     1       1.175   8.108  21.511  0.00  0.00    +0.000 A 
ATOM     12  C   UNL     1       1.692   7.938  20.203  0.00  0.00    +0.000 A 
ATOM     13  C   UNL     1       2.391   6.862  19.600  0.00  0.00    +0.000 A 
ATOM     14  C   UNL     1       2.883   5.543  20.055  0.00  0.00    +0.000 C 
ENDROOT
BRANCH   2  15
ATOM     15  C   UNL     1       3.867   3.651  18.599  0.00  0.00    +0.000 C 
BRANCH  15  16
ATOM     16  C   UNL     1       3.981   3.342  17.095  0.00  0.00    +0.000 C 
BRANCH  16  17
ATOM     17  O   UNL     1       5.339   3.240  16.685  0.00  0.00    +0.000 OA
ATOM     18  H   UNL     1       5.716   4.136  16.615  0.00  0.00    +0.000 HD
ENDBRANCH  16  17
ENDBRANCH  15  16
ENDBRANCH   2  15
TORSDOF 3
ENDMDL
MODEL 8
REMARK VINA RESULT:      -5.7      1.745      2.038
REMARK  Name = 
REMARK  4 active torsions:
REMARK  status: ('A' for Active; 'I' for Inactive)
REMARK    1  A    between atoms: C_1  and  N_2
REMARK    2  A    between atoms: N_2  and  C_3
REMARK    3  A    between atoms: C_3  and  C_4
REMARK    4  A    between atoms: C_4  and  O_5
REMARK                            x       y       z     vdW  Elec       q    Type
REMARK                         _______ _______ _______ _____ _____    ______ ____
ROOT
ATOM      1  C   UNL     1       0.280   3.139  18.603  0.00  0.00    +0.000 C 
ATOM      2  N   UNL     1       1.527   3.218  19.485  0.00  0.00    +0.000 N 
ATOM      3  C   UNL     1       1.726   4.734  19.903  0.00  0.00    +0.000 C 
ATOM      4  C   UNL     1       2.668   5.217  18.879  0.00  0.00    +0.000 A 
ATOM      5  S   UNL     1       3.098   6.750  18.394  0.00  0.00    +0.000 S 
ATOM      6  C   UNL     1       4.131   6.103  17.148  0.00  0.00    +0.000 A 
ATOM      7  C   UNL     1       4.902   6.833  16.223  0.00  0.00    +0.000 A 
ATOM      8  C   UNL     1       5.670   6.136  15.286  0.00  0.00    +0.000 A 
ATOM      9  C   UNL     1       5.672   4.746  15.272  0.00  0.00    +0.000 A 
ATOM     10 CL   UNL     1       6.625   3.903  14.114  0.00  0.00    +0.000 Cl
ATOM     11  C   UNL     1       4.908   4.015  16.181  0.00  0.00    +0.000 A 
ATOM     12  C   UNL     1       4.119   4.694  17.142  0.00  0.00    +0.000 A 
ATOM     13  C   UNL     1       3.252   4.215  18.157  0.00  0.00    +0.000 A 
ATOM     14  C   UNL     1       2.796   2.882  18.605  0.00  0.00    +0.000 C 
ENDROOT
BRANCH   2  15
ATOM     15  C   UNL     1       1.428   2.325  20.724  0.00  0.00    +0.000 C 
BRANCH  15  16
ATOM     16  C   UNL     1       2.303   2.793  21.902  0.00  0.00    +0.000 C 
BRANCH  16  17
ATOM     17  O   UNL     1       3.531   2.079  21.955  0.00  0.00    +0.000 OA
ATOM     18  H   UNL     1       4.248   2.700  22.182  0.00  0.00    +0.000 HD
ENDBRANCH  16  17
ENDBRANCH  15  16
ENDBRANCH   2  15
TORSDOF 3
ENDMDL
MODEL 9
REMARK VINA RESULT:      -5.5      4.103      6.148
REMARK  Name = 
REMARK  4 active torsions:
REMARK  status: ('A' for Active; 'I' for Inactive)
REMARK    1  A    between atoms: C_1  and  N_2
REMARK    2  A    between atoms: N_2  and  C_3
REMARK    3  A    between atoms: C_3  and  C_4
REMARK    4  A    between atoms: C_4  and  O_5
REMARK                            x       y       z     vdW  Elec       q    Type
REMARK                         _______ _______ _______ _____ _____    ______ ____
ROOT
ATOM      1  C   UNL     1       2.869   3.477  16.700  0.00  0.00    +0.000 C 
ATOM      2  N   UNL     1       4.045   4.144  17.415  0.00  0.00    +0.000 N 
ATOM      3  C   UNL     1       3.920   3.812  18.960  0.00  0.00    +0.000 C 
ATOM      4  C   UNL     1       3.203   4.992  19.473  0.00  0.00    +0.000 A 
ATOM      5  S   UNL     1       2.380   5.265  20.894  0.00  0.00    +0.000 S 
ATOM      6  C   UNL     1       1.919   6.859  20.359  0.00  0.00    +0.000 A 
ATOM      7  C   UNL     1       1.135   7.794  21.062  0.00  0.00    +0.000 A 
ATOM      8  C   UNL     1       0.862   9.029  20.466  0.00  0.00    +0.000 A 
ATOM      9  C   UNL     1       1.360   9.326  19.203  0.00  0.00    +0.000 A 
ATOM     10 CL   UNL     1       1.018  10.852  18.485  0.00  0.00    +0.000 Cl
ATOM     11  C   UNL     1       2.133   8.404  18.497  0.00  0.00    +0.000 A 
ATOM     12  C   UNL     1       2.426   7.144  19.076  0.00  0.00    +0.000 A 
ATOM     13  C   UNL     1       3.160   6.033  18.590  0.00  0.00    +0.000 A 
ATOM     14  C   UNL     1       3.870   5.712  17.333  0.00  0.00    +0.000 C 
ENDROOT
BRANCH   2  15
ATOM     15  C   UNL     1       5.401   3.684  16.872  0.00  0.00    +0.000 C 
BRANCH  15  16
ATOM     16  C   UNL     1       6.546   4.680  17.129  0.00  0.00    +0.000 C 
BRANCH  16  17
ATOM     17  O   UNL     1       7.383   4.249  18.194  0.00  0.00    +0.000 OA
ATOM     18  H   UNL     1       6.871   3.662  18.780  0.00  0.00    +0.000 HD
ENDBRANCH  16  17
ENDBRANCH  15  16
ENDBRANCH   2  15
TORSDOF 3
ENDMDL
