MODEL 1
REMARK VINA RESULT:      -7.3      0.000      0.000
REMARK  Name = 
REMARK  4 active torsions:
REMARK  status: ('A' for Active; 'I' for Inactive)
REMARK    1  A    between atoms: C_2  and  C_3
REMARK    2  A    between atoms: N_7  and  S_8
REMARK    3  A    between atoms: S_8  and  C_11
REMARK    4  A    between atoms: C_14  and  N_15
REMARK                            x       y       z     vdW  Elec       q    Type
REMARK                         _______ _______ _______ _____ _____    ______ ____
ROOT
ATOM      1  C   UNL     1       4.804   3.421  18.161  0.00  0.00    +0.000 C 
ATOM      2  C   UNL     1       3.955   2.399  17.401  0.00  0.00    +0.000 C 
ATOM      3  C   UNL     1       2.582   2.971  17.077  0.00  0.00    +0.000 C 
ATOM      4  C   UNL     1       1.825   3.407  18.325  0.00  0.00    +0.000 C 
ATOM      5  N   UNL     1       2.650   4.264  19.200  0.00  0.00    +0.000 NA
ATOM      6  C   UNL     1       4.053   3.840  19.441  0.00  0.00    +0.000 C 
ENDROOT
BRANCH   1   8
ATOM      7  O   UNL     1       4.470   5.053  16.412  0.00  0.00    +0.000 OA
ATOM      8  C   UNL     1       5.228   4.609  17.275  0.00  0.00    +0.000 C 
ATOM      9  N   UNL     1       6.499   5.160  17.466  0.00  0.00    +0.000 N 
ATOM     10  C   UNL     1       7.438   4.843  18.542  0.00  0.00    +0.000 C 
ATOM     11  C   UNL     1       7.815   6.088  19.339  0.00  0.00    +0.000 C 
ATOM     12  C   UNL     1       8.270   7.240  18.445  0.00  0.00    +0.000 C 
ATOM     13  C   UNL     1       7.280   7.492  17.309  0.00  0.00    +0.000 C 
ATOM     14  C   UNL     1       6.970   6.204  16.550  0.00  0.00    +0.000 C 
ENDBRANCH   1   8
BRANCH   5  15
ATOM     15  S   UNL     1       1.839   5.040  20.488  0.00  0.00    +0.000 S 
ATOM     16  O   UNL     1       0.454   4.613  20.488  0.00  0.00    +0.000 OA
ATOM     17  O   UNL     1       2.657   4.920  21.676  0.00  0.00    +0.000 OA
BRANCH  15  18
ATOM     18  C   UNL     1       1.823   6.787  20.059  0.00  0.00    +0.000 A 
ATOM     19  C   UNL     1       2.232   7.199  18.782  0.00  0.00    +0.000 A 
ATOM     20  C   UNL     1       2.040   8.529  18.376  0.00  0.00    +0.000 A 
ATOM     21  C   UNL     1       1.420   9.438  19.244  0.00  0.00    +0.000 A 
ATOM     22  C   UNL     1       1.001   9.029  20.518  0.00  0.00    +0.000 A 
ATOM     23  C   UNL     1       1.198   7.701  20.922  0.00  0.00    +0.000 A 
BRANCH  21  24
ATOM     24  N   UNL     1       1.178  10.823  18.807  0.00  0.00    +0.000 N 
ATOM     25  O   UNL     1       0.034  11.278  18.945  0.00  0.00    +0.000 OA
ATOM     26  O   UNL     1       2.131  11.448  18.317  0.00  0.00    +0.000 OA
ENDBRANCH  21  24
ENDBRANCH  15  18
ENDBRANCH   5  15
TORSDOF 4
ENDMDL
MODEL 2
REMARK VINA RESULT:      -6.9      3.149      7.025
REMARK  Name = 
REMARK  4 active torsions:
REMARK  status: ('A' for Active; 'I' for Inactive)
REMARK    1  A    between atoms: C_2  and  C_3
REMARK    2  A    between atoms: N_7  and  S_8
REMARK    3  A    between atoms: S_8  and  C_11
REMARK    4  A    between atoms: C_14  and  N_15
REMARK                            x       y       z     vdW  Elec       q    Type
REMARK                         _______ _______ _______ _____ _____    ______ ____
ROOT
ATOM      1  C   UNL     1       2.897   6.135  19.457  0.00  0.00    +0.000 C 
ATOM      2  C   UNL     1       2.340   7.510  19.082  0.00  0.00    +0.000 C 
ATOM      3  C   UNL     1       2.695   7.865  17.645  0.00  0.00    +0.000 C 
ATOM      4  C   UNL     1       4.198   7.861  17.401  0.00  0.00    +0.000 C 
ATOM      5  N   UNL     1       4.836   6.625  17.899  0.00  0.00    +0.000 NA
ATOM      6  C   UNL     1       4.424   6.139  19.240  0.00  0.00    +0.000 C 
ENDROOT
BRANCH   1   8
ATOM      7  O   UNL     1       1.364   5.224  17.828  0.00  0.00    +0.000 OA
ATOM      8  C   UNL     1       2.172   4.988  18.727  0.00  0.00    +0.000 C 
ATOM      9  N   UNL     1       2.443   3.673  19.122  0.00  0.00    +0.000 N 
ATOM     10  C   UNL     1       3.479   3.236  20.057  0.00  0.00    +0.000 C 
ATOM     11  C   UNL     1       4.430   2.235  19.408  0.00  0.00    +0.000 C 
ATOM     12  C   UNL     1       3.692   1.084  18.725  0.00  0.00    +0.000 C 
ATOM     13  C   UNL     1       2.587   1.597  17.802  0.00  0.00    +0.000 C 
ATOM     14  C   UNL     1       1.669   2.577  18.530  0.00  0.00    +0.000 C 
ENDBRANCH   1   8
BRANCH   5  15
ATOM     15  S   UNL     1       6.464   6.375  17.446  0.00  0.00    +0.000 S 
ATOM     16  O   UNL     1       7.017   7.631  16.983  0.00  0.00    +0.000 OA
ATOM     17  O   UNL     1       7.114   5.614  18.492  0.00  0.00    +0.000 OA
BRANCH  15  18
ATOM     18  C   UNL     1       6.399   5.298  16.006  0.00  0.00    +0.000 A 
ATOM     19  C   UNL     1       5.243   4.547  15.743  0.00  0.00    +0.000 A 
ATOM     20  C   UNL     1       5.111   3.861  14.527  0.00  0.00    +0.000 A 
ATOM     21  C   UNL     1       6.129   3.942  13.567  0.00  0.00    +0.000 A 
ATOM     22  C   UNL     1       7.283   4.699  13.821  0.00  0.00    +0.000 A 
ATOM     23  C   UNL     1       7.414   5.381  15.039  0.00  0.00    +0.000 A 
BRANCH  21  24
ATOM     24  N   UNL     1       5.976   3.258  12.273  0.00  0.00    +0.000 N 
ATOM     25  O   UNL     1       7.007   2.898  11.687  0.00  0.00    +0.000 OA
ATOM     26  O   UNL     1       4.826   3.091  11.840  0.00  0.00    +0.000 OA
ENDBRANCH  21  24
ENDBRANCH  15  18
ENDBRANCH   5  15
TORSDOF 4
ENDMDL
MODEL 3
REMARK VINA RESULT:      -6.9      3.579      7.540
REMARK  Name = 
REMARK  4 active torsions:
REMARK  status: ('A' for Active; 'I' for Inactive)
REMARK    1  A    between atoms: C_2  and  C_3
REMARK    2  A    between atoms: N_7  and  S_8
REMARK    3  A    between atoms: S_8  and  C_11
REMARK    4  A    between atoms: C_14  and  N_15
REMARK                            x       y       z     vdW  Elec       q    Type
REMARK                         _______ _______ _______ _____ _____    ______ ____
ROOT
ATOM      1  C   UNL     1       3.942   5.936  19.284  0.00  0.00    +0.000 C 
ATOM      2  C   UNL     1       3.446   7.318  18.853  0.00  0.00    +0.000 C 
ATOM      3  C   UNL     1       3.592   7.501  17.348  0.00  0.00    +0.000 C 
ATOM      4  C   UNL     1       5.030   7.327  16.879  0.00  0.00    +0.000 C 
ATOM      5  N   UNL     1       5.637   6.087  17.404  0.00  0.00    +0.000 NA
ATOM      6  C   UNL     1       5.409   5.771  18.838  0.00  0.00    +0.000 C 
ENDROOT
BRANCH   1   8
ATOM      7  O   UNL     1       3.082   4.386  17.644  0.00  0.00    +0.000 OA
ATOM      8  C   UNL     1       3.017   4.802  18.802  0.00  0.00    +0.000 C 
ATOM      9  N   UNL     1       2.093   4.269  19.706  0.00  0.00    +0.000 N 
ATOM     10  C   UNL     1       2.006   4.552  21.138  0.00  0.00    +0.000 C 
ATOM     11  C   UNL     1       2.127   3.278  21.968  0.00  0.00    +0.000 C 
ATOM     12  C   UNL     1       1.173   2.180  21.499  0.00  0.00    +0.000 C 
ATOM     13  C   UNL     1       1.268   1.963  19.989  0.00  0.00    +0.000 C 
ATOM     14  C   UNL     1       1.118   3.281  19.231  0.00  0.00    +0.000 C 
ENDBRANCH   1   8
BRANCH   5  15
ATOM     15  S   UNL     1       7.144   5.637  16.738  0.00  0.00    +0.000 S 
ATOM     16  O   UNL     1       7.814   6.829  16.259  0.00  0.00    +0.000 OA
ATOM     17  O   UNL     1       7.797   4.734  17.662  0.00  0.00    +0.000 OA
BRANCH  15  18
ATOM     18  C   UNL     1       6.749   4.665  15.277  0.00  0.00    +0.000 A 
ATOM     19  C   UNL     1       5.692   3.743  15.312  0.00  0.00    +0.000 A 
ATOM     20  C   UNL     1       5.255   3.128  14.129  0.00  0.00    +0.000 A 
ATOM     21  C   UNL     1       5.865   3.451  12.910  0.00  0.00    +0.000 A 
ATOM     22  C   UNL     1       6.916   4.379  12.867  0.00  0.00    +0.000 A 
ATOM     23  C   UNL     1       7.353   4.990  14.051  0.00  0.00    +0.000 A 
BRANCH  21  24
ATOM     24  N   UNL     1       5.382   2.839  11.661  0.00  0.00    +0.000 N 
ATOM     25  O   UNL     1       4.392   3.348  11.116  0.00  0.00    +0.000 OA
ATOM     26  O   UNL     1       5.987   1.844  11.234  0.00  0.00    +0.000 OA
ENDBRANCH  21  24
ENDBRANCH  15  18
ENDBRANCH   5  15
TORSDOF 4
ENDMDL
MODEL 4
REMARK VINA RESULT:      -6.8      3.578      7.638
REMARK  Name = 
REMARK  4 active torsions:
REMARK  status: ('A' for Active; 'I' for Inactive)
REMARK    1  A    between atoms: C_2  and  C_3
REMARK    2  A    between atoms: N_7  and  S_8
REMARK    3  A    between atoms: S_8  and  C_11
REMARK    4  A    between atoms: C_14  and  N_15
REMARK                            x       y       z     vdW  Elec       q    Type
REMARK                         _______ _______ _______ _____ _____    ______ ____
ROOT
ATOM      1  C   UNL     1       3.983   5.939  19.266  0.00  0.00    +0.000 C 
ATOM      2  C   UNL     1       3.475   7.333  18.890  0.00  0.00    +0.000 C 
ATOM      3  C   UNL     1       3.548   7.547  17.384  0.00  0.00    +0.000 C 
ATOM      4  C   UNL     1       4.960   7.376  16.841  0.00  0.00    +0.000 C 
ATOM      5  N   UNL     1       5.584   6.120  17.309  0.00  0.00    +0.000 NA
ATOM      6  C   UNL     1       5.425   5.775  18.744  0.00  0.00    +0.000 C 
ENDROOT
BRANCH   1   8
ATOM      7  O   UNL     1       3.062   4.400  17.650  0.00  0.00    +0.000 OA
ATOM      8  C   UNL     1       3.028   4.821  18.807  0.00  0.00    +0.000 C 
ATOM      9  N   UNL     1       2.112   4.308  19.731  0.00  0.00    +0.000 N 
ATOM     10  C   UNL     1       2.058   4.598  21.163  0.00  0.00    +0.000 C 
ATOM     11  C   UNL     1       2.172   3.324  21.995  0.00  0.00    +0.000 C 
ATOM     12  C   UNL     1       1.188   2.243  21.549  0.00  0.00    +0.000 C 
ATOM     13  C   UNL     1       1.250   2.020  20.038  0.00  0.00    +0.000 C 
ATOM     14  C   UNL     1       1.109   3.337  19.278  0.00  0.00    +0.000 C 
ENDBRANCH   1   8
BRANCH   5  15
ATOM     15  S   UNL     1       7.053   5.677  16.559  0.00  0.00    +0.000 S 
ATOM     16  O   UNL     1       7.782   6.881  16.215  0.00  0.00    +0.000 OA
ATOM     17  O   UNL     1       7.668   4.632  17.350  0.00  0.00    +0.000 OA
BRANCH  15  18
ATOM     18  C   UNL     1       6.582   4.916  14.998  0.00  0.00    +0.000 A 
ATOM     19  C   UNL     1       7.486   4.896  13.926  0.00  0.00    +0.000 A 
ATOM     20  C   UNL     1       7.202   4.139  12.779  0.00  0.00    +0.000 A 
ATOM     21  C   UNL     1       6.020   3.388  12.716  0.00  0.00    +0.000 A 
ATOM     22  C   UNL     1       5.116   3.398  13.789  0.00  0.00    +0.000 A 
ATOM     23  C   UNL     1       5.401   4.158  14.932  0.00  0.00    +0.000 A 
BRANCH  21  24
ATOM     24  N   UNL     1       5.737   2.560  11.533  0.00  0.00    +0.000 N 
ATOM     25  O   UNL     1       6.653   1.850  11.095  0.00  0.00    +0.000 OA
ATOM     26  O   UNL     1       4.602   2.630  11.037  0.00  0.00    +0.000 OA
ENDBRANCH  21  24
ENDBRANCH  15  18
ENDBRANCH   5  15
TORSDOF 4
ENDMDL
MODEL 5
REMARK VINA RESULT:      -6.6      3.220      7.195
REMARK  Name = 
REMARK  4 active torsions:
REMARK  status: ('A' for Active; 'I' for Inactive)
REMARK    1  A    between atoms: C_2  and  C_3
REMARK    2  A    between atoms: N_7  and  S_8
REMARK    3  A    between atoms: S_8  and  C_11
REMARK    4  A    between atoms: C_14  and  N_15
REMARK                            x       y       z     vdW  Elec       q    Type
REMARK                         _______ _______ _______ _____ _____    ______ ____
ROOT
ATOM      1  C   UNL     1       3.121   6.128  19.352  0.00  0.00    +0.000 C 
ATOM      2  C   UNL     1       2.623   7.519  18.953  0.00  0.00    +0.000 C 
ATOM      3  C   UNL     1       2.907   7.796  17.484  0.00  0.00    +0.000 C 
ATOM      4  C   UNL     1       4.389   7.690  17.150  0.00  0.00    +0.000 C 
ATOM      5  N   UNL     1       4.984   6.438  17.660  0.00  0.00    +0.000 NA
ATOM      6  C   UNL     1       4.629   6.030  19.044  0.00  0.00    +0.000 C 
ENDROOT
BRANCH   1   8
ATOM      7  O   UNL     1       1.431   5.251  17.866  0.00  0.00    +0.000 OA
ATOM      8  C   UNL     1       2.285   4.999  18.717  0.00  0.00    +0.000 C 
ATOM      9  N   UNL     1       2.511   3.686  19.142  0.00  0.00    +0.000 N 
ATOM     10  C   UNL     1       3.583   3.222  20.021  0.00  0.00    +0.000 C 
ATOM     11  C   UNL     1       4.431   2.147  19.348  0.00  0.00    +0.000 C 
ATOM     12  C   UNL     1       3.586   1.017  18.760  0.00  0.00    +0.000 C 
ATOM     13  C   UNL     1       2.449   1.561  17.895  0.00  0.00    +0.000 C 
ATOM     14  C   UNL     1       1.639   2.616  18.645  0.00  0.00    +0.000 C 
ENDBRANCH   1   8
BRANCH   5  15
ATOM     15  S   UNL     1       6.563   6.071  17.121  0.00  0.00    +0.000 S 
ATOM     16  O   UNL     1       7.269   7.311  16.874  0.00  0.00    +0.000 OA
ATOM     17  O   UNL     1       7.115   5.057  17.994  0.00  0.00    +0.000 OA
BRANCH  15  18
ATOM     18  C   UNL     1       6.348   5.290  15.514  0.00  0.00    +0.000 A 
ATOM     19  C   UNL     1       7.373   5.359  14.559  0.00  0.00    +0.000 A 
ATOM     20  C   UNL     1       7.294   4.593  13.386  0.00  0.00    +0.000 A 
ATOM     21  C   UNL     1       6.198   3.745  13.180  0.00  0.00    +0.000 A 
ATOM     22  C   UNL     1       5.174   3.666  14.136  0.00  0.00    +0.000 A 
ATOM     23  C   UNL     1       5.254   4.435  15.306  0.00  0.00    +0.000 A 
BRANCH  21  24
ATOM     24  N   UNL     1       6.131   2.909  11.971  0.00  0.00    +0.000 N 
ATOM     25  O   UNL     1       7.201   2.531  11.472  0.00  0.00    +0.000 OA
ATOM     26  O   UNL     1       5.009   2.641  11.515  0.00  0.00    +0.000 OA
ENDBRANCH  21  24
ENDBRANCH  15  18
ENDBRANCH   5  15
TORSDOF 4
ENDMDL
MODEL 6
REMARK VINA RESULT:      -6.6      0.562      1.220
REMARK  Name = 
REMARK  4 active torsions:
REMARK  status: ('A' for Active; 'I' for Inactive)
REMARK    1  A    between atoms: C_2  and  C_3
REMARK    2  A    between atoms: N_7  and  S_8
REMARK    3  A    between atoms: S_8  and  C_11
REMARK    4  A    between atoms: C_14  and  N_15
REMARK                            x       y       z     vdW  Elec       q    Type
REMARK                         _______ _______ _______ _____ _____    ______ ____
ROOT
ATOM      1  C   UNL     1       4.849   3.055  18.331  0.00  0.00    +0.000 C 
ATOM      2  C   UNL     1       4.069   1.901  17.697  0.00  0.00    +0.000 C 
ATOM      3  C   UNL     1       2.652   2.333  17.345  0.00  0.00    +0.000 C 
ATOM      4  C   UNL     1       1.882   2.839  18.557  0.00  0.00    +0.000 C 
ATOM      5  N   UNL     1       2.652   3.841  19.323  0.00  0.00    +0.000 NA
ATOM      6  C   UNL     1       4.086   3.548  19.577  0.00  0.00    +0.000 C 
ENDROOT
BRANCH   1   8
ATOM      7  O   UNL     1       4.371   4.467  16.431  0.00  0.00    +0.000 OA
ATOM      8  C   UNL     1       5.170   4.173  17.320  0.00  0.00    +0.000 C 
ATOM      9  N   UNL     1       6.398   4.834  17.429  0.00  0.00    +0.000 N 
ATOM     10  C   UNL     1       7.371   4.701  18.513  0.00  0.00    +0.000 C 
ATOM     11  C   UNL     1       7.661   6.047  19.171  0.00  0.00    +0.000 C 
ATOM     12  C   UNL     1       8.017   7.131  18.155  0.00  0.00    +0.000 C 
ATOM     13  C   UNL     1       6.997   7.189  17.018  0.00  0.00    +0.000 C 
ATOM     14  C   UNL     1       6.777   5.809  16.401  0.00  0.00    +0.000 C 
ENDBRANCH   1   8
BRANCH   5  15
ATOM     15  S   UNL     1       1.801   4.684  20.542  0.00  0.00    +0.000 S 
ATOM     16  O   UNL     1       0.460   4.143  20.632  0.00  0.00    +0.000 OA
ATOM     17  O   UNL     1       2.651   4.771  21.710  0.00  0.00    +0.000 OA
BRANCH  15  18
ATOM     18  C   UNL     1       1.621   6.364  19.923  0.00  0.00    +0.000 A 
ATOM     19  C   UNL     1       1.172   7.382  20.776  0.00  0.00    +0.000 A 
ATOM     20  C   UNL     1       1.215   8.721  20.359  0.00  0.00    +0.000 A 
ATOM     21  C   UNL     1       1.726   9.039  19.094  0.00  0.00    +0.000 A 
ATOM     22  C   UNL     1       2.185   8.026  18.240  0.00  0.00    +0.000 A 
ATOM     23  C   UNL     1       2.137   6.689  18.658  0.00  0.00    +0.000 A 
BRANCH  21  24
ATOM     24  N   UNL     1       1.811  10.446  18.668  0.00  0.00    +0.000 N 
ATOM     25  O   UNL     1       2.439  10.695  17.629  0.00  0.00    +0.000 OA
ATOM     26  O   UNL     1       1.261  11.299  19.380  0.00  0.00    +0.000 OA
ENDBRANCH  21  24
ENDBRANCH  15  18
ENDBRANCH   5  15
TORSDOF 4
ENDMDL
MODEL 7
REMARK VINA RESULT:      -6.6      3.360      7.339
REMARK  Name = 
REMARK  4 active torsions:
REMARK  status: ('A' for Active; 'I' for Inactive)
REMARK    1  A    between atoms: C_2  and  C_3
REMARK    2  A    between atoms: N_7  and  S_8
REMARK    3  A    between atoms: S_8  and  C_11
REMARK    4  A    between atoms: C_14  and  N_15
REMARK                            x       y       z     vdW  Elec       q    Type
REMARK                         _______ _______ _______ _____ _____    ______ ____
ROOT
ATOM      1  C   UNL     1       3.028   6.426  19.356  0.00  0.00    +0.000 C 
ATOM      2  C   UNL     1       2.683   7.718  18.610  0.00  0.00    +0.000 C 
ATOM      3  C   UNL     1       3.131   7.641  17.158  0.00  0.00    +0.000 C 
ATOM      4  C   UNL     1       4.625   7.382  17.024  0.00  0.00    +0.000 C 
ATOM      5  N   UNL     1       5.066   6.245  17.859  0.00  0.00    +0.000 NA
ATOM      6  C   UNL     1       4.547   6.179  19.248  0.00  0.00    +0.000 C 
ENDROOT
BRANCH   1   8
ATOM      7  O   UNL     1       1.950   5.044  17.694  0.00  0.00    +0.000 OA
ATOM      8  C   UNL     1       2.173   5.232  18.891  0.00  0.00    +0.000 C 
ATOM      9  N   UNL     1       1.644   4.376  19.862  0.00  0.00    +0.000 N 
ATOM     10  C   UNL     1       1.945   4.383  21.293  0.00  0.00    +0.000 C 
ATOM     11  C   UNL     1       2.487   3.034  21.756  0.00  0.00    +0.000 C 
ATOM     12  C   UNL     1       1.603   1.866  21.320  0.00  0.00    +0.000 C 
ATOM     13  C   UNL     1       1.276   1.939  19.828  0.00  0.00    +0.000 C 
ATOM     14  C   UNL     1       0.723   3.311  19.450  0.00  0.00    +0.000 C 
ENDBRANCH   1   8
BRANCH   5  15
ATOM     15  S   UNL     1       6.657   5.681  17.594  0.00  0.00    +0.000 S 
ATOM     16  O   UNL     1       7.527   6.821  17.390  0.00  0.00    +0.000 OA
ATOM     17  O   UNL     1       6.956   4.683  18.599  0.00  0.00    +0.000 OA
BRANCH  15  18
ATOM     18  C   UNL     1       6.598   4.810  16.021  0.00  0.00    +0.000 A 
ATOM     19  C   UNL     1       5.644   3.803  15.811  0.00  0.00    +0.000 A 
ATOM     20  C   UNL     1       5.465   3.259  14.531  0.00  0.00    +0.000 A 
ATOM     21  C   UNL     1       6.229   3.737  13.458  0.00  0.00    +0.000 A 
ATOM     22  C   UNL     1       7.179   4.749  13.660  0.00  0.00    +0.000 A 
ATOM     23  C   UNL     1       7.358   5.289  14.941  0.00  0.00    +0.000 A 
BRANCH  21  24
ATOM     24  N   UNL     1       6.016   3.198  12.105  0.00  0.00    +0.000 N 
ATOM     25  O   UNL     1       6.971   2.634  11.553  0.00  0.00    +0.000 OA
ATOM     26  O   UNL     1       4.896   3.349  11.593  0.00  0.00    +0.000 OA
ENDBRANCH  21  24
ENDBRANCH  15  18
ENDBRANCH   5  15
TORSDOF 4
ENDMDL
MODEL 8
REMARK VINA RESULT:      -6.6      2.564      7.038
REMARK  Name = 
REMARK  4 active torsions:
REMARK  status: ('A' for Active; 'I' for Inactive)
REMARK    1  A    between atoms: C_2  and  C_3
REMARK    2  A    between atoms: N_7  and  S_8
REMARK    3  A    between atoms: S_8  and  C_11
REMARK    4  A    between atoms: C_14  and  N_15
REMARK                            x       y       z     vdW  Elec       q    Type
REMARK                         _______ _______ _______ _____ _____    ______ ____
ROOT
ATOM      1  C   UNL     1       2.378   7.333  18.515  0.00  0.00    +0.000 C 
ATOM      2  C   UNL     1       1.441   6.527  17.613  0.00  0.00    +0.000 C 
ATOM      3  C   UNL     1       1.458   5.053  17.992  0.00  0.00    +0.000 C 
ATOM      4  C   UNL     1       2.854   4.450  17.912  0.00  0.00    +0.000 C 
ATOM      5  N   UNL     1       3.854   5.274  18.623  0.00  0.00    +0.000 NA
ATOM      6  C   UNL     1       3.800   6.743  18.411  0.00  0.00    +0.000 C 
ENDROOT
BRANCH   1   8
ATOM      7  O   UNL     1       2.195   6.617  20.814  0.00  0.00    +0.000 OA
ATOM      8  C   UNL     1       1.857   7.438  19.961  0.00  0.00    +0.000 C 
ATOM      9  N   UNL     1       0.978   8.480  20.276  0.00  0.00    +0.000 N 
ATOM     10  C   UNL     1       0.611   9.605  19.417  0.00  0.00    +0.000 C 
ATOM     11  C   UNL     1       0.932  10.941  20.081  0.00  0.00    +0.000 C 
ATOM     12  C   UNL     1       0.371  11.041  21.499  0.00  0.00    +0.000 C 
ATOM     13  C   UNL     1       0.739   9.815  22.334  0.00  0.00    +0.000 C 
ATOM     14  C   UNL     1       0.370   8.522  21.610  0.00  0.00    +0.000 C 
ENDBRANCH   1   8
BRANCH   5  15
ATOM     15  S   UNL     1       5.397   4.575  18.842  0.00  0.00    +0.000 S 
ATOM     16  O   UNL     1       6.209   5.479  19.630  0.00  0.00    +0.000 OA
ATOM     17  O   UNL     1       5.217   3.194  19.238  0.00  0.00    +0.000 OA
BRANCH  15  18
ATOM     18  C   UNL     1       6.140   4.536  17.203  0.00  0.00    +0.000 A 
ATOM     19  C   UNL     1       5.648   3.654  16.231  0.00  0.00    +0.000 A 
ATOM     20  C   UNL     1       6.088   3.754  14.902  0.00  0.00    +0.000 A 
ATOM     21  C   UNL     1       7.007   4.751  14.547  0.00  0.00    +0.000 A 
ATOM     22  C   UNL     1       7.495   5.641  15.513  0.00  0.00    +0.000 A 
ATOM     23  C   UNL     1       7.057   5.537  16.841  0.00  0.00    +0.000 A 
BRANCH  21  24
ATOM     24  N   UNL     1       7.440   4.886  13.146  0.00  0.00    +0.000 N 
ATOM     25  O   UNL     1       8.239   5.793  12.876  0.00  0.00    +0.000 OA
ATOM     26  O   UNL     1       6.971   4.091  12.317  0.00  0.00    +0.000 OA
ENDBRANCH  21  24
ENDBRANCH  15  18
ENDBRANCH   5  15
TORSDOF 4
ENDMDL
MODEL 9
REMARK VINA RESULT:      -6.4      4.307      9.277
REMARK  Name = 
REMARK  4 active torsions:
REMARK  status: ('A' for Active; 'I' for Inactive)
REMARK    1  A    between atoms: C_2  and  C_3
REMARK    2  A    between atoms: N_7  and  S_8
REMARK    3  A    between atoms: S_8  and  C_11
REMARK    4  A    between atoms: C_14  and  N_15
REMARK                            x       y       z     vdW  Elec       q    Type
REMARK                         _______ _______ _______ _____ _____    ______ ____
ROOT
ATOM      1  C   UNL     1      -1.873  12.488  20.288  0.00  0.00    +0.000 C 
ATOM      2  C   UNL     1      -0.785  13.442  19.790  0.00  0.00    +0.000 C 
ATOM      3  C   UNL     1       0.329  12.675  19.091  0.00  0.00    +0.000 C 
ATOM      4  C   UNL     1       0.969  11.629  19.995  0.00  0.00    +0.000 C 
ATOM      5  N   UNL     1      -0.041  10.774  20.652  0.00  0.00    +0.000 NA
ATOM      6  C   UNL     1      -1.232  11.448  21.229  0.00  0.00    +0.000 C 
ENDROOT
BRANCH   1   8
ATOM      7  O   UNL     1      -2.139  11.126  18.312  0.00  0.00    +0.000 OA
ATOM      8  C   UNL     1      -2.682  11.864  19.135  0.00  0.00    +0.000 C 
ATOM      9  N   UNL     1      -4.043  12.169  19.037  0.00  0.00    +0.000 N 
ATOM     10  C   UNL     1      -4.849  12.899  20.015  0.00  0.00    +0.000 C 
ATOM     11  C   UNL     1      -6.038  12.067  20.490  0.00  0.00    +0.000 C 
ATOM     12  C   UNL     1      -6.850  11.491  19.331  0.00  0.00    +0.000 C 
ATOM     13  C   UNL     1      -5.952  10.788  18.313  0.00  0.00    +0.000 C 
ATOM     14  C   UNL     1      -4.800  11.691  17.875  0.00  0.00    +0.000 C 
ENDBRANCH   1   8
BRANCH   5  15
ATOM     15  S   UNL     1       0.548   9.396  21.472  0.00  0.00    +0.000 S 
ATOM     16  O   UNL     1       1.608   9.807  22.370  0.00  0.00    +0.000 OA
ATOM     17  O   UNL     1      -0.586   8.637  21.955  0.00  0.00    +0.000 OA
BRANCH  15  18
ATOM     18  C   UNL     1       1.330   8.385  20.206  0.00  0.00    +0.000 A 
ATOM     19  C   UNL     1       1.617   8.934  18.948  0.00  0.00    +0.000 A 
ATOM     20  C   UNL     1       2.397   8.218  18.028  0.00  0.00    +0.000 A 
ATOM     21  C   UNL     1       2.905   6.959  18.378  0.00  0.00    +0.000 A 
ATOM     22  C   UNL     1       2.629   6.409  19.638  0.00  0.00    +0.000 A 
ATOM     23  C   UNL     1       1.846   7.125  20.554  0.00  0.00    +0.000 A 
BRANCH  21  24
ATOM     24  N   UNL     1       3.759   6.222  17.432  0.00  0.00    +0.000 N 
ATOM     25  O   UNL     1       4.524   6.881  16.713  0.00  0.00    +0.000 OA
ATOM     26  O   UNL     1       3.654   4.986  17.402  0.00  0.00    +0.000 OA
ENDBRANCH  21  24
ENDBRANCH  15  18
ENDBRANCH   5  15
TORSDOF 4
ENDMDL
