MODEL 1
REMARK VINA RESULT:      -9.7      0.000      0.000
REMARK  Name = 
REMARK  8 active torsions:
REMARK  status: ('A' for Active; 'I' for Inactive)
REMARK    1  A    between atoms: C_1  and  C_2
REMARK    2  A    between atoms: C_4  and  C_5
REMARK    3  A    between atoms: C_12  and  C_13
REMARK    4  A    between atoms: C_13  and  N_14
REMARK    5  A    between atoms: N_14  and  C_15
REMARK    6  A    between atoms: C_16  and  C_18
REMARK    7  A    between atoms: C_21  and  C_22
REMARK    8  A    between atoms: C_22  and  C_23
REMARK                            x       y       z     vdW  Elec       q    Type
REMARK                         _______ _______ _______ _____ _____    ______ ____
ROOT
ATOM      1  N   UNL     1       4.220   4.711  19.239  0.00  0.00    +0.000 N 
ATOM      2  C   UNL     1       4.541   3.290  19.159  0.00  0.00    +0.000 C 
ATOM      3  C   UNL     1       2.886   5.083  18.967  0.00  0.00    +0.000 C 
ATOM      4  O   UNL     1       2.005   4.242  18.759  0.00  0.00    +0.000 OA
ENDROOT
BRANCH   3   5
ATOM      5  C   UNL     1       2.469   6.513  18.919  0.00  0.00    +0.000 A 
ATOM      6  C   UNL     1       2.598   7.238  17.724  0.00  0.00    +0.000 A 
ATOM      7  C   UNL     1       2.214   8.588  17.664  0.00  0.00    +0.000 A 
ATOM      8  C   UNL     1       1.718   9.231  18.806  0.00  0.00    +0.000 A 
ATOM      9  C   UNL     1       1.587   8.494  19.986  0.00  0.00    +0.000 A 
ATOM     10  C   UNL     1       1.896   7.141  20.019  0.00  0.00    +0.000 A 
BRANCH   8  11
ATOM     11  C   UNL     1       1.274  10.677  18.791  0.00  0.00    +0.000 C 
BRANCH  11  12
ATOM     12  C   UNL     1      -0.243  10.907  18.884  0.00  0.00    +0.000 C 
ATOM     13  S   UNL     1      -1.274   9.852  17.804  0.00  0.00    +0.000 S 
ATOM     14  C   UNL     1      -1.952  11.219  16.959  0.00  0.00    +0.000 C 
ATOM     15  O   UNL     1      -2.675  11.126  15.981  0.00  0.00    +0.000 OA
ATOM     16  N   UNL     1      -1.554  12.375  17.534  0.00  0.00    +0.000 N 
ATOM     17  C   UNL     1      -0.617  12.325  18.520  0.00  0.00    +0.000 C 
ATOM     18  O   UNL     1      -0.136  13.324  19.039  0.00  0.00    +0.000 OA
ATOM     19  H   UNL     1      -1.860  13.260  17.157  0.00  0.00    +0.000 HD
ENDBRANCH  11  12
ENDBRANCH   8  11
ENDBRANCH   3   5
BRANCH   1  20
ATOM     20  C   UNL     1       5.373   5.619  19.255  0.00  0.00    +0.000 C 
BRANCH  20  26
ATOM     21  C   UNL     1       7.959   7.730  18.033  0.00  0.00    +0.000 C 
ATOM     22  C   UNL     1       7.152   6.605  17.523  0.00  0.00    +0.000 A 
ATOM     23  O   UNL     1       7.425   6.275  16.224  0.00  0.00    +0.000 OA
ATOM     24  C   UNL     1       6.558   5.268  15.913  0.00  0.00    +0.000 A 
ATOM     25  N   UNL     1       5.772   4.932  16.914  0.00  0.00    +0.000 NA
ATOM     26  C   UNL     1       6.141   5.769  17.970  0.00  0.00    +0.000 A 
BRANCH  24  27
ATOM     27  C   UNL     1       6.619   4.776  14.537  0.00  0.00    +0.000 A 
ATOM     28  C   UNL     1       7.619   5.216  13.653  0.00  0.00    +0.000 A 
ATOM     29  C   UNL     1       7.657   4.773  12.328  0.00  0.00    +0.000 A 
ATOM     30  C   UNL     1       6.694   3.880  11.867  0.00  0.00    +0.000 A 
ATOM     31  C   UNL     1       5.702   3.421  12.733  0.00  0.00    +0.000 A 
ATOM     32  C   UNL     1       5.667   3.864  14.061  0.00  0.00    +0.000 A 
ENDBRANCH  24  27
ENDBRANCH  20  26
ENDBRANCH   1  20
TORSDOF 6
ENDMDL
MODEL 2
REMARK VINA RESULT:      -9.6      0.228      1.240
REMARK  Name = 
REMARK  8 active torsions:
REMARK  status: ('A' for Active; 'I' for Inactive)
REMARK    1  A    between atoms: C_1  and  C_2
REMARK    2  A    between atoms: C_4  and  C_5
REMARK    3  A    between atoms: C_12  and  C_13
REMARK    4  A    between atoms: C_13  and  N_14
REMARK    5  A    between atoms: N_14  and  C_15
REMARK    6  A    between atoms: C_16  and  C_18
REMARK    7  A    between atoms: C_21  and  C_22
REMARK    8  A    between atoms: C_22  and  C_23
REMARK                            x       y       z     vdW  Elec       q    Type
REMARK                         _______ _______ _______ _____ _____    ______ ____
ROOT
ATOM      1  N   UNL     1       3.994   4.735  19.082  0.00  0.00    +0.000 N 
ATOM      2  C   UNL     1       4.255   3.307  18.939  0.00  0.00    +0.000 C 
ATOM      3  C   UNL     1       2.689   5.181  18.782  0.00  0.00    +0.000 C 
ATOM      4  O   UNL     1       1.781   4.392  18.499  0.00  0.00    +0.000 OA
ENDROOT
BRANCH   3   5
ATOM      5  C   UNL     1       2.337   6.629  18.793  0.00  0.00    +0.000 A 
ATOM      6  C   UNL     1       1.946   7.243  19.993  0.00  0.00    +0.000 A 
ATOM      7  C   UNL     1       1.605   8.606  20.018  0.00  0.00    +0.000 A 
ATOM      8  C   UNL     1       1.632   9.361  18.838  0.00  0.00    +0.000 A 
ATOM      9  C   UNL     1       2.031   8.738  17.653  0.00  0.00    +0.000 A 
ATOM     10  C   UNL     1       2.439   7.411  17.648  0.00  0.00    +0.000 A 
BRANCH   8  11
ATOM     11  C   UNL     1       1.292  10.835  18.813  0.00  0.00    +0.000 C 
BRANCH  11  12
ATOM     12  C   UNL     1      -0.199  11.175  18.962  0.00  0.00    +0.000 C 
ATOM     13  S   UNL     1      -1.360  10.065  18.087  0.00  0.00    +0.000 S 
ATOM     14  C   UNL     1      -2.009  11.359  17.114  0.00  0.00    +0.000 C 
ATOM     15  O   UNL     1      -2.798  11.194  16.199  0.00  0.00    +0.000 OA
ATOM     16  N   UNL     1      -1.507  12.549  17.512  0.00  0.00    +0.000 N 
ATOM     17  C   UNL     1      -0.513  12.559  18.442  0.00  0.00    +0.000 C 
ATOM     18  O   UNL     1       0.059  13.581  18.801  0.00  0.00    +0.000 OA
ATOM     19  H   UNL     1      -1.784  13.398  17.044  0.00  0.00    +0.000 HD
ENDBRANCH  11  12
ENDBRANCH   8  11
ENDBRANCH   3   5
BRANCH   1  20
ATOM     20  C   UNL     1       5.184   5.588  19.186  0.00  0.00    +0.000 C 
BRANCH  20  26
ATOM     21  C   UNL     1       7.946   7.586  18.178  0.00  0.00    +0.000 C 
ATOM     22  C   UNL     1       7.107   6.527  17.587  0.00  0.00    +0.000 A 
ATOM     23  O   UNL     1       7.431   6.224  16.293  0.00  0.00    +0.000 OA
ATOM     24  C   UNL     1       6.528   5.280  15.901  0.00  0.00    +0.000 A 
ATOM     25  N   UNL     1       5.671   4.956  16.847  0.00  0.00    +0.000 NA
ATOM     26  C   UNL     1       6.028   5.736  17.950  0.00  0.00    +0.000 A 
BRANCH  24  27
ATOM     27  C   UNL     1       6.636   4.831  14.513  0.00  0.00    +0.000 A 
ATOM     28  C   UNL     1       5.817   3.801  14.019  0.00  0.00    +0.000 A 
ATOM     29  C   UNL     1       5.944   3.346  12.703  0.00  0.00    +0.000 A 
ATOM     30  C   UNL     1       6.892   3.919  11.860  0.00  0.00    +0.000 A 
ATOM     31  C   UNL     1       7.703   4.952  12.327  0.00  0.00    +0.000 A 
ATOM     32  C   UNL     1       7.573   5.407  13.645  0.00  0.00    +0.000 A 
ENDBRANCH  24  27
ENDBRANCH  20  26
ENDBRANCH   1  20
TORSDOF 6
ENDMDL
MODEL 3
REMARK VINA RESULT:      -9.3      1.494      1.654
REMARK  Name = 
REMARK  8 active torsions:
REMARK  status: ('A' for Active; 'I' for Inactive)
REMARK    1  A    between atoms: C_1  and  C_2
REMARK    2  A    between atoms: C_4  and  C_5
REMARK    3  A    between atoms: C_12  and  C_13
REMARK    4  A    between atoms: C_13  and  N_14
REMARK    5  A    between atoms: N_14  and  C_15
REMARK    6  A    between atoms: C_16  and  C_18
REMARK    7  A    between atoms: C_21  and  C_22
REMARK    8  A    between atoms: C_22  and  C_23
REMARK                            x       y       z     vdW  Elec       q    Type
REMARK                         _______ _______ _______ _____ _____    ______ ____
ROOT
ATOM      1  N   UNL     1       4.436   4.459  19.282  0.00  0.00    +0.000 N 
ATOM      2  C   UNL     1       4.841   3.064  19.142  0.00  0.00    +0.000 C 
ATOM      3  C   UNL     1       3.073   4.755  19.069  0.00  0.00    +0.000 C 
ATOM      4  O   UNL     1       2.239   3.866  18.863  0.00  0.00    +0.000 OA
ENDROOT
BRANCH   3   5
ATOM      5  C   UNL     1       2.566   6.156  19.083  0.00  0.00    +0.000 A 
ATOM      6  C   UNL     1       2.605   6.925  17.909  0.00  0.00    +0.000 A 
ATOM      7  C   UNL     1       2.136   8.249  17.908  0.00  0.00    +0.000 A 
ATOM      8  C   UNL     1       1.645   8.823  19.088  0.00  0.00    +0.000 A 
ATOM      9  C   UNL     1       1.604   8.043  20.247  0.00  0.00    +0.000 A 
ATOM     10  C   UNL     1       1.998   6.712  20.224  0.00  0.00    +0.000 A 
BRANCH   8  11
ATOM     11  C   UNL     1       1.111  10.239  19.137  0.00  0.00    +0.000 C 
BRANCH  11  12
ATOM     12  C   UNL     1      -0.187  10.431  19.937  0.00  0.00    +0.000 C 
ATOM     13  S   UNL     1      -1.522  11.340  19.079  0.00  0.00    +0.000 S 
ATOM     14  C   UNL     1      -1.565  12.601  20.284  0.00  0.00    +0.000 C 
ATOM     15  O   UNL     1      -2.234  13.616  20.185  0.00  0.00    +0.000 OA
ATOM     16  N   UNL     1      -0.754  12.293  21.320  0.00  0.00    +0.000 N 
ATOM     17  C   UNL     1       0.053  11.201  21.215  0.00  0.00    +0.000 C 
ATOM     18  O   UNL     1       0.879  10.894  22.065  0.00  0.00    +0.000 OA
ATOM     19  H   UNL     1      -0.666  12.926  22.100  0.00  0.00    +0.000 HD
ENDBRANCH  11  12
ENDBRANCH   8  11
ENDBRANCH   3   5
BRANCH   1  20
ATOM     20  C   UNL     1       5.530   5.437  19.288  0.00  0.00    +0.000 C 
BRANCH  20  26
ATOM     21  C   UNL     1       7.927   7.746  18.040  0.00  0.00    +0.000 C 
ATOM     22  C   UNL     1       7.188   6.576  17.530  0.00  0.00    +0.000 A 
ATOM     23  O   UNL     1       7.448   6.289  16.218  0.00  0.00    +0.000 OA
ATOM     24  C   UNL     1       6.646   5.229  15.910  0.00  0.00    +0.000 A 
ATOM     25  N   UNL     1       5.913   4.820  16.925  0.00  0.00    +0.000 NA
ATOM     26  C   UNL     1       6.250   5.663  17.986  0.00  0.00    +0.000 A 
BRANCH  24  27
ATOM     27  C   UNL     1       6.704   4.766  14.524  0.00  0.00    +0.000 A 
ATOM     28  C   UNL     1       7.661   5.274  13.629  0.00  0.00    +0.000 A 
ATOM     29  C   UNL     1       7.694   4.859  12.295  0.00  0.00    +0.000 A 
ATOM     30  C   UNL     1       6.771   3.924  11.836  0.00  0.00    +0.000 A 
ATOM     31  C   UNL     1       5.823   3.397  12.712  0.00  0.00    +0.000 A 
ATOM     32  C   UNL     1       5.792   3.813  14.049  0.00  0.00    +0.000 A 
ENDBRANCH  24  27
ENDBRANCH  20  26
ENDBRANCH   1  20
TORSDOF 6
ENDMDL
MODEL 4
REMARK VINA RESULT:      -9.3      2.126      2.741
REMARK  Name = 
REMARK  8 active torsions:
REMARK  status: ('A' for Active; 'I' for Inactive)
REMARK    1  A    between atoms: C_1  and  C_2
REMARK    2  A    between atoms: C_4  and  C_5
REMARK    3  A    between atoms: C_12  and  C_13
REMARK    4  A    between atoms: C_13  and  N_14
REMARK    5  A    between atoms: N_14  and  C_15
REMARK    6  A    between atoms: C_16  and  C_18
REMARK    7  A    between atoms: C_21  and  C_22
REMARK    8  A    between atoms: C_22  and  C_23
REMARK                            x       y       z     vdW  Elec       q    Type
REMARK                         _______ _______ _______ _____ _____    ______ ____
ROOT
ATOM      1  N   UNL     1       3.588   3.241  18.736  0.00  0.00    +0.000 N 
ATOM      2  C   UNL     1       3.728   1.914  18.145  0.00  0.00    +0.000 C 
ATOM      3  C   UNL     1       2.358   3.903  18.541  0.00  0.00    +0.000 C 
ATOM      4  O   UNL     1       1.406   3.355  17.975  0.00  0.00    +0.000 OA
ENDROOT
BRANCH   3   5
ATOM      5  C   UNL     1       2.141   5.301  19.010  0.00  0.00    +0.000 A 
ATOM      6  C   UNL     1       1.724   5.538  20.330  0.00  0.00    +0.000 A 
ATOM      7  C   UNL     1       1.510   6.849  20.785  0.00  0.00    +0.000 A 
ATOM      8  C   UNL     1       1.689   7.935  19.916  0.00  0.00    +0.000 A 
ATOM      9  C   UNL     1       2.112   7.684  18.609  0.00  0.00    +0.000 A 
ATOM     10  C   UNL     1       2.396   6.392  18.187  0.00  0.00    +0.000 A 
BRANCH   8  11
ATOM     11  C   UNL     1       1.489   9.367  20.361  0.00  0.00    +0.000 C 
BRANCH  11  12
ATOM     12  C   UNL     1       0.071   9.724  20.833  0.00  0.00    +0.000 C 
ATOM     13  S   UNL     1      -0.767  11.054  19.899  0.00  0.00    +0.000 S 
ATOM     14  C   UNL     1      -0.934  12.067  21.310  0.00  0.00    +0.000 C 
ATOM     15  O   UNL     1      -1.350  13.213  21.282  0.00  0.00    +0.000 OA
ATOM     16  N   UNL     1      -0.531  11.405  22.418  0.00  0.00    +0.000 N 
ATOM     17  C   UNL     1       0.059  10.186  22.271  0.00  0.00    +0.000 C 
ATOM     18  O   UNL     1       0.531   9.553  23.207  0.00  0.00    +0.000 OA
ATOM     19  H   UNL     1      -0.563  11.857  23.318  0.00  0.00    +0.000 HD
ENDBRANCH  11  12
ENDBRANCH   8  11
ENDBRANCH   3   5
BRANCH   1  20
ATOM     20  C   UNL     1       4.840   3.874  19.167  0.00  0.00    +0.000 C 
BRANCH  20  26
ATOM     21  C   UNL     1       7.840   5.773  18.984  0.00  0.00    +0.000 C 
ATOM     22  C   UNL     1       6.969   5.037  18.048  0.00  0.00    +0.000 A 
ATOM     23  O   UNL     1       7.379   5.104  16.745  0.00  0.00    +0.000 OA
ATOM     24  C   UNL     1       6.437   4.424  16.030  0.00  0.00    +0.000 A 
ATOM     25  N   UNL     1       5.475   3.925  16.779  0.00  0.00    +0.000 NA
ATOM     26  C   UNL     1       5.799   4.295  18.087  0.00  0.00    +0.000 A 
BRANCH  24  27
ATOM     27  C   UNL     1       6.628   4.403  14.580  0.00  0.00    +0.000 A 
ATOM     28  C   UNL     1       5.873   3.545  13.761  0.00  0.00    +0.000 A 
ATOM     29  C   UNL     1       6.080   3.498  12.380  0.00  0.00    +0.000 A 
ATOM     30  C   UNL     1       7.045   4.313  11.795  0.00  0.00    +0.000 A 
ATOM     31  C   UNL     1       7.794   5.181  12.588  0.00  0.00    +0.000 A 
ATOM     32  C   UNL     1       7.584   5.228  13.972  0.00  0.00    +0.000 A 
ENDBRANCH  24  27
ENDBRANCH  20  26
ENDBRANCH   1  20
TORSDOF 6
ENDMDL
MODEL 5
REMARK VINA RESULT:      -9.2      1.133      1.984
REMARK  Name = 
REMARK  8 active torsions:
REMARK  status: ('A' for Active; 'I' for Inactive)
REMARK    1  A    between atoms: C_1  and  C_2
REMARK    2  A    between atoms: C_4  and  C_5
REMARK    3  A    between atoms: C_12  and  C_13
REMARK    4  A    between atoms: C_13  and  N_14
REMARK    5  A    between atoms: N_14  and  C_15
REMARK    6  A    between atoms: C_16  and  C_18
REMARK    7  A    between atoms: C_21  and  C_22
REMARK    8  A    between atoms: C_22  and  C_23
REMARK                            x       y       z     vdW  Elec       q    Type
REMARK                         _______ _______ _______ _____ _____    ______ ____
ROOT
ATOM      1  N   UNL     1       3.988   4.264  19.047  0.00  0.00    +0.000 N 
ATOM      2  C   UNL     1       4.281   2.891  18.651  0.00  0.00    +0.000 C 
ATOM      3  C   UNL     1       2.653   4.700  18.908  0.00  0.00    +0.000 C 
ATOM      4  O   UNL     1       1.752   3.933  18.554  0.00  0.00    +0.000 OA
ENDROOT
BRANCH   3   5
ATOM      5  C   UNL     1       2.260   6.111  19.183  0.00  0.00    +0.000 A 
ATOM      6  C   UNL     1       1.852   6.484  20.474  0.00  0.00    +0.000 A 
ATOM      7  C   UNL     1       1.474   7.808  20.747  0.00  0.00    +0.000 A 
ATOM      8  C   UNL     1       1.478   8.768  19.725  0.00  0.00    +0.000 A 
ATOM      9  C   UNL     1       1.895   8.384  18.448  0.00  0.00    +0.000 A 
ATOM     10  C   UNL     1       2.341   7.093  18.202  0.00  0.00    +0.000 A 
BRANCH   8  11
ATOM     11  C   UNL     1       1.097  10.212  19.970  0.00  0.00    +0.000 C 
BRANCH  11  12
ATOM     12  C   UNL     1       0.801  11.043  18.712  0.00  0.00    +0.000 C 
ATOM     13  S   UNL     1       1.490  12.737  18.698  0.00  0.00    +0.000 S 
ATOM     14  C   UNL     1      -0.083  13.476  18.551  0.00  0.00    +0.000 C 
ATOM     15  O   UNL     1      -0.280  14.678  18.609  0.00  0.00    +0.000 OA
ATOM     16  N   UNL     1      -1.035  12.531  18.378  0.00  0.00    +0.000 N 
ATOM     17  C   UNL     1      -0.684  11.221  18.496  0.00  0.00    +0.000 C 
ATOM     18  O   UNL     1      -1.492  10.303  18.439  0.00  0.00    +0.000 OA
ATOM     19  H   UNL     1      -2.002  12.799  18.280  0.00  0.00    +0.000 HD
ENDBRANCH  11  12
ENDBRANCH   8  11
ENDBRANCH   3   5
BRANCH   1  20
ATOM     20  C   UNL     1       5.157   5.135  19.219  0.00  0.00    +0.000 C 
BRANCH  20  26
ATOM     21  C   UNL     1       7.958   7.166  18.403  0.00  0.00    +0.000 C 
ATOM     22  C   UNL     1       7.111   6.171  17.719  0.00  0.00    +0.000 A 
ATOM     23  O   UNL     1       7.445   5.969  16.408  0.00  0.00    +0.000 OA
ATOM     24  C   UNL     1       6.533   5.072  15.933  0.00  0.00    +0.000 A 
ATOM     25  N   UNL     1       5.661   4.686  16.841  0.00  0.00    +0.000 NA
ATOM     26  C   UNL     1       6.017   5.369  18.006  0.00  0.00    +0.000 A 
BRANCH  24  27
ATOM     27  C   UNL     1       6.651   4.734  14.514  0.00  0.00    +0.000 A 
ATOM     28  C   UNL     1       5.818   3.765  13.928  0.00  0.00    +0.000 A 
ATOM     29  C   UNL     1       5.953   3.416  12.582  0.00  0.00    +0.000 A 
ATOM     30  C   UNL     1       6.923   4.035  11.799  0.00  0.00    +0.000 A 
ATOM     31  C   UNL     1       7.749   5.009  12.358  0.00  0.00    +0.000 A 
ATOM     32  C   UNL     1       7.611   5.359  13.707  0.00  0.00    +0.000 A 
ENDBRANCH  24  27
ENDBRANCH  20  26
ENDBRANCH   1  20
TORSDOF 6
ENDMDL
MODEL 6
REMARK VINA RESULT:      -9.2      1.358      1.865
REMARK  Name = 
REMARK  8 active torsions:
REMARK  status: ('A' for Active; 'I' for Inactive)
REMARK    1  A    between atoms: C_1  and  C_2
REMARK    2  A    between atoms: C_4  and  C_5
REMARK    3  A    between atoms: C_12  and  C_13
REMARK    4  A    between atoms: C_13  and  N_14
REMARK    5  A    between atoms: N_14  and  C_15
REMARK    6  A    between atoms: C_16  and  C_18
REMARK    7  A    between atoms: C_21  and  C_22
REMARK    8  A    between atoms: C_22  and  C_23
REMARK                            x       y       z     vdW  Elec       q    Type
REMARK                         _______ _______ _______ _____ _____    ______ ____
ROOT
ATOM      1  N   UNL     1       4.393   4.341  19.285  0.00  0.00    +0.000 N 
ATOM      2  C   UNL     1       4.688   2.912  19.257  0.00  0.00    +0.000 C 
ATOM      3  C   UNL     1       3.080   4.731  18.946  0.00  0.00    +0.000 C 
ATOM      4  O   UNL     1       2.191   3.901  18.725  0.00  0.00    +0.000 OA
ENDROOT
BRANCH   3   5
ATOM      5  C   UNL     1       2.695   6.166  18.841  0.00  0.00    +0.000 A 
ATOM      6  C   UNL     1       2.156   6.829  19.955  0.00  0.00    +0.000 A 
ATOM      7  C   UNL     1       1.784   8.180  19.869  0.00  0.00    +0.000 A 
ATOM      8  C   UNL     1       1.925   8.875  18.660  0.00  0.00    +0.000 A 
ATOM      9  C   UNL     1       2.471   8.205  17.562  0.00  0.00    +0.000 A 
ATOM     10  C   UNL     1       2.908   6.893  17.674  0.00  0.00    +0.000 A 
BRANCH   8  11
ATOM     11  C   UNL     1       1.556  10.336  18.519  0.00  0.00    +0.000 C 
BRANCH  11  12
ATOM     12  C   UNL     1       0.934  10.986  19.765  0.00  0.00    +0.000 C 
ATOM     13  S   UNL     1      -0.882  10.829  19.921  0.00  0.00    +0.000 S 
ATOM     14  C   UNL     1      -1.125  12.557  19.912  0.00  0.00    +0.000 C 
ATOM     15  O   UNL     1      -2.221  13.090  19.876  0.00  0.00    +0.000 OA
ATOM     16  N   UNL     1       0.062  13.202  19.939  0.00  0.00    +0.000 N 
ATOM     17  C   UNL     1       1.205  12.472  19.815  0.00  0.00    +0.000 C 
ATOM     18  O   UNL     1       2.318  12.977  19.744  0.00  0.00    +0.000 OA
ATOM     19  H   UNL     1       0.091  14.210  19.935  0.00  0.00    +0.000 HD
ENDBRANCH  11  12
ENDBRANCH   8  11
ENDBRANCH   3   5
BRANCH   1  20
ATOM     20  C   UNL     1       5.563   5.226  19.324  0.00  0.00    +0.000 C 
BRANCH  20  26
ATOM     21  C   UNL     1       7.973   7.546  18.121  0.00  0.00    +0.000 C 
ATOM     22  C   UNL     1       7.203   6.411  17.579  0.00  0.00    +0.000 A 
ATOM     23  O   UNL     1       7.430   6.174  16.251  0.00  0.00    +0.000 OA
ATOM     24  C   UNL     1       6.604   5.141  15.918  0.00  0.00    +0.000 A 
ATOM     25  N   UNL     1       5.885   4.702  16.930  0.00  0.00    +0.000 NA
ATOM     26  C   UNL     1       6.259   5.494  18.018  0.00  0.00    +0.000 A 
BRANCH  24  27
ATOM     27  C   UNL     1       6.625   4.736  14.512  0.00  0.00    +0.000 A 
ATOM     28  C   UNL     1       5.692   3.811  14.010  0.00  0.00    +0.000 A 
ATOM     29  C   UNL     1       5.733   3.396  12.676  0.00  0.00    +0.000 A 
ATOM     30  C   UNL     1       6.708   3.903  11.822  0.00  0.00    +0.000 A 
ATOM     31  C   UNL     1       7.632   4.832  12.297  0.00  0.00    +0.000 A 
ATOM     32  C   UNL     1       7.589   5.249  13.634  0.00  0.00    +0.000 A 
ENDBRANCH  24  27
ENDBRANCH  20  26
ENDBRANCH   1  20
TORSDOF 6
ENDMDL
MODEL 7
REMARK VINA RESULT:      -9.0      1.440      2.072
REMARK  Name = 
REMARK  8 active torsions:
REMARK  status: ('A' for Active; 'I' for Inactive)
REMARK    1  A    between atoms: C_1  and  C_2
REMARK    2  A    between atoms: C_4  and  C_5
REMARK    3  A    between atoms: C_12  and  C_13
REMARK    4  A    between atoms: C_13  and  N_14
REMARK    5  A    between atoms: N_14  and  C_15
REMARK    6  A    between atoms: C_16  and  C_18
REMARK    7  A    between atoms: C_21  and  C_22
REMARK    8  A    between atoms: C_22  and  C_23
REMARK                            x       y       z     vdW  Elec       q    Type
REMARK                         _______ _______ _______ _____ _____    ______ ____
ROOT
ATOM      1  N   UNL     1       3.669   3.323  18.814  0.00  0.00    +0.000 N 
ATOM      2  C   UNL     1       3.813   1.943  18.362  0.00  0.00    +0.000 C 
ATOM      3  C   UNL     1       2.451   3.970  18.517  0.00  0.00    +0.000 C 
ATOM      4  O   UNL     1       1.511   3.374  17.979  0.00  0.00    +0.000 OA
ENDROOT
BRANCH   3   5
ATOM      5  C   UNL     1       2.233   5.409  18.837  0.00  0.00    +0.000 A 
ATOM      6  C   UNL     1       2.424   6.383  17.844  0.00  0.00    +0.000 A 
ATOM      7  C   UNL     1       2.228   7.743  18.133  0.00  0.00    +0.000 A 
ATOM      8  C   UNL     1       1.861   8.144  19.425  0.00  0.00    +0.000 A 
ATOM      9  C   UNL     1       1.666   7.163  20.401  0.00  0.00    +0.000 A 
ATOM     10  C   UNL     1       1.787   5.816  20.090  0.00  0.00    +0.000 A 
BRANCH   8  11
ATOM     11  C   UNL     1       1.620   9.594  19.784  0.00  0.00    +0.000 C 
BRANCH  11  12
ATOM     12  C   UNL     1       1.175  10.500  18.624  0.00  0.00    +0.000 C 
ATOM     13  S   UNL     1       2.077  12.082  18.460  0.00  0.00    +0.000 S 
ATOM     14  C   UNL     1       0.631  13.035  18.669  0.00  0.00    +0.000 C 
ATOM     15  O   UNL     1       0.623  14.250  18.772  0.00  0.00    +0.000 OA
ATOM     16  N   UNL     1      -0.460  12.237  18.710  0.00  0.00    +0.000 N 
ATOM     17  C   UNL     1      -0.280  10.888  18.744  0.00  0.00    +0.000 C 
ATOM     18  O   UNL     1      -1.203  10.092  18.866  0.00  0.00    +0.000 OA
ATOM     19  H   UNL     1      -1.377  12.638  18.830  0.00  0.00    +0.000 HD
ENDBRANCH  11  12
ENDBRANCH   8  11
ENDBRANCH   3   5
BRANCH   1  20
ATOM     20  C   UNL     1       4.913   3.989  19.217  0.00  0.00    +0.000 C 
BRANCH  20  26
ATOM     21  C   UNL     1       7.830   6.003  18.952  0.00  0.00    +0.000 C 
ATOM     22  C   UNL     1       6.984   5.204  18.045  0.00  0.00    +0.000 A 
ATOM     23  O   UNL     1       7.381   5.249  16.737  0.00  0.00    +0.000 OA
ATOM     24  C   UNL     1       6.463   4.509  16.051  0.00  0.00    +0.000 A 
ATOM     25  N   UNL     1       5.529   3.994  16.823  0.00  0.00    +0.000 NA
ATOM     26  C   UNL     1       5.846   4.416  18.116  0.00  0.00    +0.000 A 
BRANCH  24  27
ATOM     27  C   UNL     1       6.644   4.453  14.600  0.00  0.00    +0.000 A 
ATOM     28  C   UNL     1       5.867   3.593  13.806  0.00  0.00    +0.000 A 
ATOM     29  C   UNL     1       6.064   3.512  12.424  0.00  0.00    +0.000 A 
ATOM     30  C   UNL     1       7.041   4.294  11.816  0.00  0.00    +0.000 A 
ATOM     31  C   UNL     1       7.812   5.164  12.585  0.00  0.00    +0.000 A 
ATOM     32  C   UNL     1       7.612   5.246  13.969  0.00  0.00    +0.000 A 
ENDBRANCH  24  27
ENDBRANCH  20  26
ENDBRANCH   1  20
TORSDOF 6
ENDMDL
MODEL 8
REMARK VINA RESULT:      -8.8      2.452      4.938
REMARK  Name = 
REMARK  8 active torsions:
REMARK  status: ('A' for Active; 'I' for Inactive)
REMARK    1  A    between atoms: C_1  and  C_2
REMARK    2  A    between atoms: C_4  and  C_5
REMARK    3  A    between atoms: C_12  and  C_13
REMARK    4  A    between atoms: C_13  and  N_14
REMARK    5  A    between atoms: N_14  and  C_15
REMARK    6  A    between atoms: C_16  and  C_18
REMARK    7  A    between atoms: C_21  and  C_22
REMARK    8  A    between atoms: C_22  and  C_23
REMARK                            x       y       z     vdW  Elec       q    Type
REMARK                         _______ _______ _______ _____ _____    ______ ____
ROOT
ATOM      1  N   UNL     1       5.314   5.391  16.908  0.00  0.00    +0.000 N 
ATOM      2  C   UNL     1       5.935   4.210  16.316  0.00  0.00    +0.000 C 
ATOM      3  C   UNL     1       4.061   5.211  17.531  0.00  0.00    +0.000 C 
ATOM      4  O   UNL     1       3.550   4.093  17.654  0.00  0.00    +0.000 OA
ENDROOT
BRANCH   3   5
ATOM      5  C   UNL     1       3.288   6.362  18.076  0.00  0.00    +0.000 A 
ATOM      6  C   UNL     1       2.846   6.338  19.408  0.00  0.00    +0.000 A 
ATOM      7  C   UNL     1       2.111   7.413  19.935  0.00  0.00    +0.000 A 
ATOM      8  C   UNL     1       1.794   8.513  19.126  0.00  0.00    +0.000 A 
ATOM      9  C   UNL     1       2.248   8.527  17.805  0.00  0.00    +0.000 A 
ATOM     10  C   UNL     1       3.038   7.497  17.313  0.00  0.00    +0.000 A 
BRANCH   8  11
ATOM     11  C   UNL     1       1.021   9.705  19.649  0.00  0.00    +0.000 C 
BRANCH  11  12
ATOM     12  C   UNL     1       0.650  10.767  18.602  0.00  0.00    +0.000 C 
ATOM     13  S   UNL     1       1.461  12.394  18.798  0.00  0.00    +0.000 S 
ATOM     14  C   UNL     1      -0.058  13.233  18.980  0.00  0.00    +0.000 C 
ATOM     15  O   UNL     1      -0.155  14.413  19.271  0.00  0.00    +0.000 OA
ATOM     16  N   UNL     1      -1.093  12.390  18.764  0.00  0.00    +0.000 N 
ATOM     17  C   UNL     1      -0.832  11.063  18.606  0.00  0.00    +0.000 C 
ATOM     18  O   UNL     1      -1.709  10.217  18.491  0.00  0.00    +0.000 OA
ATOM     19  H   UNL     1      -2.042  12.724  18.835  0.00  0.00    +0.000 HD
ENDBRANCH  11  12
ENDBRANCH   8  11
ENDBRANCH   3   5
BRANCH   1  20
ATOM     20  C   UNL     1       5.886   6.678  16.496  0.00  0.00    +0.000 C 
BRANCH  20  26
ATOM     21  C   UNL     1       8.023   5.492  19.077  0.00  0.00    +0.000 C 
ATOM     22  C   UNL     1       7.782   6.767  18.376  0.00  0.00    +0.000 A 
ATOM     23  O   UNL     1       8.550   7.802  18.833  0.00  0.00    +0.000 OA
ATOM     24  C   UNL     1       8.157   8.894  18.116  0.00  0.00    +0.000 A 
ATOM     25  N   UNL     1       7.213   8.627  17.238  0.00  0.00    +0.000 NA
ATOM     26  C   UNL     1       6.960   7.260  17.374  0.00  0.00    +0.000 A 
BRANCH  24  27
ATOM     27  C   UNL     1       8.805  10.157  18.469  0.00  0.00    +0.000 A 
ATOM     28  C   UNL     1       9.607  10.264  19.619  0.00  0.00    +0.000 A 
ATOM     29  C   UNL     1      10.198  11.479  19.976  0.00  0.00    +0.000 A 
ATOM     30  C   UNL     1       9.998  12.607  19.186  0.00  0.00    +0.000 A 
ATOM     31  C   UNL     1       9.219  12.517  18.033  0.00  0.00    +0.000 A 
ATOM     32  C   UNL     1       8.628  11.298  17.676  0.00  0.00    +0.000 A 
ENDBRANCH  24  27
ENDBRANCH  20  26
ENDBRANCH   1  20
TORSDOF 6
ENDMDL
MODEL 9
REMARK VINA RESULT:      -8.8      1.260      1.457
REMARK  Name = 
REMARK  8 active torsions:
REMARK  status: ('A' for Active; 'I' for Inactive)
REMARK    1  A    between atoms: C_1  and  C_2
REMARK    2  A    between atoms: C_4  and  C_5
REMARK    3  A    between atoms: C_12  and  C_13
REMARK    4  A    between atoms: C_13  and  N_14
REMARK    5  A    between atoms: N_14  and  C_15
REMARK    6  A    between atoms: C_16  and  C_18
REMARK    7  A    between atoms: C_21  and  C_22
REMARK    8  A    between atoms: C_22  and  C_23
REMARK                            x       y       z     vdW  Elec       q    Type
REMARK                         _______ _______ _______ _____ _____    ______ ____
ROOT
ATOM      1  N   UNL     1       2.935   4.046  19.520  0.00  0.00    +0.000 N 
ATOM      2  C   UNL     1       3.104   2.712  20.086  0.00  0.00    +0.000 C 
ATOM      3  C   UNL     1       2.469   5.056  20.388  0.00  0.00    +0.000 C 
ATOM      4  O   UNL     1       2.297   4.849  21.594  0.00  0.00    +0.000 OA
ENDROOT
BRANCH   3   5
ATOM      5  C   UNL     1       2.162   6.428  19.895  0.00  0.00    +0.000 A 
ATOM      6  C   UNL     1       2.482   6.785  18.576  0.00  0.00    +0.000 A 
ATOM      7  C   UNL     1       2.203   8.076  18.099  0.00  0.00    +0.000 A 
ATOM      8  C   UNL     1       1.622   9.030  18.945  0.00  0.00    +0.000 A 
ATOM      9  C   UNL     1       1.301   8.658  20.253  0.00  0.00    +0.000 A 
ATOM     10  C   UNL     1       1.509   7.359  20.696  0.00  0.00    +0.000 A 
BRANCH   8  11
ATOM     11  C   UNL     1       1.286  10.429  18.476  0.00  0.00    +0.000 C 
BRANCH  11  12
ATOM     12  C   UNL     1      -0.123  10.927  18.833  0.00  0.00    +0.000 C 
ATOM     13  S   UNL     1      -1.509  10.003  18.077  0.00  0.00    +0.000 S 
ATOM     14  C   UNL     1      -2.118  11.411  17.246  0.00  0.00    +0.000 C 
ATOM     15  O   UNL     1      -3.030  11.384  16.438  0.00  0.00    +0.000 OA
ATOM     16  N   UNL     1      -1.431  12.514  17.619  0.00  0.00    +0.000 N 
ATOM     17  C   UNL     1      -0.333  12.363  18.410  0.00  0.00    +0.000 C 
ATOM     18  O   UNL     1       0.398  13.293  18.727  0.00  0.00    +0.000 OA
ATOM     19  H   UNL     1      -1.662  13.412  17.223  0.00  0.00    +0.000 HD
ENDBRANCH  11  12
ENDBRANCH   8  11
ENDBRANCH   3   5
BRANCH   1  20
ATOM     20  C   UNL     1       2.937   4.115  18.054  0.00  0.00    +0.000 C 
BRANCH  20  26
ATOM     21  C   UNL     1       6.174   5.211  19.034  0.00  0.00    +0.000 C 
ATOM     22  C   UNL     1       5.520   4.748  17.796  0.00  0.00    +0.000 A 
ATOM     23  O   UNL     1       6.342   4.754  16.702  0.00  0.00    +0.000 OA
ATOM     24  C   UNL     1       5.563   4.355  15.657  0.00  0.00    +0.000 A 
ATOM     25  N   UNL     1       4.322   4.086  16.006  0.00  0.00    +0.000 NA
ATOM     26  C   UNL     1       4.268   4.319  17.383  0.00  0.00    +0.000 A 
BRANCH  24  27
ATOM     27  C   UNL     1       6.213   4.336  14.346  0.00  0.00    +0.000 A 
ATOM     28  C   UNL     1       7.311   5.169  14.070  0.00  0.00    +0.000 A 
ATOM     29  C   UNL     1       7.910   5.177  12.807  0.00  0.00    +0.000 A 
ATOM     30  C   UNL     1       7.421   4.348  11.802  0.00  0.00    +0.000 A 
ATOM     31  C   UNL     1       6.343   3.504  12.061  0.00  0.00    +0.000 A 
ATOM     32  C   UNL     1       5.744   3.496  13.327  0.00  0.00    +0.000 A 
ENDBRANCH  24  27
ENDBRANCH  20  26
ENDBRANCH   1  20
TORSDOF 6
ENDMDL
