MODEL 1
REMARK VINA RESULT:      -7.5      0.000      0.000
REMARK  Name = 
REMARK  7 active torsions:
REMARK  status: ('A' for Active; 'I' for Inactive)
REMARK    1  A    between atoms: C_1  and  O_2
REMARK    2  A    between atoms: O_2  and  C_3
REMARK    3  A    between atoms: C_6  and  N_7
REMARK    4  A    between atoms: N_7  and  S_8
REMARK    5  A    between atoms: S_8  and  N_11
REMARK    6  A    between atoms: C_14  and  N_15
REMARK    7  A    between atoms: C_18  and  C_19
REMARK                            x       y       z     vdW  Elec       q    Type
REMARK                         _______ _______ _______ _____ _____    ______ ____
ROOT
ATOM      1  S   UNL     1       1.885   4.774  20.658  0.00  0.00    +0.000 S 
ATOM      2  O   UNL     1       2.349   4.266  21.929  0.00  0.00    +0.000 OA
ATOM      3  O   UNL     1       0.501   5.109  20.425  0.00  0.00    +0.000 OA
ENDROOT
BRANCH   1   4
ATOM      4  N   UNL     1       2.407   3.688  19.426  0.00  0.00    +0.000 NA
ATOM      5  C   UNL     1       1.992   4.152  18.075  0.00  0.00    +0.000 C 
ATOM      6  C   UNL     1       2.622   3.374  16.937  0.00  0.00    +0.000 C 
ATOM      7  C   UNL     1       4.150   3.261  17.025  0.00  0.00    +0.000 C 
ATOM      8  C   UNL     1       4.453   2.588  18.374  0.00  0.00    +0.000 C 
ATOM      9  C   UNL     1       3.830   3.259  19.594  0.00  0.00    +0.000 C 
BRANCH   7  10
ATOM     10  N   UNL     1       4.971   4.452  16.677  0.00  0.00    +0.000 NA
ATOM     11  C   UNL     1       4.718   5.583  17.584  0.00  0.00    +0.000 C 
ATOM     12  C   UNL     1       5.535   6.840  17.269  0.00  0.00    +0.000 C 
ATOM     13  C   UNL     1       7.031   6.542  17.183  0.00  0.00    +0.000 C 
ATOM     14  C   UNL     1       7.625   6.130  18.535  0.00  0.00    +0.000 C 
ATOM     15  C   UNL     1       7.223   5.470  16.114  0.00  0.00    +0.000 C 
ATOM     16  C   UNL     1       6.384   4.218  16.378  0.00  0.00    +0.000 C 
ENDBRANCH   7  10
ENDBRANCH   1   4
BRANCH   1  17
ATOM     17  N   UNL     1       2.887   6.081  20.282  0.00  0.00    +0.000 N 
ATOM     18  H   UNL     1       3.471   6.214  21.109  0.00  0.00    +0.000 HD
BRANCH  17  22
ATOM     19  C   UNL     1       0.802   9.647  19.356  0.00  0.00    +0.000 A 
ATOM     20  C   UNL     1       1.522   8.986  18.358  0.00  0.00    +0.000 A 
ATOM     21  C   UNL     1       2.216   7.806  18.648  0.00  0.00    +0.000 A 
ATOM     22  C   UNL     1       2.197   7.291  19.942  0.00  0.00    +0.000 A 
ATOM     23  C   UNL     1       1.525   7.976  20.956  0.00  0.00    +0.000 A 
ATOM     24  C   UNL     1       0.821   9.150  20.660  0.00  0.00    +0.000 A 
BRANCH  19  26
ATOM     25  C   UNL     1      -1.126  10.575  18.347  0.00  0.00    +0.000 C 
ATOM     26  O   UNL     1       0.146  10.777  18.954  0.00  0.00    +0.000 OA
ENDBRANCH  19  26
ENDBRANCH  17  22
ENDBRANCH   1  17
TORSDOF 5
ENDMDL
MODEL 2
REMARK VINA RESULT:      -7.5      0.491      1.110
REMARK  Name = 
REMARK  7 active torsions:
REMARK  status: ('A' for Active; 'I' for Inactive)
REMARK    1  A    between atoms: C_1  and  O_2
REMARK    2  A    between atoms: O_2  and  C_3
REMARK    3  A    between atoms: C_6  and  N_7
REMARK    4  A    between atoms: N_7  and  S_8
REMARK    5  A    between atoms: S_8  and  N_11
REMARK    6  A    between atoms: C_14  and  N_15
REMARK    7  A    between atoms: C_18  and  C_19
REMARK                            x       y       z     vdW  Elec       q    Type
REMARK                         _______ _______ _______ _____ _____    ______ ____
ROOT
ATOM      1  S   UNL     1       1.880   4.794  20.653  0.00  0.00    +0.000 S 
ATOM      2  O   UNL     1       2.343   4.304  21.931  0.00  0.00    +0.000 OA
ATOM      3  O   UNL     1       0.496   5.126  20.413  0.00  0.00    +0.000 OA
ENDROOT
BRANCH   1   4
ATOM      4  N   UNL     1       2.402   3.689  19.437  0.00  0.00    +0.000 NA
ATOM      5  C   UNL     1       1.979   4.128  18.079  0.00  0.00    +0.000 C 
ATOM      6  C   UNL     1       2.609   3.333  16.952  0.00  0.00    +0.000 C 
ATOM      7  C   UNL     1       4.137   3.228  17.037  0.00  0.00    +0.000 C 
ATOM      8  C   UNL     1       4.449   2.580  18.395  0.00  0.00    +0.000 C 
ATOM      9  C   UNL     1       3.827   3.269  19.606  0.00  0.00    +0.000 C 
BRANCH   7  10
ATOM     10  N   UNL     1       4.952   4.417  16.665  0.00  0.00    +0.000 NA
ATOM     11  C   UNL     1       4.719   5.552  17.572  0.00  0.00    +0.000 C 
ATOM     12  C   UNL     1       5.531   6.807  17.234  0.00  0.00    +0.000 C 
ATOM     13  C   UNL     1       7.025   6.507  17.117  0.00  0.00    +0.000 C 
ATOM     14  C   UNL     1       7.647   6.102  18.457  0.00  0.00    +0.000 C 
ATOM     15  C   UNL     1       7.192   5.430  16.049  0.00  0.00    +0.000 C 
ATOM     16  C   UNL     1       6.358   4.179  16.337  0.00  0.00    +0.000 C 
ENDBRANCH   7  10
ENDBRANCH   1   4
BRANCH   1  17
ATOM     17  N   UNL     1       2.883   6.094  20.257  0.00  0.00    +0.000 N 
ATOM     18  H   UNL     1       3.489   6.217  21.069  0.00  0.00    +0.000 HD
BRANCH  17  22
ATOM     19  C   UNL     1       0.898   9.696  19.254  0.00  0.00    +0.000 A 
ATOM     20  C   UNL     1       0.815   9.199  20.556  0.00  0.00    +0.000 A 
ATOM     21  C   UNL     1       1.466   8.009  20.903  0.00  0.00    +0.000 A 
ATOM     22  C   UNL     1       2.194   7.312  19.943  0.00  0.00    +0.000 A 
ATOM     23  C   UNL     1       2.235   7.775  18.626  0.00  0.00    +0.000 A 
ATOM     24  C   UNL     1       1.593   8.971  18.284  0.00  0.00    +0.000 A 
BRANCH  19  26
ATOM     25  C   UNL     1       1.040  12.052  19.089  0.00  0.00    +0.000 C 
ATOM     26  O   UNL     1       0.240  10.875  19.034  0.00  0.00    +0.000 OA
ENDBRANCH  19  26
ENDBRANCH  17  22
ENDBRANCH   1  17
TORSDOF 5
ENDMDL
MODEL 3
REMARK VINA RESULT:      -7.4      0.847      1.593
REMARK  Name = 
REMARK  7 active torsions:
REMARK  status: ('A' for Active; 'I' for Inactive)
REMARK    1  A    between atoms: C_1  and  O_2
REMARK    2  A    between atoms: O_2  and  C_3
REMARK    3  A    between atoms: C_6  and  N_7
REMARK    4  A    between atoms: N_7  and  S_8
REMARK    5  A    between atoms: S_8  and  N_11
REMARK    6  A    between atoms: C_14  and  N_15
REMARK    7  A    between atoms: C_18  and  C_19
REMARK                            x       y       z     vdW  Elec       q    Type
REMARK                         _______ _______ _______ _____ _____    ______ ____
ROOT
ATOM      1  S   UNL     1       1.837   4.817  20.621  0.00  0.00    +0.000 S 
ATOM      2  O   UNL     1       2.392   4.330  21.863  0.00  0.00    +0.000 OA
ATOM      3  O   UNL     1       0.465   5.250  20.511  0.00  0.00    +0.000 OA
ENDROOT
BRANCH   1   4
ATOM      4  N   UNL     1       2.145   3.640  19.400  0.00  0.00    +0.000 NA
ATOM      5  C   UNL     1       2.159   4.250  18.042  0.00  0.00    +0.000 C 
ATOM      6  C   UNL     1       2.659   3.319  16.955  0.00  0.00    +0.000 C 
ATOM      7  C   UNL     1       4.009   2.659  17.268  0.00  0.00    +0.000 C 
ATOM      8  C   UNL     1       3.819   1.896  18.588  0.00  0.00    +0.000 C 
ATOM      9  C   UNL     1       3.273   2.722  19.748  0.00  0.00    +0.000 C 
BRANCH   7  10
ATOM     10  N   UNL     1       5.245   3.479  17.146  0.00  0.00    +0.000 NA
ATOM     11  C   UNL     1       5.285   4.234  15.883  0.00  0.00    +0.000 C 
ATOM     12  C   UNL     1       6.539   5.096  15.702  0.00  0.00    +0.000 C 
ATOM     13  C   UNL     1       6.772   6.024  16.893  0.00  0.00    +0.000 C 
ATOM     14  C   UNL     1       5.687   7.099  17.019  0.00  0.00    +0.000 C 
ATOM     15  C   UNL     1       6.871   5.151  18.141  0.00  0.00    +0.000 C 
ATOM     16  C   UNL     1       5.650   4.245  18.325  0.00  0.00    +0.000 C 
ENDBRANCH   7  10
ENDBRANCH   1   4
BRANCH   1  17
ATOM     17  N   UNL     1       2.889   6.022  20.078  0.00  0.00    +0.000 N 
ATOM     18  H   UNL     1       3.564   6.145  20.834  0.00  0.00    +0.000 HD
BRANCH  17  22
ATOM     19  C   UNL     1       1.077   9.702  19.029  0.00  0.00    +0.000 A 
ATOM     20  C   UNL     1       0.969   9.225  20.337  0.00  0.00    +0.000 A 
ATOM     21  C   UNL     1       1.563   8.010  20.699  0.00  0.00    +0.000 A 
ATOM     22  C   UNL     1       2.258   7.268  19.748  0.00  0.00    +0.000 A 
ATOM     23  C   UNL     1       2.322   7.713  18.427  0.00  0.00    +0.000 A 
ATOM     24  C   UNL     1       1.738   8.933  18.069  0.00  0.00    +0.000 A 
BRANCH  19  26
ATOM     25  C   UNL     1       1.215  12.058  19.191  0.00  0.00    +0.000 C 
ATOM     26  O   UNL     1       0.475  10.908  18.794  0.00  0.00    +0.000 OA
ENDBRANCH  19  26
ENDBRANCH  17  22
ENDBRANCH   1  17
TORSDOF 5
ENDMDL
MODEL 4
REMARK VINA RESULT:      -7.4      0.755      1.165
REMARK  Name = 
REMARK  7 active torsions:
REMARK  status: ('A' for Active; 'I' for Inactive)
REMARK    1  A    between atoms: C_1  and  O_2
REMARK    2  A    between atoms: O_2  and  C_3
REMARK    3  A    between atoms: C_6  and  N_7
REMARK    4  A    between atoms: N_7  and  S_8
REMARK    5  A    between atoms: S_8  and  N_11
REMARK    6  A    between atoms: C_14  and  N_15
REMARK    7  A    between atoms: C_18  and  C_19
REMARK                            x       y       z     vdW  Elec       q    Type
REMARK                         _______ _______ _______ _____ _____    ______ ____
ROOT
ATOM      1  S   UNL     1       1.832   4.826  20.607  0.00  0.00    +0.000 S 
ATOM      2  O   UNL     1       2.392   4.328  21.842  0.00  0.00    +0.000 OA
ATOM      3  O   UNL     1       0.460   5.259  20.506  0.00  0.00    +0.000 OA
ENDROOT
BRANCH   1   4
ATOM      4  N   UNL     1       2.136   3.660  19.375  0.00  0.00    +0.000 NA
ATOM      5  C   UNL     1       2.158   4.283  18.024  0.00  0.00    +0.000 C 
ATOM      6  C   UNL     1       2.655   3.360  16.929  0.00  0.00    +0.000 C 
ATOM      7  C   UNL     1       3.999   2.687  17.238  0.00  0.00    +0.000 C 
ATOM      8  C   UNL     1       3.799   1.911  18.549  0.00  0.00    +0.000 C 
ATOM      9  C   UNL     1       3.256   2.730  19.717  0.00  0.00    +0.000 C 
BRANCH   7  10
ATOM     10  N   UNL     1       5.241   3.500  17.128  0.00  0.00    +0.000 NA
ATOM     11  C   UNL     1       5.289   4.269  15.874  0.00  0.00    +0.000 C 
ATOM     12  C   UNL     1       6.549   5.123  15.706  0.00  0.00    +0.000 C 
ATOM     13  C   UNL     1       6.787   6.036  16.908  0.00  0.00    +0.000 C 
ATOM     14  C   UNL     1       5.709   7.117  17.044  0.00  0.00    +0.000 C 
ATOM     15  C   UNL     1       6.876   5.148  18.145  0.00  0.00    +0.000 C 
ATOM     16  C   UNL     1       5.649   4.249  18.317  0.00  0.00    +0.000 C 
ENDBRANCH   7  10
ENDBRANCH   1   4
BRANCH   1  17
ATOM     17  N   UNL     1       2.882   6.036  20.070  0.00  0.00    +0.000 N 
ATOM     18  H   UNL     1       3.548   6.165  20.833  0.00  0.00    +0.000 HD
BRANCH  17  22
ATOM     19  C   UNL     1       0.958   9.691  19.142  0.00  0.00    +0.000 A 
ATOM     20  C   UNL     1       1.668   9.010  18.150  0.00  0.00    +0.000 A 
ATOM     21  C   UNL     1       2.309   7.801  18.442  0.00  0.00    +0.000 A 
ATOM     22  C   UNL     1       2.246   7.276  19.730  0.00  0.00    +0.000 A 
ATOM     23  C   UNL     1       1.585   7.979  20.738  0.00  0.00    +0.000 A 
ATOM     24  C   UNL     1       0.935   9.183  20.442  0.00  0.00    +0.000 A 
BRANCH  19  26
ATOM     25  C   UNL     1      -0.543  11.442  19.673  0.00  0.00    +0.000 C 
ATOM     26  O   UNL     1       0.356  10.851  18.739  0.00  0.00    +0.000 OA
ENDBRANCH  19  26
ENDBRANCH  17  22
ENDBRANCH   1  17
TORSDOF 5
ENDMDL
MODEL 5
REMARK VINA RESULT:      -7.4      1.361      1.761
REMARK  Name = 
REMARK  7 active torsions:
REMARK  status: ('A' for Active; 'I' for Inactive)
REMARK    1  A    between atoms: C_1  and  O_2
REMARK    2  A    between atoms: O_2  and  C_3
REMARK    3  A    between atoms: C_6  and  N_7
REMARK    4  A    between atoms: N_7  and  S_8
REMARK    5  A    between atoms: S_8  and  N_11
REMARK    6  A    between atoms: C_14  and  N_15
REMARK    7  A    between atoms: C_18  and  C_19
REMARK                            x       y       z     vdW  Elec       q    Type
REMARK                         _______ _______ _______ _____ _____    ______ ____
ROOT
ATOM      1  S   UNL     1       1.315   3.573  20.948  0.00  0.00    +0.000 S 
ATOM      2  O   UNL     1       1.154   2.839  22.183  0.00  0.00    +0.000 OA
ATOM      3  O   UNL     1       0.188   4.092  20.212  0.00  0.00    +0.000 OA
ENDROOT
BRANCH   1   4
ATOM      4  N   UNL     1       2.280   2.621  19.884  0.00  0.00    +0.000 NA
ATOM      5  C   UNL     1       1.952   2.891  18.458  0.00  0.00    +0.000 C 
ATOM      6  C   UNL     1       2.925   2.269  17.475  0.00  0.00    +0.000 C 
ATOM      7  C   UNL     1       4.397   2.589  17.763  0.00  0.00    +0.000 C 
ATOM      8  C   UNL     1       4.675   2.087  19.189  0.00  0.00    +0.000 C 
ATOM      9  C   UNL     1       3.727   2.611  20.263  0.00  0.00    +0.000 C 
BRANCH   7  10
ATOM     10  N   UNL     1       4.909   3.945  17.424  0.00  0.00    +0.000 NA
ATOM     11  C   UNL     1       6.339   4.091  17.740  0.00  0.00    +0.000 C 
ATOM     12  C   UNL     1       6.919   5.471  17.414  0.00  0.00    +0.000 C 
ATOM     13  C   UNL     1       6.642   5.881  15.969  0.00  0.00    +0.000 C 
ATOM     14  C   UNL     1       7.383   4.998  14.958  0.00  0.00    +0.000 C 
ATOM     15  C   UNL     1       5.130   5.850  15.767  0.00  0.00    +0.000 C 
ATOM     16  C   UNL     1       4.514   4.496  16.127  0.00  0.00    +0.000 C 
ENDBRANCH   7  10
ENDBRANCH   1   4
BRANCH   1  17
ATOM     17  N   UNL     1       2.432   4.798  21.272  0.00  0.00    +0.000 N 
ATOM     18  H   UNL     1       2.294   5.028  22.257  0.00  0.00    +0.000 HD
BRANCH  17  22
ATOM     19  C   UNL     1       1.974   8.272  18.897  0.00  0.00    +0.000 A 
ATOM     20  C   UNL     1       2.716   7.194  18.410  0.00  0.00    +0.000 A 
ATOM     21  C   UNL     1       2.876   6.038  19.184  0.00  0.00    +0.000 A 
ATOM     22  C   UNL     1       2.300   5.966  20.449  0.00  0.00    +0.000 A 
ATOM     23  C   UNL     1       1.604   7.061  20.962  0.00  0.00    +0.000 A 
ATOM     24  C   UNL     1       1.435   8.211  20.183  0.00  0.00    +0.000 A 
BRANCH  19  26
ATOM     25  C   UNL     1       0.960  10.362  18.447  0.00  0.00    +0.000 C 
ATOM     26  O   UNL     1       1.867   9.339  18.048  0.00  0.00    +0.000 OA
ENDBRANCH  19  26
ENDBRANCH  17  22
ENDBRANCH   1  17
TORSDOF 5
ENDMDL
MODEL 6
REMARK VINA RESULT:      -6.9      2.205      6.761
REMARK  Name = 
REMARK  7 active torsions:
REMARK  status: ('A' for Active; 'I' for Inactive)
REMARK    1  A    between atoms: C_1  and  O_2
REMARK    2  A    between atoms: O_2  and  C_3
REMARK    3  A    between atoms: C_6  and  N_7
REMARK    4  A    between atoms: N_7  and  S_8
REMARK    5  A    between atoms: S_8  and  N_11
REMARK    6  A    between atoms: C_14  and  N_15
REMARK    7  A    between atoms: C_18  and  C_19
REMARK                            x       y       z     vdW  Elec       q    Type
REMARK                         _______ _______ _______ _____ _____    ______ ____
ROOT
ATOM      1  S   UNL     1       1.549   4.200  18.921  0.00  0.00    +0.000 S 
ATOM      2  O   UNL     1       1.203   4.164  17.518  0.00  0.00    +0.000 OA
ATOM      3  O   UNL     1       0.588   3.901  19.955  0.00  0.00    +0.000 OA
ENDROOT
BRANCH   1   4
ATOM      4  N   UNL     1       2.264   5.732  19.256  0.00  0.00    +0.000 NA
ATOM      5  C   UNL     1       2.308   6.593  18.043  0.00  0.00    +0.000 C 
ATOM      6  C   UNL     1       2.702   8.030  18.323  0.00  0.00    +0.000 C 
ATOM      7  C   UNL     1       1.883   8.699  19.434  0.00  0.00    +0.000 C 
ATOM      8  C   UNL     1       2.072   7.833  20.689  0.00  0.00    +0.000 C 
ATOM      9  C   UNL     1       1.749   6.352  20.515  0.00  0.00    +0.000 C 
BRANCH   7  10
ATOM     10  N   UNL     1       0.492   9.132  19.127  0.00  0.00    +0.000 NA
ATOM     11  C   UNL     1      -0.036  10.055  20.143  0.00  0.00    +0.000 C 
ATOM     12  C   UNL     1      -1.468  10.532  19.880  0.00  0.00    +0.000 C 
ATOM     13  C   UNL     1      -1.626  11.123  18.480  0.00  0.00    +0.000 C 
ATOM     14  C   UNL     1      -0.841  12.427  18.303  0.00  0.00    +0.000 C 
ATOM     15  C   UNL     1      -1.203  10.050  17.481  0.00  0.00    +0.000 C 
ATOM     16  C   UNL     1       0.210   9.522  17.745  0.00  0.00    +0.000 C 
ENDBRANCH   7  10
ENDBRANCH   1   4
BRANCH   1  17
ATOM     17  N   UNL     1       2.927   3.238  19.090  0.00  0.00    +0.000 N 
ATOM     18  H   UNL     1       3.130   3.241  20.091  0.00  0.00    +0.000 HD
BRANCH  17  22
ATOM     19  C   UNL     1       6.310   4.586  16.932  0.00  0.00    +0.000 A 
ATOM     20  C   UNL     1       5.260   3.960  16.255  0.00  0.00    +0.000 A 
ATOM     21  C   UNL     1       4.135   3.510  16.954  0.00  0.00    +0.000 A 
ATOM     22  C   UNL     1       4.064   3.678  18.335  0.00  0.00    +0.000 A 
ATOM     23  C   UNL     1       5.134   4.252  19.024  0.00  0.00    +0.000 A 
ATOM     24  C   UNL     1       6.253   4.712  18.321  0.00  0.00    +0.000 A 
BRANCH  19  26
ATOM     25  C   UNL     1       7.155   4.869  14.740  0.00  0.00    +0.000 C 
ATOM     26  O   UNL     1       7.348   5.003  16.144  0.00  0.00    +0.000 OA
ENDBRANCH  19  26
ENDBRANCH  17  22
ENDBRANCH   1  17
TORSDOF 5
ENDMDL
MODEL 7
REMARK VINA RESULT:      -6.9      4.214      7.549
REMARK  Name = 
REMARK  7 active torsions:
REMARK  status: ('A' for Active; 'I' for Inactive)
REMARK    1  A    between atoms: C_1  and  O_2
REMARK    2  A    between atoms: O_2  and  C_3
REMARK    3  A    between atoms: C_6  and  N_7
REMARK    4  A    between atoms: N_7  and  S_8
REMARK    5  A    between atoms: S_8  and  N_11
REMARK    6  A    between atoms: C_14  and  N_15
REMARK    7  A    between atoms: C_18  and  C_19
REMARK                            x       y       z     vdW  Elec       q    Type
REMARK                         _______ _______ _______ _____ _____    ______ ____
ROOT
ATOM      1  S   UNL     1       6.781   5.925  16.540  0.00  0.00    +0.000 S 
ATOM      2  O   UNL     1       7.027   4.520  16.771  0.00  0.00    +0.000 OA
ATOM      3  O   UNL     1       7.852   6.890  16.470  0.00  0.00    +0.000 OA
ENDROOT
BRANCH   1   4
ATOM      4  N   UNL     1       5.626   6.464  17.700  0.00  0.00    +0.000 NA
ATOM      5  C   UNL     1       4.340   6.847  17.056  0.00  0.00    +0.000 C 
ATOM      6  C   UNL     1       3.212   7.098  18.037  0.00  0.00    +0.000 C 
ATOM      7  C   UNL     1       2.996   5.964  19.047  0.00  0.00    +0.000 C 
ATOM      8  C   UNL     1       4.330   5.791  19.791  0.00  0.00    +0.000 C 
ATOM      9  C   UNL     1       5.551   5.576  18.901  0.00  0.00    +0.000 C 
BRANCH   7  10
ATOM     10  N   UNL     1       2.326   4.718  18.584  0.00  0.00    +0.000 NA
ATOM     11  C   UNL     1       3.044   4.089  17.464  0.00  0.00    +0.000 C 
ATOM     12  C   UNL     1       2.396   2.802  16.942  0.00  0.00    +0.000 C 
ATOM     13  C   UNL     1       2.151   1.792  18.062  0.00  0.00    +0.000 C 
ATOM     14  C   UNL     1       3.455   1.249  18.657  0.00  0.00    +0.000 C 
ATOM     15  C   UNL     1       1.274   2.473  19.108  0.00  0.00    +0.000 C 
ATOM     16  C   UNL     1       1.875   3.786  19.617  0.00  0.00    +0.000 C 
ENDBRANCH   7  10
ENDBRANCH   1   4
BRANCH   1  17
ATOM     17  N   UNL     1       5.809   6.011  15.161  0.00  0.00    +0.000 N 
ATOM     18  H   UNL     1       4.859   5.851  15.497  0.00  0.00    +0.000 HD
BRANCH  17  22
ATOM     19  C   UNL     1       6.875   3.317  12.073  0.00  0.00    +0.000 A 
ATOM     20  C   UNL     1       5.694   3.116  12.791  0.00  0.00    +0.000 A 
ATOM     21  C   UNL     1       5.328   3.997  13.815  0.00  0.00    +0.000 A 
ATOM     22  C   UNL     1       6.150   5.078  14.125  0.00  0.00    +0.000 A 
ATOM     23  C   UNL     1       7.358   5.252  13.449  0.00  0.00    +0.000 A 
ATOM     24  C   UNL     1       7.717   4.376  12.418  0.00  0.00    +0.000 A 
BRANCH  19  26
ATOM     25  C   UNL     1       6.375   1.194  11.155  0.00  0.00    +0.000 C 
ATOM     26  O   UNL     1       7.121   2.405  11.084  0.00  0.00    +0.000 OA
ENDBRANCH  19  26
ENDBRANCH  17  22
ENDBRANCH   1  17
TORSDOF 5
ENDMDL
MODEL 8
REMARK VINA RESULT:      -6.9      4.851     10.046
REMARK  Name = 
REMARK  7 active torsions:
REMARK  status: ('A' for Active; 'I' for Inactive)
REMARK    1  A    between atoms: C_1  and  O_2
REMARK    2  A    between atoms: O_2  and  C_3
REMARK    3  A    between atoms: C_6  and  N_7
REMARK    4  A    between atoms: N_7  and  S_8
REMARK    5  A    between atoms: S_8  and  N_11
REMARK    6  A    between atoms: C_14  and  N_15
REMARK    7  A    between atoms: C_18  and  C_19
REMARK                            x       y       z     vdW  Elec       q    Type
REMARK                         _______ _______ _______ _____ _____    ______ ____
ROOT
ATOM      1  S   UNL     1      -0.095  11.447  21.927  0.00  0.00    +0.000 S 
ATOM      2  O   UNL     1      -0.102  10.567  23.073  0.00  0.00    +0.000 OA
ATOM      3  O   UNL     1       1.081  12.184  21.533  0.00  0.00    +0.000 OA
ENDROOT
BRANCH   1   4
ATOM      4  N   UNL     1      -1.410  12.550  22.093  0.00  0.00    +0.000 NA
ATOM      5  C   UNL     1      -1.743  13.204  20.798  0.00  0.00    +0.000 C 
ATOM      6  C   UNL     1      -3.034  13.997  20.825  0.00  0.00    +0.000 C 
ATOM      7  C   UNL     1      -4.239  13.216  21.363  0.00  0.00    +0.000 C 
ATOM      8  C   UNL     1      -3.857  12.759  22.780  0.00  0.00    +0.000 C 
ATOM      9  C   UNL     1      -2.545  11.987  22.886  0.00  0.00    +0.000 C 
BRANCH   7  10
ATOM     10  N   UNL     1      -4.874  12.196  20.485  0.00  0.00    +0.000 NA
ATOM     11  C   UNL     1      -6.327  12.110  20.699  0.00  0.00    +0.000 C 
ATOM     12  C   UNL     1      -7.034  11.072  19.822  0.00  0.00    +0.000 C 
ATOM     13  C   UNL     1      -6.718  11.266  18.339  0.00  0.00    +0.000 C 
ATOM     14  C   UNL     1      -7.298  12.571  17.783  0.00  0.00    +0.000 C 
ATOM     15  C   UNL     1      -5.203  11.190  18.181  0.00  0.00    +0.000 C 
ATOM     16  C   UNL     1      -4.466  12.187  19.080  0.00  0.00    +0.000 C 
ENDBRANCH   7  10
ENDBRANCH   1   4
BRANCH   1  17
ATOM     17  N   UNL     1      -0.692  10.538  20.635  0.00  0.00    +0.000 N 
ATOM     18  H   UNL     1      -1.445   9.975  21.032  0.00  0.00    +0.000 HD
BRANCH  17  22
ATOM     19  C   UNL     1       2.205   8.062  18.791  0.00  0.00    +0.000 A 
ATOM     20  C   UNL     1       1.568   9.057  18.046  0.00  0.00    +0.000 A 
ATOM     21  C   UNL     1       0.609   9.884  18.641  0.00  0.00    +0.000 A 
ATOM     22  C   UNL     1       0.279   9.709  19.982  0.00  0.00    +0.000 A 
ATOM     23  C   UNL     1       0.871   8.680  20.718  0.00  0.00    +0.000 A 
ATOM     24  C   UNL     1       1.839   7.862  20.124  0.00  0.00    +0.000 A 
BRANCH  19  26
ATOM     25  C   UNL     1       2.909   5.924  18.063  0.00  0.00    +0.000 C 
ATOM     26  O   UNL     1       3.138   7.329  18.112  0.00  0.00    +0.000 OA
ENDBRANCH  19  26
ENDBRANCH  17  22
ENDBRANCH   1  17
TORSDOF 5
ENDMDL
MODEL 9
REMARK VINA RESULT:      -6.8      4.263      7.621
REMARK  Name = 
REMARK  7 active torsions:
REMARK  status: ('A' for Active; 'I' for Inactive)
REMARK    1  A    between atoms: C_1  and  O_2
REMARK    2  A    between atoms: O_2  and  C_3
REMARK    3  A    between atoms: C_6  and  N_7
REMARK    4  A    between atoms: N_7  and  S_8
REMARK    5  A    between atoms: S_8  and  N_11
REMARK    6  A    between atoms: C_14  and  N_15
REMARK    7  A    between atoms: C_18  and  C_19
REMARK                            x       y       z     vdW  Elec       q    Type
REMARK                         _______ _______ _______ _____ _____    ______ ____
ROOT
ATOM      1  S   UNL     1       6.818   5.842  16.445  0.00  0.00    +0.000 S 
ATOM      2  O   UNL     1       6.969   4.435  16.736  0.00  0.00    +0.000 OA
ATOM      3  O   UNL     1       7.951   6.729  16.337  0.00  0.00    +0.000 OA
ENDROOT
BRANCH   1   4
ATOM      4  N   UNL     1       5.703   6.506  17.580  0.00  0.00    +0.000 NA
ATOM      5  C   UNL     1       4.455   6.969  16.915  0.00  0.00    +0.000 C 
ATOM      6  C   UNL     1       3.345   7.338  17.880  0.00  0.00    +0.000 C 
ATOM      7  C   UNL     1       3.035   6.256  18.923  0.00  0.00    +0.000 C 
ATOM      8  C   UNL     1       4.348   6.001  19.680  0.00  0.00    +0.000 C 
ATOM      9  C   UNL     1       5.552   5.665  18.807  0.00  0.00    +0.000 C 
BRANCH   7  10
ATOM     10  N   UNL     1       2.272   5.053  18.492  0.00  0.00    +0.000 NA
ATOM     11  C   UNL     1       3.013   4.252  17.505  0.00  0.00    +0.000 C 
ATOM     12  C   UNL     1       2.272   3.001  17.023  0.00  0.00    +0.000 C 
ATOM     13  C   UNL     1       1.807   2.127  18.187  0.00  0.00    +0.000 C 
ATOM     14  C   UNL     1       2.978   1.503  18.955  0.00  0.00    +0.000 C 
ATOM     15  C   UNL     1       0.921   2.991  19.080  0.00  0.00    +0.000 C 
ATOM     16  C   UNL     1       1.620   4.272  19.543  0.00  0.00    +0.000 C 
ENDBRANCH   7  10
ENDBRANCH   1   4
BRANCH   1  17
ATOM     17  N   UNL     1       5.853   5.936  15.062  0.00  0.00    +0.000 N 
ATOM     18  H   UNL     1       4.898   5.795  15.396  0.00  0.00    +0.000 HD
BRANCH  17  22
ATOM     19  C   UNL     1       6.753   3.090  12.060  0.00  0.00    +0.000 A 
ATOM     20  C   UNL     1       7.663   4.112  12.341  0.00  0.00    +0.000 A 
ATOM     21  C   UNL     1       7.380   5.060  13.331  0.00  0.00    +0.000 A 
ATOM     22  C   UNL     1       6.180   4.990  14.034  0.00  0.00    +0.000 A 
ATOM     23  C   UNL     1       5.243   4.004  13.720  0.00  0.00    +0.000 A 
ATOM     24  C   UNL     1       5.534   3.050  12.738  0.00  0.00    +0.000 A 
BRANCH  19  26
ATOM     25  C   UNL     1       6.447   0.968  11.059  0.00  0.00    +0.000 C 
ATOM     26  O   UNL     1       7.144   2.210  11.089  0.00  0.00    +0.000 OA
ENDBRANCH  19  26
ENDBRANCH  17  22
ENDBRANCH   1  17
TORSDOF 5
ENDMDL
