MODEL 1
REMARK VINA RESULT:      -7.1      0.000      0.000
REMARK  Name = 
REMARK  4 active torsions:
REMARK  status: ('A' for Active; 'I' for Inactive)
REMARK    1  A    between atoms: C_1  and  O_2
REMARK    2  A    between atoms: O_2  and  C_3
REMARK    3  A    between atoms: C_3  and  C_5
REMARK    4  A    between atoms: C_11  and  C_12
REMARK                            x       y       z     vdW  Elec       q    Type
REMARK                         _______ _______ _______ _____ _____    ______ ____
ROOT
ATOM      1  C   UNL     1       4.025   4.766  19.229  0.00  0.00    +0.000 C 
ATOM      2  C   UNL     1       4.225   3.241  19.238  0.00  0.00    +0.000 C 
ATOM      3  C   UNL     1       3.368   2.579  20.343  0.00  0.00    +0.000 C 
ATOM      4  C   UNL     1       2.032   2.118  19.744  0.00  0.00    +0.000 C 
ATOM      5  C   UNL     1       1.837   2.842  18.412  0.00  0.00    +0.000 C 
ATOM      6  C   UNL     1       1.558   4.355  18.629  0.00  0.00    +0.000 C 
ATOM      7  C   UNL     1       2.792   5.263  18.411  0.00  0.00    +0.000 C 
ATOM      8  S   UNL     1       3.493   2.526  17.739  0.00  0.00    +0.000 S 
ENDROOT
BRANCH   7   9
ATOM      9  C   UNL     1       2.596   6.755  18.671  0.00  0.00    +0.000 A 
ATOM     10  C   UNL     1       2.590   7.704  17.641  0.00  0.00    +0.000 A 
ATOM     11  C   UNL     1       2.033   8.969  17.859  0.00  0.00    +0.000 A 
ATOM     12  C   UNL     1       1.500   9.295  19.105  0.00  0.00    +0.000 A 
ATOM     13 CL   UNL     1       0.659  10.780  19.321  0.00  0.00    +0.000 Cl
ATOM     14  C   UNL     1       1.591   8.399  20.165  0.00  0.00    +0.000 A 
ATOM     15  C   UNL     1       2.153   7.143  19.951  0.00  0.00    +0.000 A 
ENDBRANCH   7   9
BRANCH   1  16
ATOM     16  C   UNL     1       5.300   5.406  18.702  0.00  0.00    +0.000 C 
ATOM     17  O   UNL     1       5.488   5.772  17.545  0.00  0.00    +0.000 OA
BRANCH  16  19
ATOM     18  C   UNL     1       7.547   5.764  19.271  0.00  0.00    +0.000 C 
ATOM     19  O   UNL     1       6.208   5.531  19.713  0.00  0.00    +0.000 OA
ENDBRANCH  16  19
ENDBRANCH   1  16
TORSDOF 3
ENDMDL
MODEL 2
REMARK VINA RESULT:      -6.9      0.970      1.037
REMARK  Name = 
REMARK  4 active torsions:
REMARK  status: ('A' for Active; 'I' for Inactive)
REMARK    1  A    between atoms: C_1  and  O_2
REMARK    2  A    between atoms: O_2  and  C_3
REMARK    3  A    between atoms: C_3  and  C_5
REMARK    4  A    between atoms: C_11  and  C_12
REMARK                            x       y       z     vdW  Elec       q    Type
REMARK                         _______ _______ _______ _____ _____    ______ ____
ROOT
ATOM      1  C   UNL     1       3.535   4.515  19.822  0.00  0.00    +0.000 C 
ATOM      2  C   UNL     1       3.533   3.013  20.150  0.00  0.00    +0.000 C 
ATOM      3  C   UNL     1       2.874   2.749  21.525  0.00  0.00    +0.000 C 
ATOM      4  C   UNL     1       1.388   2.421  21.323  0.00  0.00    +0.000 C 
ATOM      5  C   UNL     1       0.988   2.883  19.921  0.00  0.00    +0.000 C 
ATOM      6  C   UNL     1       0.964   4.434  19.826  0.00  0.00    +0.000 C 
ATOM      7  C   UNL     1       2.222   5.047  19.166  0.00  0.00    +0.000 C 
ATOM      8  S   UNL     1       2.392   2.150  19.033  0.00  0.00    +0.000 S 
ENDROOT
BRANCH   7   9
ATOM      9  C   UNL     1       2.284   6.571  19.100  0.00  0.00    +0.000 A 
ATOM     10  C   UNL     1       2.473   7.265  17.898  0.00  0.00    +0.000 A 
ATOM     11  C   UNL     1       2.142   8.623  17.816  0.00  0.00    +0.000 A 
ATOM     12  C   UNL     1       1.641   9.291  18.933  0.00  0.00    +0.000 A 
ATOM     13 CL   UNL     1       1.070  10.907  18.784  0.00  0.00    +0.000 Cl
ATOM     14  C   UNL     1       1.545   8.640  20.157  0.00  0.00    +0.000 A 
ATOM     15  C   UNL     1       1.883   7.291  20.243  0.00  0.00    +0.000 A 
ENDBRANCH   7   9
BRANCH   1  16
ATOM     16  C   UNL     1       4.727   4.801  18.921  0.00  0.00    +0.000 C 
ATOM     17  O   UNL     1       4.783   4.567  17.718  0.00  0.00    +0.000 OA
BRANCH  16  19
ATOM     18  C   UNL     1       6.938   5.584  18.914  0.00  0.00    +0.000 C 
ATOM     19  O   UNL     1       5.729   5.374  19.648  0.00  0.00    +0.000 OA
ENDBRANCH  16  19
ENDBRANCH   1  16
TORSDOF 3
ENDMDL
MODEL 3
REMARK VINA RESULT:      -6.8      2.108      3.781
REMARK  Name = 
REMARK  4 active torsions:
REMARK  status: ('A' for Active; 'I' for Inactive)
REMARK    1  A    between atoms: C_1  and  O_2
REMARK    2  A    between atoms: O_2  and  C_3
REMARK    3  A    between atoms: C_3  and  C_5
REMARK    4  A    between atoms: C_11  and  C_12
REMARK                            x       y       z     vdW  Elec       q    Type
REMARK                         _______ _______ _______ _____ _____    ______ ____
ROOT
ATOM      1  C   UNL     1       3.438   4.966  17.679  0.00  0.00    +0.000 C 
ATOM      2  C   UNL     1       4.527   4.051  17.093  0.00  0.00    +0.000 C 
ATOM      3  C   UNL     1       4.818   4.415  15.618  0.00  0.00    +0.000 C 
ATOM      4  C   UNL     1       6.000   5.391  15.557  0.00  0.00    +0.000 C 
ATOM      5  C   UNL     1       6.192   5.988  16.952  0.00  0.00    +0.000 C 
ATOM      6  C   UNL     1       5.029   6.953  17.315  0.00  0.00    +0.000 C 
ATOM      7  C   UNL     1       3.954   6.330  18.237  0.00  0.00    +0.000 C 
ATOM      8  S   UNL     1       6.119   4.428  17.877  0.00  0.00    +0.000 S 
ENDROOT
BRANCH   7   9
ATOM      9  C   UNL     1       2.754   7.210  18.578  0.00  0.00    +0.000 A 
ATOM     10  C   UNL     1       2.227   7.295  19.873  0.00  0.00    +0.000 A 
ATOM     11  C   UNL     1       1.407   8.372  20.225  0.00  0.00    +0.000 A 
ATOM     12  C   UNL     1       1.097   9.353  19.284  0.00  0.00    +0.000 A 
ATOM     13 CL   UNL     1       0.238  10.765  19.763  0.00  0.00    +0.000 Cl
ATOM     14  C   UNL     1       1.529   9.227  17.968  0.00  0.00    +0.000 A 
ATOM     15  C   UNL     1       2.339   8.151  17.615  0.00  0.00    +0.000 A 
ENDBRANCH   7   9
BRANCH   1  16
ATOM     16  C   UNL     1       2.708   4.194  18.768  0.00  0.00    +0.000 C 
ATOM     17  O   UNL     1       3.166   3.913  19.871  0.00  0.00    +0.000 OA
BRANCH  16  19
ATOM     18  C   UNL     1       1.056   2.533  18.658  0.00  0.00    +0.000 C 
ATOM     19  O   UNL     1       1.452   3.870  18.342  0.00  0.00    +0.000 OA
ENDBRANCH  16  19
ENDBRANCH   1  16
TORSDOF 3
ENDMDL
MODEL 4
REMARK VINA RESULT:      -6.7      1.999      3.554
REMARK  Name = 
REMARK  4 active torsions:
REMARK  status: ('A' for Active; 'I' for Inactive)
REMARK    1  A    between atoms: C_1  and  O_2
REMARK    2  A    between atoms: O_2  and  C_3
REMARK    3  A    between atoms: C_3  and  C_5
REMARK    4  A    between atoms: C_11  and  C_12
REMARK                            x       y       z     vdW  Elec       q    Type
REMARK                         _______ _______ _______ _____ _____    ______ ____
ROOT
ATOM      1  C   UNL     1       3.031   4.895  17.803  0.00  0.00    +0.000 C 
ATOM      2  C   UNL     1       4.021   3.743  17.561  0.00  0.00    +0.000 C 
ATOM      3  C   UNL     1       5.239   4.225  16.740  0.00  0.00    +0.000 C 
ATOM      4  C   UNL     1       6.372   4.625  17.696  0.00  0.00    +0.000 C 
ATOM      5  C   UNL     1       5.770   4.817  19.088  0.00  0.00    +0.000 C 
ATOM      6  C   UNL     1       4.875   6.086  19.143  0.00  0.00    +0.000 C 
ATOM      7  C   UNL     1       3.359   5.797  19.035  0.00  0.00    +0.000 C 
ATOM      8  S   UNL     1       4.805   3.279  19.130  0.00  0.00    +0.000 S 
ENDROOT
BRANCH   7   9
ATOM      9  C   UNL     1       2.432   7.009  19.020  0.00  0.00    +0.000 A 
ATOM     10  C   UNL     1       1.794   7.483  20.174  0.00  0.00    +0.000 A 
ATOM     11  C   UNL     1       1.283   8.786  20.205  0.00  0.00    +0.000 A 
ATOM     12  C   UNL     1       1.390   9.608  19.084  0.00  0.00    +0.000 A 
ATOM     13 CL   UNL     1       0.923  11.261  19.180  0.00  0.00    +0.000 Cl
ATOM     14  C   UNL     1       1.929   9.115  17.900  0.00  0.00    +0.000 A 
ATOM     15  C   UNL     1       2.430   7.816  17.865  0.00  0.00    +0.000 A 
ENDBRANCH   7   9
BRANCH   1  16
ATOM     16  C   UNL     1       1.638   4.300  17.941  0.00  0.00    +0.000 C 
ATOM     17  O   UNL     1       0.771   4.307  17.073  0.00  0.00    +0.000 OA
BRANCH  16  19
ATOM     18  C   UNL     1       0.829   2.474  19.170  0.00  0.00    +0.000 C 
ATOM     19  O   UNL     1       1.495   3.739  19.176  0.00  0.00    +0.000 OA
ENDBRANCH  16  19
ENDBRANCH   1  16
TORSDOF 3
ENDMDL
MODEL 5
REMARK VINA RESULT:      -6.7      2.143      3.591
REMARK  Name = 
REMARK  4 active torsions:
REMARK  status: ('A' for Active; 'I' for Inactive)
REMARK    1  A    between atoms: C_1  and  O_2
REMARK    2  A    between atoms: O_2  and  C_3
REMARK    3  A    between atoms: C_3  and  C_5
REMARK    4  A    between atoms: C_11  and  C_12
REMARK                            x       y       z     vdW  Elec       q    Type
REMARK                         _______ _______ _______ _____ _____    ______ ____
ROOT
ATOM      1  C   UNL     1       3.753   4.853  17.436  0.00  0.00    +0.000 C 
ATOM      2  C   UNL     1       4.868   4.001  16.805  0.00  0.00    +0.000 C 
ATOM      3  C   UNL     1       5.137   4.436  15.345  0.00  0.00    +0.000 C 
ATOM      4  C   UNL     1       6.286   5.454  15.320  0.00  0.00    +0.000 C 
ATOM      5  C   UNL     1       6.467   5.997  16.737  0.00  0.00    +0.000 C 
ATOM      6  C   UNL     1       5.276   6.906  17.148  0.00  0.00    +0.000 C 
ATOM      7  C   UNL     1       4.228   6.209  18.048  0.00  0.00    +0.000 C 
ATOM      8  S   UNL     1       6.453   4.397  17.595  0.00  0.00    +0.000 S 
ENDROOT
BRANCH   7   9
ATOM      9  C   UNL     1       3.002   7.033  18.432  0.00  0.00    +0.000 A 
ATOM     10  C   UNL     1       2.458   7.015  19.723  0.00  0.00    +0.000 A 
ATOM     11  C   UNL     1       1.606   8.045  20.137  0.00  0.00    +0.000 A 
ATOM     12  C   UNL     1       1.281   9.081  19.261  0.00  0.00    +0.000 A 
ATOM     13 CL   UNL     1       0.380  10.434  19.825  0.00  0.00    +0.000 Cl
ATOM     14  C   UNL     1       1.732   9.057  17.947  0.00  0.00    +0.000 A 
ATOM     15  C   UNL     1       2.573   8.027  17.531  0.00  0.00    +0.000 A 
ENDBRANCH   7   9
BRANCH   1  16
ATOM     16  C   UNL     1       3.057   4.012  18.494  0.00  0.00    +0.000 C 
ATOM     17  O   UNL     1       1.923   3.550  18.405  0.00  0.00    +0.000 OA
BRANCH  16  19
ATOM     18  C   UNL     1       3.910   2.492  20.063  0.00  0.00    +0.000 C 
ATOM     19  O   UNL     1       3.888   3.830  19.561  0.00  0.00    +0.000 OA
ENDBRANCH  16  19
ENDBRANCH   1  16
TORSDOF 3
ENDMDL
MODEL 6
REMARK VINA RESULT:      -6.6      0.896      1.320
REMARK  Name = 
REMARK  4 active torsions:
REMARK  status: ('A' for Active; 'I' for Inactive)
REMARK    1  A    between atoms: C_1  and  O_2
REMARK    2  A    between atoms: O_2  and  C_3
REMARK    3  A    between atoms: C_3  and  C_5
REMARK    4  A    between atoms: C_11  and  C_12
REMARK                            x       y       z     vdW  Elec       q    Type
REMARK                         _______ _______ _______ _____ _____    ______ ____
ROOT
ATOM      1  C   UNL     1       3.981   4.906  18.779  0.00  0.00    +0.000 C 
ATOM      2  C   UNL     1       4.242   3.392  18.698  0.00  0.00    +0.000 C 
ATOM      3  C   UNL     1       3.811   2.687  20.006  0.00  0.00    +0.000 C 
ATOM      4  C   UNL     1       2.376   2.164  19.854  0.00  0.00    +0.000 C 
ATOM      5  C   UNL     1       1.735   2.880  18.665  0.00  0.00    +0.000 C 
ATOM      6  C   UNL     1       1.472   4.378  18.986  0.00  0.00    +0.000 C 
ATOM      7  C   UNL     1       2.531   5.345  18.404  0.00  0.00    +0.000 C 
ATOM      8  S   UNL     1       3.105   2.646  17.497  0.00  0.00    +0.000 S 
ENDROOT
BRANCH   7   9
ATOM      9  C   UNL     1       2.361   6.824  18.738  0.00  0.00    +0.000 A 
ATOM     10  C   UNL     1       2.253   7.812  17.750  0.00  0.00    +0.000 A 
ATOM     11  C   UNL     1       1.719   9.066  18.070  0.00  0.00    +0.000 A 
ATOM     12  C   UNL     1       1.312   9.342  19.374  0.00  0.00    +0.000 A 
ATOM     13 CL   UNL     1       0.496  10.815  19.728  0.00  0.00    +0.000 Cl
ATOM     14  C   UNL     1       1.508   8.407  20.385  0.00  0.00    +0.000 A 
ATOM     15  C   UNL     1       2.047   7.162  20.069  0.00  0.00    +0.000 A 
ENDBRANCH   7   9
BRANCH   1  16
ATOM     16  C   UNL     1       4.993   5.608  17.886  0.00  0.00    +0.000 C 
ATOM     17  O   UNL     1       6.019   6.160  18.269  0.00  0.00    +0.000 OA
BRANCH  16  19
ATOM     18  C   UNL     1       5.678   5.442  15.649  0.00  0.00    +0.000 C 
ATOM     19  O   UNL     1       4.598   5.520  16.583  0.00  0.00    +0.000 OA
ENDBRANCH  16  19
ENDBRANCH   1  16
TORSDOF 3
ENDMDL
MODEL 7
REMARK VINA RESULT:      -6.6      2.056      3.382
REMARK  Name = 
REMARK  4 active torsions:
REMARK  status: ('A' for Active; 'I' for Inactive)
REMARK    1  A    between atoms: C_1  and  O_2
REMARK    2  A    between atoms: O_2  and  C_3
REMARK    3  A    between atoms: C_3  and  C_5
REMARK    4  A    between atoms: C_11  and  C_12
REMARK                            x       y       z     vdW  Elec       q    Type
REMARK                         _______ _______ _______ _____ _____    ______ ____
ROOT
ATOM      1  C   UNL     1       2.696   4.897  18.541  0.00  0.00    +0.000 C 
ATOM      2  C   UNL     1       3.662   3.756  18.175  0.00  0.00    +0.000 C 
ATOM      3  C   UNL     1       4.030   3.805  16.674  0.00  0.00    +0.000 C 
ATOM      4  C   UNL     1       5.336   4.592  16.495  0.00  0.00    +0.000 C 
ATOM      5  C   UNL     1       5.579   5.401  17.769  0.00  0.00    +0.000 C 
ATOM      6  C   UNL     1       4.553   6.559  17.904  0.00  0.00    +0.000 C 
ATOM      7  C   UNL     1       3.383   6.259  18.872  0.00  0.00    +0.000 C 
ATOM      8  S   UNL     1       5.275   4.056  18.951  0.00  0.00    +0.000 S 
ENDROOT
BRANCH   7   9
ATOM      9  C   UNL     1       2.308   7.336  18.998  0.00  0.00    +0.000 A 
ATOM     10  C   UNL     1       1.799   7.748  20.236  0.00  0.00    +0.000 A 
ATOM     11  C   UNL     1       1.125   8.971  20.343  0.00  0.00    +0.000 A 
ATOM     12  C   UNL     1       0.944   9.771  19.215  0.00  0.00    +0.000 A 
ATOM     13 CL   UNL     1       0.276  11.349  19.379  0.00  0.00    +0.000 Cl
ATOM     14  C   UNL     1       1.355   9.327  17.964  0.00  0.00    +0.000 A 
ATOM     15  C   UNL     1       2.017   8.106  17.856  0.00  0.00    +0.000 A 
ENDBRANCH   7   9
BRANCH   1  16
ATOM     16  C   UNL     1       1.845   4.437  19.715  0.00  0.00    +0.000 C 
ATOM     17  O   UNL     1       0.671   4.088  19.650  0.00  0.00    +0.000 OA
BRANCH  16  19
ATOM     18  C   UNL     1       2.289   3.390  21.767  0.00  0.00    +0.000 C 
ATOM     19  O   UNL     1       2.588   4.454  20.860  0.00  0.00    +0.000 OA
ENDBRANCH  16  19
ENDBRANCH   1  16
TORSDOF 3
ENDMDL
MODEL 8
REMARK VINA RESULT:      -6.4      3.016      5.149
REMARK  Name = 
REMARK  4 active torsions:
REMARK  status: ('A' for Active; 'I' for Inactive)
REMARK    1  A    between atoms: C_1  and  O_2
REMARK    2  A    between atoms: O_2  and  C_3
REMARK    3  A    between atoms: C_3  and  C_5
REMARK    4  A    between atoms: C_11  and  C_12
REMARK                            x       y       z     vdW  Elec       q    Type
REMARK                         _______ _______ _______ _____ _____    ______ ____
ROOT
ATOM      1  C   UNL     1       4.709   5.799  17.921  0.00  0.00    +0.000 C 
ATOM      2  C   UNL     1       5.638   6.649  17.038  0.00  0.00    +0.000 C 
ATOM      3  C   UNL     1       7.078   6.086  17.049  0.00  0.00    +0.000 C 
ATOM      4  C   UNL     1       7.266   5.142  15.852  0.00  0.00    +0.000 C 
ATOM      5  C   UNL     1       5.881   4.757  15.333  0.00  0.00    +0.000 C 
ATOM      6  C   UNL     1       5.145   3.824  16.333  0.00  0.00    +0.000 C 
ATOM      7  C   UNL     1       4.101   4.543  17.220  0.00  0.00    +0.000 C 
ATOM      8  S   UNL     1       5.181   6.432  15.295  0.00  0.00    +0.000 S 
ENDROOT
BRANCH   7   9
ATOM      9  C   UNL     1       3.389   3.690  18.266  0.00  0.00    +0.000 A 
ATOM     10  C   UNL     1       4.061   3.119  19.355  0.00  0.00    +0.000 A 
ATOM     11  C   UNL     1       3.339   2.687  20.473  0.00  0.00    +0.000 A 
ATOM     12  C   UNL     1       1.950   2.806  20.499  0.00  0.00    +0.000 A 
ATOM     13 CL   UNL     1       1.082   2.441  21.939  0.00  0.00    +0.000 Cl
ATOM     14  C   UNL     1       1.264   3.276  19.385  0.00  0.00    +0.000 A 
ATOM     15  C   UNL     1       1.981   3.698  18.269  0.00  0.00    +0.000 A 
ENDBRANCH   7   9
BRANCH   1  16
ATOM     16  C   UNL     1       3.600   6.699  18.445  0.00  0.00    +0.000 C 
ATOM     17  O   UNL     1       3.062   6.602  19.543  0.00  0.00    +0.000 OA
BRANCH  16  19
ATOM     18  C   UNL     1       2.216   8.507  17.884  0.00  0.00    +0.000 C 
ATOM     19  O   UNL     1       3.297   7.649  17.513  0.00  0.00    +0.000 OA
ENDBRANCH  16  19
ENDBRANCH   1  16
TORSDOF 3
ENDMDL
MODEL 9
REMARK VINA RESULT:      -6.4      3.204      4.749
REMARK  Name = 
REMARK  4 active torsions:
REMARK  status: ('A' for Active; 'I' for Inactive)
REMARK    1  A    between atoms: C_1  and  O_2
REMARK    2  A    between atoms: O_2  and  C_3
REMARK    3  A    between atoms: C_3  and  C_5
REMARK    4  A    between atoms: C_11  and  C_12
REMARK                            x       y       z     vdW  Elec       q    Type
REMARK                         _______ _______ _______ _____ _____    ______ ____
ROOT
ATOM      1  C   UNL     1       2.384   5.141  18.912  0.00  0.00    +0.000 C 
ATOM      2  C   UNL     1       1.424   4.603  19.988  0.00  0.00    +0.000 C 
ATOM      3  C   UNL     1       0.810   3.252  19.554  0.00  0.00    +0.000 C 
ATOM      4  C   UNL     1       1.650   2.102  20.129  0.00  0.00    +0.000 C 
ATOM      5  C   UNL     1       3.005   2.672  20.548  0.00  0.00    +0.000 C 
ATOM      6  C   UNL     1       3.856   3.070  19.310  0.00  0.00    +0.000 C 
ATOM      7  C   UNL     1       3.840   4.584  18.992  0.00  0.00    +0.000 C 
ATOM      8  S   UNL     1       2.374   4.113  21.454  0.00  0.00    +0.000 S 
ENDROOT
BRANCH   7   9
ATOM      9  C   UNL     1       4.607   5.028  17.749  0.00  0.00    +0.000 A 
ATOM     10  C   UNL     1       5.743   5.846  17.818  0.00  0.00    +0.000 A 
ATOM     11  C   UNL     1       6.625   5.909  16.733  0.00  0.00    +0.000 A 
ATOM     12  C   UNL     1       6.368   5.175  15.576  0.00  0.00    +0.000 A 
ATOM     13 CL   UNL     1       7.539   5.114  14.317  0.00  0.00    +0.000 Cl
ATOM     14  C   UNL     1       5.194   4.440  15.457  0.00  0.00    +0.000 A 
ATOM     15  C   UNL     1       4.311   4.383  16.532  0.00  0.00    +0.000 A 
ENDBRANCH   7   9
BRANCH   1  16
ATOM     16  C   UNL     1       2.394   6.659  19.004  0.00  0.00    +0.000 C 
ATOM     17  O   UNL     1       2.501   7.309  20.039  0.00  0.00    +0.000 OA
BRANCH  16  19
ATOM     18  C   UNL     1       2.160   8.623  17.744  0.00  0.00    +0.000 C 
ATOM     19  O   UNL     1       2.282   7.199  17.756  0.00  0.00    +0.000 OA
ENDBRANCH  16  19
ENDBRANCH   1  16
TORSDOF 3
ENDMDL
