MODEL 1
REMARK VINA RESULT:      -5.5      0.000      0.000
REMARK  Name = 
REMARK  13 active torsions:
REMARK  status: ('A' for Active; 'I' for Inactive)
REMARK    1  A    between atoms: C_1  and  C_2
REMARK    2  A    between atoms: C_2  and  N_3
REMARK    3  A    between atoms: N_3  and  C_4
REMARK    4  A    between atoms: N_3  and  C_6
REMARK    5  A    between atoms: C_4  and  C_5
REMARK    6  A    between atoms: C_6  and  S_8
REMARK    7  A    between atoms: S_8  and  C_9
REMARK    8  A    between atoms: P_13  and  N_15
REMARK    9  A    between atoms: N_15  and  C_16
REMARK   10  A    between atoms: N_15  and  C_19
REMARK   11  A    between atoms: C_16  and  C_17
REMARK   12  A    between atoms: C_19  and  C_20
REMARK   13  A    between atoms: N_22  and  C_23
REMARK                            x       y       z     vdW  Elec       q    Type
REMARK                         _______ _______ _______ _____ _____    ______ ____
ROOT
ATOM      1  C   UNL     1       2.138   5.273  18.927  0.00  0.00    +0.000 C 
ATOM      2  C   UNL     1       1.597   4.413  17.772  0.00  0.00    +0.000 C 
ATOM      3  C   UNL     1       2.517   3.430  17.065  0.00  0.00    +0.000 C 
ATOM      4  O   UNL     1       3.496   2.810  17.851  0.00  0.00    +0.000 OA
ATOM      5  P   UNL     1       4.237   3.549  19.058  0.00  0.00    +0.000 P 
ATOM      6  O   UNL     1       4.749   2.507  20.009  0.00  0.00    +0.000 OA
ATOM      7  N   UNL     1       3.136   4.555  19.711  0.00  0.00    +0.000 NA
ATOM      8  C   UNL     1       2.808   4.416  21.117  0.00  0.00    +0.000 C 
ENDROOT
BRANCH   1   9
ATOM      9  S   UNL     1       2.762   6.969  18.574  0.00  0.00    +0.000 S 
BRANCH   9  10
ATOM     10  C   UNL     1       1.801   8.093  19.555  0.00  0.00    +0.000 C 
ATOM     11  S   UNL     1       1.218   7.507  21.031  0.00  0.00    +0.000 S 
BRANCH  10  12
ATOM     12  N   UNL     1       1.412   9.330  18.978  0.00  0.00    +0.000 N 
BRANCH  12  14
ATOM     13  C   UNL     1       2.348  11.419  17.949  0.00  0.00    +0.000 C 
ATOM     14  C   UNL     1       2.037   9.930  17.789  0.00  0.00    +0.000 C 
ENDBRANCH  12  14
BRANCH  12  15
ATOM     15  C   UNL     1       0.272  10.111  19.526  0.00  0.00    +0.000 C 
ATOM     16  C   UNL     1      -0.990  10.017  18.678  0.00  0.00    +0.000 C 
ENDBRANCH  12  15
ENDBRANCH  10  12
ENDBRANCH   9  10
ENDBRANCH   1   9
BRANCH   5  17
ATOM     17  N   UNL     1       5.413   4.519  18.474  0.00  0.00    +0.000 NA
BRANCH  17  18
ATOM     18  C   UNL     1       6.002   5.547  19.343  0.00  0.00    +0.000 C 
BRANCH  18  19
ATOM     19  C   UNL     1       7.535   5.618  19.368  0.00  0.00    +0.000 C 
ATOM     20 CL   UNL     1       8.157   7.127  18.665  0.00  0.00    +0.000 Cl
ENDBRANCH  18  19
ENDBRANCH  17  18
BRANCH  17  21
ATOM     21  C   UNL     1       6.136   4.338  17.217  0.00  0.00    +0.000 C 
BRANCH  21  22
ATOM     22  C   UNL     1       5.728   5.391  16.179  0.00  0.00    +0.000 C 
ATOM     23 CL   UNL     1       6.535   5.105  14.618  0.00  0.00    +0.000 Cl
ENDBRANCH  21  22
ENDBRANCH  17  21
ENDBRANCH   5  17
TORSDOF 10
ENDMDL
MODEL 2
REMARK VINA RESULT:      -5.4      0.469      1.963
REMARK  Name = 
REMARK  13 active torsions:
REMARK  status: ('A' for Active; 'I' for Inactive)
REMARK    1  A    between atoms: C_1  and  C_2
REMARK    2  A    between atoms: C_2  and  N_3
REMARK    3  A    between atoms: N_3  and  C_4
REMARK    4  A    between atoms: N_3  and  C_6
REMARK    5  A    between atoms: C_4  and  C_5
REMARK    6  A    between atoms: C_6  and  S_8
REMARK    7  A    between atoms: S_8  and  C_9
REMARK    8  A    between atoms: P_13  and  N_15
REMARK    9  A    between atoms: N_15  and  C_16
REMARK   10  A    between atoms: N_15  and  C_19
REMARK   11  A    between atoms: C_16  and  C_17
REMARK   12  A    between atoms: C_19  and  C_20
REMARK   13  A    between atoms: N_22  and  C_23
REMARK                            x       y       z     vdW  Elec       q    Type
REMARK                         _______ _______ _______ _____ _____    ______ ____
ROOT
ATOM      1  C   UNL     1       2.142   5.245  18.970  0.00  0.00    +0.000 C 
ATOM      2  C   UNL     1       1.600   4.410  17.797  0.00  0.00    +0.000 C 
ATOM      3  C   UNL     1       2.526   3.459  17.055  0.00  0.00    +0.000 C 
ATOM      4  O   UNL     1       3.522   2.832  17.812  0.00  0.00    +0.000 OA
ATOM      5  P   UNL     1       4.265   3.548  19.032  0.00  0.00    +0.000 P 
ATOM      6  O   UNL     1       4.802   2.488  19.949  0.00  0.00    +0.000 OA
ATOM      7  N   UNL     1       3.158   4.520  19.723  0.00  0.00    +0.000 NA
ATOM      8  C   UNL     1       2.847   4.339  21.128  0.00  0.00    +0.000 C 
ENDROOT
BRANCH   1   9
ATOM      9  S   UNL     1       2.739   6.959  18.656  0.00  0.00    +0.000 S 
BRANCH   9  10
ATOM     10  C   UNL     1       1.767   8.043  19.671  0.00  0.00    +0.000 C 
ATOM     11  S   UNL     1       1.139   7.389  21.099  0.00  0.00    +0.000 S 
BRANCH  10  12
ATOM     12  N   UNL     1       1.408   9.314  19.149  0.00  0.00    +0.000 N 
BRANCH  12  14
ATOM     13  C   UNL     1       2.296  11.386  18.045  0.00  0.00    +0.000 C 
ATOM     14  C   UNL     1       1.962   9.898  17.918  0.00  0.00    +0.000 C 
ENDBRANCH  12  14
BRANCH  12  15
ATOM     15  C   UNL     1       0.373  10.152  19.808  0.00  0.00    +0.000 C 
ATOM     16  C   UNL     1      -0.975  10.121  19.098  0.00  0.00    +0.000 C 
ENDBRANCH  12  15
ENDBRANCH  10  12
ENDBRANCH   9  10
ENDBRANCH   1   9
BRANCH   5  17
ATOM     17  N   UNL     1       5.422   4.549  18.463  0.00  0.00    +0.000 NA
BRANCH  17  18
ATOM     18  C   UNL     1       5.465   4.867  17.029  0.00  0.00    +0.000 C 
BRANCH  18  19
ATOM     19  C   UNL     1       6.110   3.812  16.120  0.00  0.00    +0.000 C 
ATOM     20 CL   UNL     1       5.912   4.189  14.395  0.00  0.00    +0.000 Cl
ENDBRANCH  18  19
ENDBRANCH  17  18
BRANCH  17  21
ATOM     21  C   UNL     1       6.320   5.376  19.268  0.00  0.00    +0.000 C 
BRANCH  21  22
ATOM     22  C   UNL     1       7.669   5.585  18.568  0.00  0.00    +0.000 C 
ATOM     23 CL   UNL     1       7.938   7.302  18.185  0.00  0.00    +0.000 Cl
ENDBRANCH  21  22
ENDBRANCH  17  21
ENDBRANCH   5  17
TORSDOF 10
ENDMDL
MODEL 3
REMARK VINA RESULT:      -5.4      4.438      7.224
REMARK  Name = 
REMARK  13 active torsions:
REMARK  status: ('A' for Active; 'I' for Inactive)
REMARK    1  A    between atoms: C_1  and  C_2
REMARK    2  A    between atoms: C_2  and  N_3
REMARK    3  A    between atoms: N_3  and  C_4
REMARK    4  A    between atoms: N_3  and  C_6
REMARK    5  A    between atoms: C_4  and  C_5
REMARK    6  A    between atoms: C_6  and  S_8
REMARK    7  A    between atoms: S_8  and  C_9
REMARK    8  A    between atoms: P_13  and  N_15
REMARK    9  A    between atoms: N_15  and  C_16
REMARK   10  A    between atoms: N_15  and  C_19
REMARK   11  A    between atoms: C_16  and  C_17
REMARK   12  A    between atoms: C_19  and  C_20
REMARK   13  A    between atoms: N_22  and  C_23
REMARK                            x       y       z     vdW  Elec       q    Type
REMARK                         _______ _______ _______ _____ _____    ______ ____
ROOT
ATOM      1  C   UNL     1       6.174   5.175  15.747  0.00  0.00    +0.000 C 
ATOM      2  C   UNL     1       5.562   6.567  15.509  0.00  0.00    +0.000 C 
ATOM      3  C   UNL     1       4.448   7.067  16.415  0.00  0.00    +0.000 C 
ATOM      4  O   UNL     1       4.502   6.670  17.756  0.00  0.00    +0.000 OA
ATOM      5  P   UNL     1       5.038   5.237  18.216  0.00  0.00    +0.000 P 
ATOM      6  O   UNL     1       5.502   5.340  19.640  0.00  0.00    +0.000 OA
ATOM      7  N   UNL     1       6.216   4.840  17.165  0.00  0.00    +0.000 NA
ATOM      8  C   UNL     1       7.544   4.558  17.676  0.00  0.00    +0.000 C 
ENDROOT
BRANCH   1   9
ATOM      9  S   UNL     1       5.522   3.731  14.810  0.00  0.00    +0.000 S 
BRANCH   9  10
ATOM     10  C   UNL     1       6.191   3.828  13.169  0.00  0.00    +0.000 C 
ATOM     11  S   UNL     1       7.539   4.828  12.955  0.00  0.00    +0.000 S 
BRANCH  10  12
ATOM     12  N   UNL     1       5.461   3.234  12.106  0.00  0.00    +0.000 N 
BRANCH  12  14
ATOM     13  C   UNL     1       7.227   1.780  11.073  0.00  0.00    +0.000 C 
ATOM     14  C   UNL     1       5.768   1.924  11.511  0.00  0.00    +0.000 C 
ENDBRANCH  12  14
BRANCH  12  15
ATOM     15  C   UNL     1       4.261   3.897  11.532  0.00  0.00    +0.000 C 
ATOM     16  C   UNL     1       3.484   3.012  10.565  0.00  0.00    +0.000 C 
ENDBRANCH  12  15
ENDBRANCH  10  12
ENDBRANCH   9  10
ENDBRANCH   1   9
BRANCH   5  17
ATOM     17  N   UNL     1       3.872   4.115  18.000  0.00  0.00    +0.000 NA
BRANCH  17  18
ATOM     18  C   UNL     1       4.242   2.698  17.891  0.00  0.00    +0.000 C 
BRANCH  18  19
ATOM     19  C   UNL     1       3.700   1.769  18.987  0.00  0.00    +0.000 C 
ATOM     20 CL   UNL     1       4.360   2.153  20.592  0.00  0.00    +0.000 Cl
ENDBRANCH  18  19
ENDBRANCH  17  18
BRANCH  17  21
ATOM     21  C   UNL     1       2.433   4.331  18.128  0.00  0.00    +0.000 C 
BRANCH  21  22
ATOM     22  C   UNL     1       2.072   4.916  19.500  0.00  0.00    +0.000 C 
ATOM     23 CL   UNL     1       0.993   3.826  20.403  0.00  0.00    +0.000 Cl
ENDBRANCH  21  22
ENDBRANCH  17  21
ENDBRANCH   5  17
TORSDOF 10
ENDMDL
MODEL 4
REMARK VINA RESULT:      -5.3      0.531      1.418
REMARK  Name = 
REMARK  13 active torsions:
REMARK  status: ('A' for Active; 'I' for Inactive)
REMARK    1  A    between atoms: C_1  and  C_2
REMARK    2  A    between atoms: C_2  and  N_3
REMARK    3  A    between atoms: N_3  and  C_4
REMARK    4  A    between atoms: N_3  and  C_6
REMARK    5  A    between atoms: C_4  and  C_5
REMARK    6  A    between atoms: C_6  and  S_8
REMARK    7  A    between atoms: S_8  and  C_9
REMARK    8  A    between atoms: P_13  and  N_15
REMARK    9  A    between atoms: N_15  and  C_16
REMARK   10  A    between atoms: N_15  and  C_19
REMARK   11  A    between atoms: C_16  and  C_17
REMARK   12  A    between atoms: C_19  and  C_20
REMARK   13  A    between atoms: N_22  and  C_23
REMARK                            x       y       z     vdW  Elec       q    Type
REMARK                         _______ _______ _______ _____ _____    ______ ____
ROOT
ATOM      1  C   UNL     1       2.111   5.496  18.916  0.00  0.00    +0.000 C 
ATOM      2  C   UNL     1       1.559   4.658  17.750  0.00  0.00    +0.000 C 
ATOM      3  C   UNL     1       2.480   3.712  16.996  0.00  0.00    +0.000 C 
ATOM      4  O   UNL     1       3.488   3.090  17.741  0.00  0.00    +0.000 OA
ATOM      5  P   UNL     1       4.243   3.809  18.951  0.00  0.00    +0.000 P 
ATOM      6  O   UNL     1       4.796   2.751  19.861  0.00  0.00    +0.000 OA
ATOM      7  N   UNL     1       3.140   4.776  19.656  0.00  0.00    +0.000 NA
ATOM      8  C   UNL     1       2.847   4.592  21.065  0.00  0.00    +0.000 C 
ENDROOT
BRANCH   1   9
ATOM      9  S   UNL     1       2.695   7.212  18.596  0.00  0.00    +0.000 S 
BRANCH   9  10
ATOM     10  C   UNL     1       1.658   8.301  19.539  0.00  0.00    +0.000 C 
ATOM     11  S   UNL     1       1.156   7.748  21.057  0.00  0.00    +0.000 S 
BRANCH  10  12
ATOM     12  N   UNL     1       1.152   9.467  18.906  0.00  0.00    +0.000 N 
BRANCH  12  14
ATOM     13  C   UNL     1      -1.097  10.211  18.075  0.00  0.00    +0.000 C 
ATOM     14  C   UNL     1      -0.122  10.117  19.251  0.00  0.00    +0.000 C 
ENDBRANCH  12  14
BRANCH  12  15
ATOM     15  C   UNL     1       1.925  10.165  17.847  0.00  0.00    +0.000 C 
ATOM     16  C   UNL     1       2.277  11.605  18.202  0.00  0.00    +0.000 C 
ENDBRANCH  12  15
ENDBRANCH  10  12
ENDBRANCH   9  10
ENDBRANCH   1   9
BRANCH   5  17
ATOM     17  N   UNL     1       5.388   4.816  18.368  0.00  0.00    +0.000 NA
BRANCH  17  18
ATOM     18  C   UNL     1       6.438   5.316  19.265  0.00  0.00    +0.000 C 
BRANCH  18  19
ATOM     19  C   UNL     1       7.783   5.659  18.611  0.00  0.00    +0.000 C 
ATOM     20 CL   UNL     1       7.920   7.383  18.201  0.00  0.00    +0.000 Cl
ENDBRANCH  18  19
ENDBRANCH  17  18
BRANCH  17  21
ATOM     21  C   UNL     1       5.636   5.117  16.959  0.00  0.00    +0.000 C 
BRANCH  21  22
ATOM     22  C   UNL     1       6.154   3.885  16.205  0.00  0.00    +0.000 C 
ATOM     23 CL   UNL     1       5.880   4.039  14.453  0.00  0.00    +0.000 Cl
ENDBRANCH  21  22
ENDBRANCH  17  21
ENDBRANCH   5  17
TORSDOF 10
ENDMDL
MODEL 5
REMARK VINA RESULT:      -5.3      0.690      2.424
REMARK  Name = 
REMARK  13 active torsions:
REMARK  status: ('A' for Active; 'I' for Inactive)
REMARK    1  A    between atoms: C_1  and  C_2
REMARK    2  A    between atoms: C_2  and  N_3
REMARK    3  A    between atoms: N_3  and  C_4
REMARK    4  A    between atoms: N_3  and  C_6
REMARK    5  A    between atoms: C_4  and  C_5
REMARK    6  A    between atoms: C_6  and  S_8
REMARK    7  A    between atoms: S_8  and  C_9
REMARK    8  A    between atoms: P_13  and  N_15
REMARK    9  A    between atoms: N_15  and  C_16
REMARK   10  A    between atoms: N_15  and  C_19
REMARK   11  A    between atoms: C_16  and  C_17
REMARK   12  A    between atoms: C_19  and  C_20
REMARK   13  A    between atoms: N_22  and  C_23
REMARK                            x       y       z     vdW  Elec       q    Type
REMARK                         _______ _______ _______ _____ _____    ______ ____
ROOT
ATOM      1  C   UNL     1       2.137   5.316  18.859  0.00  0.00    +0.000 C 
ATOM      2  C   UNL     1       1.494   4.433  17.777  0.00  0.00    +0.000 C 
ATOM      3  C   UNL     1       2.350   3.441  17.003  0.00  0.00    +0.000 C 
ATOM      4  O   UNL     1       3.404   2.842  17.701  0.00  0.00    +0.000 OA
ATOM      5  P   UNL     1       4.251   3.607  18.819  0.00  0.00    +0.000 P 
ATOM      6  O   UNL     1       4.859   2.585  19.735  0.00  0.00    +0.000 OA
ATOM      7  N   UNL     1       3.211   4.619  19.556  0.00  0.00    +0.000 NA
ATOM      8  C   UNL     1       3.020   4.503  20.989  0.00  0.00    +0.000 C 
ENDROOT
BRANCH   1   9
ATOM      9  S   UNL     1       2.711   7.009  18.418  0.00  0.00    +0.000 S 
BRANCH   9  10
ATOM     10  C   UNL     1       1.803   8.149  19.431  0.00  0.00    +0.000 C 
ATOM     11  S   UNL     1       1.412   7.633  20.994  0.00  0.00    +0.000 S 
BRANCH  10  12
ATOM     12  N   UNL     1       1.289   9.327  18.827  0.00  0.00    +0.000 N 
BRANCH  12  14
ATOM     13  C   UNL     1      -0.940  10.069  17.945  0.00  0.00    +0.000 C 
ATOM     14  C   UNL     1      -0.011   9.933  19.153  0.00  0.00    +0.000 C 
ENDBRANCH  12  14
BRANCH  12  15
ATOM     15  C   UNL     1       2.080  10.085  17.823  0.00  0.00    +0.000 C 
ATOM     16  C   UNL     1       2.266  11.554  18.182  0.00  0.00    +0.000 C 
ENDBRANCH  12  15
ENDBRANCH  10  12
ENDBRANCH   9  10
ENDBRANCH   1   9
BRANCH   5  17
ATOM     17  N   UNL     1       5.359   4.573  18.108  0.00  0.00    +0.000 NA
BRANCH  17  18
ATOM     18  C   UNL     1       5.287   4.816  16.661  0.00  0.00    +0.000 C 
BRANCH  18  19
ATOM     19  C   UNL     1       5.987   3.785  15.764  0.00  0.00    +0.000 C 
ATOM     20 CL   UNL     1       5.703   4.085  14.036  0.00  0.00    +0.000 Cl
ENDBRANCH  18  19
ENDBRANCH  17  18
BRANCH  17  21
ATOM     21  C   UNL     1       6.319   5.435  18.795  0.00  0.00    +0.000 C 
BRANCH  21  22
ATOM     22  C   UNL     1       6.791   6.581  17.890  0.00  0.00    +0.000 C 
ATOM     23 CL   UNL     1       8.236   7.377  18.559  0.00  0.00    +0.000 Cl
ENDBRANCH  21  22
ENDBRANCH  17  21
ENDBRANCH   5  17
TORSDOF 10
ENDMDL
MODEL 6
REMARK VINA RESULT:      -5.2      4.273      7.191
REMARK  Name = 
REMARK  13 active torsions:
REMARK  status: ('A' for Active; 'I' for Inactive)
REMARK    1  A    between atoms: C_1  and  C_2
REMARK    2  A    between atoms: C_2  and  N_3
REMARK    3  A    between atoms: N_3  and  C_4
REMARK    4  A    between atoms: N_3  and  C_6
REMARK    5  A    between atoms: C_4  and  C_5
REMARK    6  A    between atoms: C_6  and  S_8
REMARK    7  A    between atoms: S_8  and  C_9
REMARK    8  A    between atoms: P_13  and  N_15
REMARK    9  A    between atoms: N_15  and  C_16
REMARK   10  A    between atoms: N_15  and  C_19
REMARK   11  A    between atoms: C_16  and  C_17
REMARK   12  A    between atoms: C_19  and  C_20
REMARK   13  A    between atoms: N_22  and  C_23
REMARK                            x       y       z     vdW  Elec       q    Type
REMARK                         _______ _______ _______ _____ _____    ______ ____
ROOT
ATOM      1  C   UNL     1       6.047   5.386  15.798  0.00  0.00    +0.000 C 
ATOM      2  C   UNL     1       5.415   6.787  15.857  0.00  0.00    +0.000 C 
ATOM      3  C   UNL     1       4.391   7.110  16.935  0.00  0.00    +0.000 C 
ATOM      4  O   UNL     1       4.571   6.494  18.178  0.00  0.00    +0.000 OA
ATOM      5  P   UNL     1       5.149   5.013  18.337  0.00  0.00    +0.000 P 
ATOM      6  O   UNL     1       5.745   4.881  19.708  0.00  0.00    +0.000 OA
ATOM      7  N   UNL     1       6.222   4.818  17.129  0.00  0.00    +0.000 NA
ATOM      8  C   UNL     1       7.592   4.475  17.459  0.00  0.00    +0.000 C 
ENDROOT
BRANCH   1   9
ATOM      9  S   UNL     1       5.309   4.110  14.695  0.00  0.00    +0.000 S 
BRANCH   9  10
ATOM     10  C   UNL     1       6.363   3.975  13.274  0.00  0.00    +0.000 C 
ATOM     11  S   UNL     1       7.649   5.070  13.175  0.00  0.00    +0.000 S 
BRANCH  10  12
ATOM     12  N   UNL     1       5.968   3.110  12.220  0.00  0.00    +0.000 N 
BRANCH  12  14
ATOM     13  C   UNL     1       6.339   0.938  11.018  0.00  0.00    +0.000 C 
ATOM     14  C   UNL     1       6.895   2.310  11.405  0.00  0.00    +0.000 C 
ENDBRANCH  12  14
BRANCH  12  15
ATOM     15  C   UNL     1       4.534   2.907  11.887  0.00  0.00    +0.000 C 
ATOM     16  C   UNL     1       4.045   3.793  10.748  0.00  0.00    +0.000 C 
ENDBRANCH  12  15
ENDBRANCH  10  12
ENDBRANCH   9  10
ENDBRANCH   1   9
BRANCH   5  17
ATOM     17  N   UNL     1       3.968   3.924  18.044  0.00  0.00    +0.000 NA
BRANCH  17  18
ATOM     18  C   UNL     1       2.568   4.366  18.010  0.00  0.00    +0.000 C 
BRANCH  18  19
ATOM     19  C   UNL     1       1.806   4.309  19.342  0.00  0.00    +0.000 C 
ATOM     20 CL   UNL     1       2.023   5.782  20.313  0.00  0.00    +0.000 Cl
ENDBRANCH  18  19
ENDBRANCH  17  18
BRANCH  17  21
ATOM     21  C   UNL     1       4.156   2.554  17.573  0.00  0.00    +0.000 C 
BRANCH  21  22
ATOM     22  C   UNL     1       3.679   1.532  18.614  0.00  0.00    +0.000 C 
ATOM     23 CL   UNL     1       4.395   1.856  20.212  0.00  0.00    +0.000 Cl
ENDBRANCH  21  22
ENDBRANCH  17  21
ENDBRANCH   5  17
TORSDOF 10
ENDMDL
MODEL 7
REMARK VINA RESULT:      -5.2      4.339      7.304
REMARK  Name = 
REMARK  13 active torsions:
REMARK  status: ('A' for Active; 'I' for Inactive)
REMARK    1  A    between atoms: C_1  and  C_2
REMARK    2  A    between atoms: C_2  and  N_3
REMARK    3  A    between atoms: N_3  and  C_4
REMARK    4  A    between atoms: N_3  and  C_6
REMARK    5  A    between atoms: C_4  and  C_5
REMARK    6  A    between atoms: C_6  and  S_8
REMARK    7  A    between atoms: S_8  and  C_9
REMARK    8  A    between atoms: P_13  and  N_15
REMARK    9  A    between atoms: N_15  and  C_16
REMARK   10  A    between atoms: N_15  and  C_19
REMARK   11  A    between atoms: C_16  and  C_17
REMARK   12  A    between atoms: C_19  and  C_20
REMARK   13  A    between atoms: N_22  and  C_23
REMARK                            x       y       z     vdW  Elec       q    Type
REMARK                         _______ _______ _______ _____ _____    ______ ____
ROOT
ATOM      1  C   UNL     1       6.053   5.279  16.044  0.00  0.00    +0.000 C 
ATOM      2  C   UNL     1       5.262   6.598  16.050  0.00  0.00    +0.000 C 
ATOM      3  C   UNL     1       4.241   6.862  17.146  0.00  0.00    +0.000 C 
ATOM      4  O   UNL     1       4.532   6.345  18.413  0.00  0.00    +0.000 OA
ATOM      5  P   UNL     1       5.286   4.954  18.631  0.00  0.00    +0.000 P 
ATOM      6  O   UNL     1       5.936   4.974  19.984  0.00  0.00    +0.000 OA
ATOM      7  N   UNL     1       6.336   4.815  17.396  0.00  0.00    +0.000 NA
ATOM      8  C   UNL     1       7.747   4.654  17.692  0.00  0.00    +0.000 C 
ENDROOT
BRANCH   1   9
ATOM      9  S   UNL     1       5.438   3.863  15.041  0.00  0.00    +0.000 S 
BRANCH   9  10
ATOM     10  C   UNL     1       6.293   3.914  13.486  0.00  0.00    +0.000 C 
ATOM     11  S   UNL     1       7.621   4.956  13.382  0.00  0.00    +0.000 S 
BRANCH  10  12
ATOM     12  N   UNL     1       5.714   3.245  12.376  0.00  0.00    +0.000 N 
BRANCH  12  14
ATOM     13  C   UNL     1       3.913   3.568  10.657  0.00  0.00    +0.000 C 
ATOM     14  C   UNL     1       4.271   3.186  12.096  0.00  0.00    +0.000 C 
ENDBRANCH  12  14
BRANCH  12  15
ATOM     15  C   UNL     1       6.561   2.574  11.355  0.00  0.00    +0.000 C 
ATOM     16  C   UNL     1       6.324   1.071  11.264  0.00  0.00    +0.000 C 
ENDBRANCH  12  15
ENDBRANCH  10  12
ENDBRANCH   9  10
ENDBRANCH   1   9
BRANCH   5  17
ATOM     17  N   UNL     1       4.234   3.720  18.443  0.00  0.00    +0.000 NA
BRANCH  17  18
ATOM     18  C   UNL     1       2.970   3.948  17.731  0.00  0.00    +0.000 C 
BRANCH  18  19
ATOM     19  C   UNL     1       2.112   2.705  17.456  0.00  0.00    +0.000 C 
ATOM     20 CL   UNL     1       0.779   2.528  18.617  0.00  0.00    +0.000 Cl
ENDBRANCH  18  19
ENDBRANCH  17  18
BRANCH  17  21
ATOM     21  C   UNL     1       4.503   2.309  18.712  0.00  0.00    +0.000 C 
BRANCH  21  22
ATOM     22  C   UNL     1       4.540   2.021  20.219  0.00  0.00    +0.000 C 
ATOM     23 CL   UNL     1       3.107   2.687  21.038  0.00  0.00    +0.000 Cl
ENDBRANCH  21  22
ENDBRANCH  17  21
ENDBRANCH   5  17
TORSDOF 10
ENDMDL
MODEL 8
REMARK VINA RESULT:      -5.2      4.290      7.222
REMARK  Name = 
REMARK  13 active torsions:
REMARK  status: ('A' for Active; 'I' for Inactive)
REMARK    1  A    between atoms: C_1  and  C_2
REMARK    2  A    between atoms: C_2  and  N_3
REMARK    3  A    between atoms: N_3  and  C_4
REMARK    4  A    between atoms: N_3  and  C_6
REMARK    5  A    between atoms: C_4  and  C_5
REMARK    6  A    between atoms: C_6  and  S_8
REMARK    7  A    between atoms: S_8  and  C_9
REMARK    8  A    between atoms: P_13  and  N_15
REMARK    9  A    between atoms: N_15  and  C_16
REMARK   10  A    between atoms: N_15  and  C_19
REMARK   11  A    between atoms: C_16  and  C_17
REMARK   12  A    between atoms: C_19  and  C_20
REMARK   13  A    between atoms: N_22  and  C_23
REMARK                            x       y       z     vdW  Elec       q    Type
REMARK                         _______ _______ _______ _____ _____    ______ ____
ROOT
ATOM      1  C   UNL     1       5.971   5.290  15.803  0.00  0.00    +0.000 C 
ATOM      2  C   UNL     1       5.307   6.672  15.685  0.00  0.00    +0.000 C 
ATOM      3  C   UNL     1       4.232   7.082  16.679  0.00  0.00    +0.000 C 
ATOM      4  O   UNL     1       4.374   6.608  17.989  0.00  0.00    +0.000 OA
ATOM      5  P   UNL     1       4.977   5.169  18.330  0.00  0.00    +0.000 P 
ATOM      6  O   UNL     1       5.518   5.202  19.730  0.00  0.00    +0.000 OA
ATOM      7  N   UNL     1       6.103   4.873  17.194  0.00  0.00    +0.000 NA
ATOM      8  C   UNL     1       7.466   4.604  17.612  0.00  0.00    +0.000 C 
ENDROOT
BRANCH   1   9
ATOM      9  S   UNL     1       5.308   3.883  14.818  0.00  0.00    +0.000 S 
BRANCH   9  10
ATOM     10  C   UNL     1       6.155   3.894  13.257  0.00  0.00    +0.000 C 
ATOM     11  S   UNL     1       7.550   4.845  13.156  0.00  0.00    +0.000 S 
BRANCH  10  12
ATOM     12  N   UNL     1       5.525   3.278  12.144  0.00  0.00    +0.000 N 
BRANCH  12  14
ATOM     13  C   UNL     1       3.415   2.955  10.824  0.00  0.00    +0.000 C 
ATOM     14  C   UNL     1       4.502   3.919  11.304  0.00  0.00    +0.000 C 
ENDBRANCH  12  14
BRANCH  12  15
ATOM     15  C   UNL     1       5.906   1.911  11.703  0.00  0.00    +0.000 C 
ATOM     16  C   UNL     1       7.251   1.857  10.988  0.00  0.00    +0.000 C 
ENDBRANCH  12  15
ENDBRANCH  10  12
ENDBRANCH   9  10
ENDBRANCH   1   9
BRANCH   5  17
ATOM     17  N   UNL     1       3.834   4.024  18.111  0.00  0.00    +0.000 NA
BRANCH  17  18
ATOM     18  C   UNL     1       2.425   4.421  17.988  0.00  0.00    +0.000 C 
BRANCH  18  19
ATOM     19  C   UNL     1       1.536   4.159  19.211  0.00  0.00    +0.000 C 
ATOM     20 CL   UNL     1       2.159   4.936  20.683  0.00  0.00    +0.000 Cl
ENDBRANCH  18  19
ENDBRANCH  17  18
BRANCH  17  21
ATOM     21  C   UNL     1       4.071   2.618  17.789  0.00  0.00    +0.000 C 
BRANCH  21  22
ATOM     22  C   UNL     1       3.621   1.697  18.931  0.00  0.00    +0.000 C 
ATOM     23 CL   UNL     1       4.558   2.000  20.413  0.00  0.00    +0.000 Cl
ENDBRANCH  21  22
ENDBRANCH  17  21
ENDBRANCH   5  17
TORSDOF 10
ENDMDL
MODEL 9
REMARK VINA RESULT:      -5.1      4.391      7.226
REMARK  Name = 
REMARK  13 active torsions:
REMARK  status: ('A' for Active; 'I' for Inactive)
REMARK    1  A    between atoms: C_1  and  C_2
REMARK    2  A    between atoms: C_2  and  N_3
REMARK    3  A    between atoms: N_3  and  C_4
REMARK    4  A    between atoms: N_3  and  C_6
REMARK    5  A    between atoms: C_4  and  C_5
REMARK    6  A    between atoms: C_6  and  S_8
REMARK    7  A    between atoms: S_8  and  C_9
REMARK    8  A    between atoms: P_13  and  N_15
REMARK    9  A    between atoms: N_15  and  C_16
REMARK   10  A    between atoms: N_15  and  C_19
REMARK   11  A    between atoms: C_16  and  C_17
REMARK   12  A    between atoms: C_19  and  C_20
REMARK   13  A    between atoms: N_22  and  C_23
REMARK                            x       y       z     vdW  Elec       q    Type
REMARK                         _______ _______ _______ _____ _____    ______ ____
ROOT
ATOM      1  C   UNL     1       6.188   5.123  15.871  0.00  0.00    +0.000 C 
ATOM      2  C   UNL     1       5.432   6.450  15.686  0.00  0.00    +0.000 C 
ATOM      3  C   UNL     1       4.300   6.814  16.634  0.00  0.00    +0.000 C 
ATOM      4  O   UNL     1       4.433   6.394  17.962  0.00  0.00    +0.000 OA
ATOM      5  P   UNL     1       5.124   5.013  18.371  0.00  0.00    +0.000 P 
ATOM      6  O   UNL     1       5.618   5.130  19.784  0.00  0.00    +0.000 OA
ATOM      7  N   UNL     1       6.305   4.762  17.279  0.00  0.00    +0.000 NA
ATOM      8  C   UNL     1       7.669   4.604  17.746  0.00  0.00    +0.000 C 
ENDROOT
BRANCH   1   9
ATOM      9  S   UNL     1       5.657   3.642  14.915  0.00  0.00    +0.000 S 
BRANCH   9  10
ATOM     10  C   UNL     1       6.275   3.837  13.263  0.00  0.00    +0.000 C 
ATOM     11  S   UNL     1       7.583   4.890  13.060  0.00  0.00    +0.000 S 
BRANCH  10  12
ATOM     12  N   UNL     1       5.534   3.269  12.194  0.00  0.00    +0.000 N 
BRANCH  12  14
ATOM     13  C   UNL     1       3.493   2.974  10.762  0.00  0.00    +0.000 C 
ATOM     14  C   UNL     1       4.425   3.940  11.498  0.00  0.00    +0.000 C 
ENDBRANCH  12  14
BRANCH  12  15
ATOM     15  C   UNL     1       5.872   1.928  11.650  0.00  0.00    +0.000 C 
ATOM     16  C   UNL     1       7.253   1.864  11.010  0.00  0.00    +0.000 C 
ENDBRANCH  12  15
ENDBRANCH  10  12
ENDBRANCH   9  10
ENDBRANCH   1   9
BRANCH   5  17
ATOM     17  N   UNL     1       4.072   3.784  18.158  0.00  0.00    +0.000 NA
BRANCH  17  18
ATOM     18  C   UNL     1       4.323   2.493  18.813  0.00  0.00    +0.000 C 
BRANCH  18  19
ATOM     19  C   UNL     1       4.136   2.458  20.336  0.00  0.00    +0.000 C 
ATOM     20 CL   UNL     1       5.180   1.254  21.122  0.00  0.00    +0.000 Cl
ENDBRANCH  18  19
ENDBRANCH  17  18
BRANCH  17  21
ATOM     21  C   UNL     1       2.745   3.879  17.552  0.00  0.00    +0.000 C 
BRANCH  21  22
ATOM     22  C   UNL     1       1.653   4.046  18.617  0.00  0.00    +0.000 C 
ATOM     23 CL   UNL     1       0.663   2.574  18.764  0.00  0.00    +0.000 Cl
ENDBRANCH  21  22
ENDBRANCH  17  21
ENDBRANCH   5  17
TORSDOF 10
ENDMDL
