MODEL 1
REMARK VINA RESULT:      -8.4      0.000      0.000
REMARK  Name = 
REMARK  8 active torsions:
REMARK  status: ('A' for Active; 'I' for Inactive)
REMARK    1  A    between atoms: C_1  and  O_2
REMARK    2  A    between atoms: O_2  and  C_3
REMARK    3  A    between atoms: C_6  and  N_7
REMARK    4  A    between atoms: N_11  and  C_12
REMARK    5  A    between atoms: C_12  and  N_14
REMARK    6  A    between atoms: N_14  and  C_15
REMARK    7  A    between atoms: C_15  and  C_16
REMARK    8  A    between atoms: C_25  and  O_26
REMARK                            x       y       z     vdW  Elec       q    Type
REMARK                         _______ _______ _______ _____ _____    ______ ____
ROOT
ATOM      1  N   UNL     1      -1.068  11.481  21.262  0.00  0.00    +0.000 N 
ATOM      2  C   UNL     1      -0.424  10.249  21.534  0.00  0.00    +0.000 C 
ATOM      3  O   UNL     1      -0.206   9.604  22.535  0.00  0.00    +0.000 OA
ATOM      4  C   UNL     1      -0.027   9.745  20.200  0.00  0.00    +0.000 C 
ATOM      5  N   UNL     1       1.205   9.388  19.992  0.00  0.00    +0.000 NA
ATOM      6  C   UNL     1      -1.084  10.235  19.342  0.00  0.00    +0.000 A 
ATOM      7  C   UNL     1      -1.625   9.655  18.211  0.00  0.00    +0.000 A 
ATOM      8  C   UNL     1      -2.333  10.481  17.369  0.00  0.00    +0.000 A 
ATOM      9  C   UNL     1      -2.541  11.821  17.749  0.00  0.00    +0.000 A 
ATOM     10  C   UNL     1      -2.181  12.299  19.049  0.00  0.00    +0.000 A 
ATOM     11  C   UNL     1      -1.497  11.453  19.894  0.00  0.00    +0.000 A 
ENDROOT
BRANCH   1  15
ATOM     12  C   UNL     1      -2.723  14.130  24.115  0.00  0.00    +0.000 A 
ATOM     13  C   UNL     1      -3.321  12.937  23.777  0.00  0.00    +0.000 A 
ATOM     14  C   UNL     1      -2.650  12.034  22.972  0.00  0.00    +0.000 A 
ATOM     15  C   UNL     1      -1.419  12.328  22.352  0.00  0.00    +0.000 A 
ATOM     16  C   UNL     1      -0.755  13.472  22.795  0.00  0.00    +0.000 A 
ATOM     17  C   UNL     1      -1.414  14.374  23.683  0.00  0.00    +0.000 A 
BRANCH  12  19
ATOM     18  C   UNL     1      -3.134  16.268  25.079  0.00  0.00    +0.000 C 
ATOM     19  O   UNL     1      -3.564  14.953  24.800  0.00  0.00    +0.000 OA
ENDBRANCH  12  19
ENDBRANCH   1  15
BRANCH   5  20
ATOM     20  C   UNL     1       1.731   9.638  18.760  0.00  0.00    +0.000 C 
ATOM     21  S   UNL     1       2.018  11.177  18.164  0.00  0.00    +0.000 S 
BRANCH  20  22
ATOM     22  N   UNL     1       1.983   8.496  18.076  0.00  0.00    +0.000 N 
ATOM     23  H   UNL     1       1.177   8.023  17.696  0.00  0.00    +0.000 HD
BRANCH  22  24
ATOM     24  C   UNL     1       3.269   8.065  17.596  0.00  0.00    +0.000 C 
BRANCH  24  25
ATOM     25  C   UNL     1       3.379   6.593  17.661  0.00  0.00    +0.000 A 
ATOM     26  C   UNL     1       2.275   5.880  18.111  0.00  0.00    +0.000 A 
ATOM     27  C   UNL     1       2.368   4.503  18.260  0.00  0.00    +0.000 A 
ATOM     28  C   UNL     1       1.334   3.801  18.879  0.00  0.00    +0.000 A 
ATOM     29  C   UNL     1       1.436   2.424  19.035  0.00  0.00    +0.000 A 
ATOM     30  C   UNL     1       2.512   1.739  18.485  0.00  0.00    +0.000 A 
ATOM     31  C   UNL     1       3.552   2.432  17.858  0.00  0.00    +0.000 A 
ATOM     32  C   UNL     1       3.525   3.826  17.805  0.00  0.00    +0.000 A 
ATOM     33  C   UNL     1       4.637   4.556  17.361  0.00  0.00    +0.000 A 
ATOM     34  C   UNL     1       4.579   5.939  17.365  0.00  0.00    +0.000 A 
BRANCH  34  35
ATOM     35  O   UNL     1       5.699   6.689  17.116  0.00  0.00    +0.000 OA
ATOM     36  H   UNL     1       5.985   7.106  17.945  0.00  0.00    +0.000 HD
ENDBRANCH  34  35
ENDBRANCH  24  25
ENDBRANCH  22  24
ENDBRANCH  20  22
ENDBRANCH   5  20
TORSDOF 7
ENDMDL
MODEL 2
REMARK VINA RESULT:      -8.3      0.867      1.231
REMARK  Name = 
REMARK  8 active torsions:
REMARK  status: ('A' for Active; 'I' for Inactive)
REMARK    1  A    between atoms: C_1  and  O_2
REMARK    2  A    between atoms: O_2  and  C_3
REMARK    3  A    between atoms: C_6  and  N_7
REMARK    4  A    between atoms: N_11  and  C_12
REMARK    5  A    between atoms: C_12  and  N_14
REMARK    6  A    between atoms: N_14  and  C_15
REMARK    7  A    between atoms: C_15  and  C_16
REMARK    8  A    between atoms: C_25  and  O_26
REMARK                            x       y       z     vdW  Elec       q    Type
REMARK                         _______ _______ _______ _____ _____    ______ ____
ROOT
ATOM      1  N   UNL     1      -1.432  11.756  20.875  0.00  0.00    +0.000 N 
ATOM      2  C   UNL     1      -0.677  10.645  21.326  0.00  0.00    +0.000 C 
ATOM      3  O   UNL     1      -0.452  10.151  22.409  0.00  0.00    +0.000 OA
ATOM      4  C   UNL     1      -0.147  10.038  20.085  0.00  0.00    +0.000 C 
ATOM      5  N   UNL     1       1.127   9.803  19.982  0.00  0.00    +0.000 NA
ATOM      6  C   UNL     1      -1.196  10.300  19.124  0.00  0.00    +0.000 A 
ATOM      7  C   UNL     1      -1.601   9.534  18.048  0.00  0.00    +0.000 A 
ATOM      8  C   UNL     1      -2.342  10.170  17.078  0.00  0.00    +0.000 A 
ATOM      9  C   UNL     1      -2.716  11.512  17.280  0.00  0.00    +0.000 A 
ATOM     10  C   UNL     1      -2.490  12.177  18.527  0.00  0.00    +0.000 A 
ATOM     11  C   UNL     1      -1.771  11.519  19.502  0.00  0.00    +0.000 A 
ENDROOT
BRANCH   1  15
ATOM     12  C   UNL     1      -2.373  14.270  24.144  0.00  0.00    +0.000 A 
ATOM     13  C   UNL     1      -1.200  14.388  23.432  0.00  0.00    +0.000 A 
ATOM     14  C   UNL     1      -1.024  13.659  22.269  0.00  0.00    +0.000 A 
ATOM     15  C   UNL     1      -1.938  12.678  21.835  0.00  0.00    +0.000 A 
ATOM     16  C   UNL     1      -3.177  12.651  22.477  0.00  0.00    +0.000 A 
ATOM     17  C   UNL     1      -3.391  13.455  23.636  0.00  0.00    +0.000 A 
BRANCH  12  19
ATOM     18  C   UNL     1      -1.161  15.675  25.637  0.00  0.00    +0.000 C 
ATOM     19  O   UNL     1      -2.331  14.951  25.322  0.00  0.00    +0.000 OA
ENDBRANCH  12  19
ENDBRANCH   1  15
BRANCH   5  20
ATOM     20  C   UNL     1       1.697   9.966  18.754  0.00  0.00    +0.000 C 
ATOM     21  S   UNL     1       2.120  11.455  18.113  0.00  0.00    +0.000 S 
BRANCH  20  22
ATOM     22  N   UNL     1       1.870   8.784  18.115  0.00  0.00    +0.000 N 
ATOM     23  H   UNL     1       1.072   8.439  17.603  0.00  0.00    +0.000 HD
BRANCH  22  24
ATOM     24  C   UNL     1       3.131   8.142  17.854  0.00  0.00    +0.000 C 
BRANCH  24  25
ATOM     25  C   UNL     1       3.030   6.688  18.095  0.00  0.00    +0.000 A 
ATOM     26  C   UNL     1       2.127   6.250  19.056  0.00  0.00    +0.000 A 
ATOM     27  C   UNL     1       2.062   4.898  19.365  0.00  0.00    +0.000 A 
ATOM     28  C   UNL     1       1.296   4.471  20.449  0.00  0.00    +0.000 A 
ATOM     29  C   UNL     1       1.242   3.118  20.760  0.00  0.00    +0.000 A 
ATOM     30  C   UNL     1       1.861   2.188  19.936  0.00  0.00    +0.000 A 
ATOM     31  C   UNL     1       2.628   2.605  18.843  0.00  0.00    +0.000 A 
ATOM     32  C   UNL     1       2.796   3.968  18.592  0.00  0.00    +0.000 A 
ATOM     33  C   UNL     1       3.711   4.419  17.630  0.00  0.00    +0.000 A 
ATOM     34  C   UNL     1       3.874   5.782  17.444  0.00  0.00    +0.000 A 
BRANCH  34  35
ATOM     35  O   UNL     1       4.881   6.266  16.651  0.00  0.00    +0.000 OA
ATOM     36  H   UNL     1       5.485   6.792  17.202  0.00  0.00    +0.000 HD
ENDBRANCH  34  35
ENDBRANCH  24  25
ENDBRANCH  22  24
ENDBRANCH  20  22
ENDBRANCH   5  20
TORSDOF 7
ENDMDL
MODEL 3
REMARK VINA RESULT:      -8.2      1.377      1.891
REMARK  Name = 
REMARK  8 active torsions:
REMARK  status: ('A' for Active; 'I' for Inactive)
REMARK    1  A    between atoms: C_1  and  O_2
REMARK    2  A    between atoms: O_2  and  C_3
REMARK    3  A    between atoms: C_6  and  N_7
REMARK    4  A    between atoms: N_11  and  C_12
REMARK    5  A    between atoms: C_12  and  N_14
REMARK    6  A    between atoms: N_14  and  C_15
REMARK    7  A    between atoms: C_15  and  C_16
REMARK    8  A    between atoms: C_25  and  O_26
REMARK                            x       y       z     vdW  Elec       q    Type
REMARK                         _______ _______ _______ _____ _____    ______ ____
ROOT
ATOM      1  N   UNL     1      -1.626  11.887  20.997  0.00  0.00    +0.000 N 
ATOM      2  C   UNL     1      -0.817  10.807  21.428  0.00  0.00    +0.000 C 
ATOM      3  O   UNL     1      -0.539  10.327  22.505  0.00  0.00    +0.000 OA
ATOM      4  C   UNL     1      -0.307  10.212  20.173  0.00  0.00    +0.000 C 
ATOM      5  N   UNL     1       0.970  10.021  20.029  0.00  0.00    +0.000 NA
ATOM      6  C   UNL     1      -1.396  10.430  19.246  0.00  0.00    +0.000 A 
ATOM      7  C   UNL     1      -1.808   9.643  18.188  0.00  0.00    +0.000 A 
ATOM      8  C   UNL     1      -2.603  10.247  17.240  0.00  0.00    +0.000 A 
ATOM      9  C   UNL     1      -3.018  11.576  17.448  0.00  0.00    +0.000 A 
ATOM     10  C   UNL     1      -2.775  12.256  18.683  0.00  0.00    +0.000 A 
ATOM     11  C   UNL     1      -2.002  11.630  19.636  0.00  0.00    +0.000 A 
ENDROOT
BRANCH   1  15
ATOM     12  C   UNL     1      -2.572  14.355  24.300  0.00  0.00    +0.000 A 
ATOM     13  C   UNL     1      -1.395  14.479  23.594  0.00  0.00    +0.000 A 
ATOM     14  C   UNL     1      -1.217  13.767  22.422  0.00  0.00    +0.000 A 
ATOM     15  C   UNL     1      -2.133  12.796  21.968  0.00  0.00    +0.000 A 
ATOM     16  C   UNL     1      -3.374  12.765  22.604  0.00  0.00    +0.000 A 
ATOM     17  C   UNL     1      -3.591  13.552  23.775  0.00  0.00    +0.000 A 
BRANCH  12  19
ATOM     18  C   UNL     1      -1.926  16.291  25.525  0.00  0.00    +0.000 C 
ATOM     19  O   UNL     1      -2.533  15.018  25.488  0.00  0.00    +0.000 OA
ENDBRANCH  12  19
ENDBRANCH   1  15
BRANCH   5  20
ATOM     20  C   UNL     1       1.494  10.197  18.782  0.00  0.00    +0.000 C 
ATOM     21  S   UNL     1       1.861  11.695  18.128  0.00  0.00    +0.000 S 
BRANCH  20  22
ATOM     22  N   UNL     1       1.671   9.019  18.137  0.00  0.00    +0.000 N 
ATOM     23  H   UNL     1       1.014   8.819  17.397  0.00  0.00    +0.000 HD
BRANCH  22  24
ATOM     24  C   UNL     1       2.846   8.190  18.198  0.00  0.00    +0.000 C 
BRANCH  24  25
ATOM     25  C   UNL     1       2.526   6.884  18.809  0.00  0.00    +0.000 A 
ATOM     26  C   UNL     1       2.450   5.777  17.972  0.00  0.00    +0.000 A 
ATOM     27  C   UNL     1       2.075   4.549  18.499  0.00  0.00    +0.000 A 
ATOM     28  C   UNL     1       1.818   3.477  17.644  0.00  0.00    +0.000 A 
ATOM     29  C   UNL     1       1.433   2.252  18.176  0.00  0.00    +0.000 A 
ATOM     30  C   UNL     1       1.405   2.068  19.552  0.00  0.00    +0.000 A 
ATOM     31  C   UNL     1       1.664   3.135  20.418  0.00  0.00    +0.000 A 
ATOM     32  C   UNL     1       1.928   4.403  19.899  0.00  0.00    +0.000 A 
ATOM     33  C   UNL     1       1.998   5.527  20.734  0.00  0.00    +0.000 A 
ATOM     34  C   UNL     1       2.223   6.772  20.170  0.00  0.00    +0.000 A 
BRANCH  34  35
ATOM     35  O   UNL     1       2.116   7.913  20.921  0.00  0.00    +0.000 OA
ATOM     36  H   UNL     1       2.985   8.114  21.306  0.00  0.00    +0.000 HD
ENDBRANCH  34  35
ENDBRANCH  24  25
ENDBRANCH  22  24
ENDBRANCH  20  22
ENDBRANCH   5  20
TORSDOF 7
ENDMDL
MODEL 4
REMARK VINA RESULT:      -8.1      2.292      9.442
REMARK  Name = 
REMARK  8 active torsions:
REMARK  status: ('A' for Active; 'I' for Inactive)
REMARK    1  A    between atoms: C_1  and  O_2
REMARK    2  A    between atoms: O_2  and  C_3
REMARK    3  A    between atoms: C_6  and  N_7
REMARK    4  A    between atoms: N_11  and  C_12
REMARK    5  A    between atoms: C_12  and  N_14
REMARK    6  A    between atoms: N_14  and  C_15
REMARK    7  A    between atoms: C_15  and  C_16
REMARK    8  A    between atoms: C_25  and  O_26
REMARK                            x       y       z     vdW  Elec       q    Type
REMARK                         _______ _______ _______ _____ _____    ______ ____
ROOT
ATOM      1  N   UNL     1       1.405   8.895  19.447  0.00  0.00    +0.000 N 
ATOM      2  C   UNL     1       0.671   9.610  18.468  0.00  0.00    +0.000 C 
ATOM      3  O   UNL     1       0.377   9.412  17.310  0.00  0.00    +0.000 OA
ATOM      4  C   UNL     1       0.189  10.813  19.183  0.00  0.00    +0.000 C 
ATOM      5  N   UNL     1       0.408  11.989  18.675  0.00  0.00    +0.000 NA
ATOM      6  C   UNL     1      -0.014  10.328  20.531  0.00  0.00    +0.000 A 
ATOM      7  C   UNL     1      -0.959  10.715  21.461  0.00  0.00    +0.000 A 
ATOM      8  C   UNL     1      -0.705  10.390  22.774  0.00  0.00    +0.000 A 
ATOM      9  C   UNL     1       0.432   9.616  23.075  0.00  0.00    +0.000 A 
ATOM     10  C   UNL     1       1.233   9.025  22.047  0.00  0.00    +0.000 A 
ATOM     11  C   UNL     1       0.952   9.336  20.734  0.00  0.00    +0.000 A 
ENDROOT
BRANCH   1  15
ATOM     12  C   UNL     1       3.988   5.589  18.905  0.00  0.00    +0.000 A 
ATOM     13  C   UNL     1       3.020   5.621  19.885  0.00  0.00    +0.000 A 
ATOM     14  C   UNL     1       2.094   6.648  19.904  0.00  0.00    +0.000 A 
ATOM     15  C   UNL     1       2.166   7.761  19.042  0.00  0.00    +0.000 A 
ATOM     16  C   UNL     1       3.057   7.666  17.973  0.00  0.00    +0.000 A 
ATOM     17  C   UNL     1       3.970   6.571  17.907  0.00  0.00    +0.000 A 
BRANCH  12  19
ATOM     18  C   UNL     1       4.414   3.322  19.495  0.00  0.00    +0.000 C 
ATOM     19  O   UNL     1       4.892   4.592  19.105  0.00  0.00    +0.000 OA
ENDBRANCH  12  19
ENDBRANCH   1  15
BRANCH   5  20
ATOM     20  C   UNL     1       0.659  13.009  19.543  0.00  0.00    +0.000 C 
ATOM     21  S   UNL     1       2.035  13.106  20.494  0.00  0.00    +0.000 S 
BRANCH  20  22
ATOM     22  N   UNL     1      -0.338  13.926  19.549  0.00  0.00    +0.000 N 
ATOM     23  H   UNL     1      -1.098  13.754  18.907  0.00  0.00    +0.000 HD
BRANCH  22  24
ATOM     24  C   UNL     1      -0.561  14.926  20.560  0.00  0.00    +0.000 C 
BRANCH  24  25
ATOM     25  C   UNL     1      -1.428  14.393  21.631  0.00  0.00    +0.000 A 
ATOM     26  C   UNL     1      -2.712  13.987  21.285  0.00  0.00    +0.000 A 
ATOM     27  C   UNL     1      -3.580  13.555  22.278  0.00  0.00    +0.000 A 
ATOM     28  C   UNL     1      -4.921  13.321  21.973  0.00  0.00    +0.000 A 
ATOM     29  C   UNL     1      -5.789  12.898  22.972  0.00  0.00    +0.000 A 
ATOM     30  C   UNL     1      -5.303  12.613  24.241  0.00  0.00    +0.000 A 
ATOM     31  C   UNL     1      -3.960  12.841  24.558  0.00  0.00    +0.000 A 
ATOM     32  C   UNL     1      -3.103  13.385  23.599  0.00  0.00    +0.000 A 
ATOM     33  C   UNL     1      -1.810  13.805  23.940  0.00  0.00    +0.000 A 
ATOM     34  C   UNL     1      -1.010  14.376  22.965  0.00  0.00    +0.000 A 
BRANCH  34  35
ATOM     35  O   UNL     1       0.184  14.965  23.293  0.00  0.00    +0.000 OA
ATOM     36  H   UNL     1       0.147  15.248  24.221  0.00  0.00    +0.000 HD
ENDBRANCH  34  35
ENDBRANCH  24  25
ENDBRANCH  22  24
ENDBRANCH  20  22
ENDBRANCH   5  20
TORSDOF 7
ENDMDL
MODEL 5
REMARK VINA RESULT:      -8.1      2.305      9.492
REMARK  Name = 
REMARK  8 active torsions:
REMARK  status: ('A' for Active; 'I' for Inactive)
REMARK    1  A    between atoms: C_1  and  O_2
REMARK    2  A    between atoms: O_2  and  C_3
REMARK    3  A    between atoms: C_6  and  N_7
REMARK    4  A    between atoms: N_11  and  C_12
REMARK    5  A    between atoms: C_12  and  N_14
REMARK    6  A    between atoms: N_14  and  C_15
REMARK    7  A    between atoms: C_15  and  C_16
REMARK    8  A    between atoms: C_25  and  O_26
REMARK                            x       y       z     vdW  Elec       q    Type
REMARK                         _______ _______ _______ _____ _____    ______ ____
ROOT
ATOM      1  N   UNL     1       1.464   8.767  19.670  0.00  0.00    +0.000 N 
ATOM      2  C   UNL     1       0.849   9.455  18.595  0.00  0.00    +0.000 C 
ATOM      3  O   UNL     1       0.656   9.208  17.425  0.00  0.00    +0.000 OA
ATOM      4  C   UNL     1       0.348  10.707  19.204  0.00  0.00    +0.000 C 
ATOM      5  N   UNL     1       0.655  11.848  18.663  0.00  0.00    +0.000 NA
ATOM      6  C   UNL     1       0.006  10.298  20.548  0.00  0.00    +0.000 A 
ATOM      7  C   UNL     1      -1.006  10.762  21.367  0.00  0.00    +0.000 A 
ATOM      8  C   UNL     1      -0.885  10.495  22.712  0.00  0.00    +0.000 A 
ATOM      9  C   UNL     1       0.191   9.702  23.154  0.00  0.00    +0.000 A 
ATOM     10  C   UNL     1       1.061   9.035  22.234  0.00  0.00    +0.000 A 
ATOM     11  C   UNL     1       0.912   9.287  20.888  0.00  0.00    +0.000 A 
ENDROOT
BRANCH   1  15
ATOM     12  C   UNL     1       3.372   5.295  18.187  0.00  0.00    +0.000 A 
ATOM     13  C   UNL     1       3.557   6.540  17.626  0.00  0.00    +0.000 A 
ATOM     14  C   UNL     1       3.048   7.661  18.256  0.00  0.00    +0.000 A 
ATOM     15  C   UNL     1       2.217   7.591  19.392  0.00  0.00    +0.000 A 
ATOM     16  C   UNL     1       2.139   6.354  20.033  0.00  0.00    +0.000 A 
ATOM     17  C   UNL     1       2.724   5.203  19.424  0.00  0.00    +0.000 A 
BRANCH  12  19
ATOM     18  C   UNL     1       4.924   4.553  16.540  0.00  0.00    +0.000 C 
ATOM     19  O   UNL     1       3.819   4.295  17.380  0.00  0.00    +0.000 OA
ENDBRANCH  12  19
ENDBRANCH   1  15
BRANCH   5  20
ATOM     20  C   UNL     1       0.863  12.903  19.501  0.00  0.00    +0.000 C 
ATOM     21  S   UNL     1       2.189  13.039  20.517  0.00  0.00    +0.000 S 
BRANCH  20  22
ATOM     22  N   UNL     1      -0.132  13.819  19.419  0.00  0.00    +0.000 N 
ATOM     23  H   UNL     1      -0.873  13.606  18.768  0.00  0.00    +0.000 HD
BRANCH  22  24
ATOM     24  C   UNL     1      -0.381  14.881  20.357  0.00  0.00    +0.000 C 
BRANCH  24  25
ATOM     25  C   UNL     1      -1.263  14.413  21.446  0.00  0.00    +0.000 A 
ATOM     26  C   UNL     1      -2.545  13.996  21.110  0.00  0.00    +0.000 A 
ATOM     27  C   UNL     1      -3.426  13.625  22.116  0.00  0.00    +0.000 A 
ATOM     28  C   UNL     1      -4.765  13.381  21.810  0.00  0.00    +0.000 A 
ATOM     29  C   UNL     1      -5.645  13.018  22.822  0.00  0.00    +0.000 A 
ATOM     30  C   UNL     1      -5.174  12.800  24.110  0.00  0.00    +0.000 A 
ATOM     31  C   UNL     1      -3.833  13.038  24.427  0.00  0.00    +0.000 A 
ATOM     32  C   UNL     1      -2.964  13.523  23.450  0.00  0.00    +0.000 A 
ATOM     33  C   UNL     1      -1.671  13.955  23.780  0.00  0.00    +0.000 A 
ATOM     34  C   UNL     1      -0.857  14.467  22.784  0.00  0.00    +0.000 A 
BRANCH  34  35
ATOM     35  O   UNL     1       0.336  15.066  23.091  0.00  0.00    +0.000 OA
ATOM     36  H   UNL     1       0.237  15.547  23.929  0.00  0.00    +0.000 HD
ENDBRANCH  34  35
ENDBRANCH  24  25
ENDBRANCH  22  24
ENDBRANCH  20  22
ENDBRANCH   5  20
TORSDOF 7
ENDMDL
MODEL 6
REMARK VINA RESULT:      -8.0      1.073      1.124
REMARK  Name = 
REMARK  8 active torsions:
REMARK  status: ('A' for Active; 'I' for Inactive)
REMARK    1  A    between atoms: C_1  and  O_2
REMARK    2  A    between atoms: O_2  and  C_3
REMARK    3  A    between atoms: C_6  and  N_7
REMARK    4  A    between atoms: N_11  and  C_12
REMARK    5  A    between atoms: C_12  and  N_14
REMARK    6  A    between atoms: N_14  and  C_15
REMARK    7  A    between atoms: C_15  and  C_16
REMARK    8  A    between atoms: C_25  and  O_26
REMARK                            x       y       z     vdW  Elec       q    Type
REMARK                         _______ _______ _______ _____ _____    ______ ____
ROOT
ATOM      1  N   UNL     1      -1.445  11.816  21.341  0.00  0.00    +0.000 N 
ATOM      2  C   UNL     1      -0.637  10.692  21.644  0.00  0.00    +0.000 C 
ATOM      3  O   UNL     1      -0.318  10.123  22.665  0.00  0.00    +0.000 OA
ATOM      4  C   UNL     1      -0.199  10.193  20.322  0.00  0.00    +0.000 C 
ATOM      5  N   UNL     1       1.066   9.995  20.101  0.00  0.00    +0.000 NA
ATOM      6  C   UNL     1      -1.327  10.503  19.470  0.00  0.00    +0.000 A 
ATOM      7  C   UNL     1      -1.803   9.810  18.374  0.00  0.00    +0.000 A 
ATOM      8  C   UNL     1      -2.631  10.501  17.518  0.00  0.00    +0.000 A 
ATOM      9  C   UNL     1      -3.010  11.815  17.851  0.00  0.00    +0.000 A 
ATOM     10  C   UNL     1      -2.695  12.389  19.124  0.00  0.00    +0.000 A 
ATOM     11  C   UNL     1      -1.890  11.676  19.985  0.00  0.00    +0.000 A 
ENDROOT
BRANCH   1  15
ATOM     12  C   UNL     1      -3.251  14.549  24.018  0.00  0.00    +0.000 A 
ATOM     13  C   UNL     1      -3.935  13.487  23.469  0.00  0.00    +0.000 A 
ATOM     14  C   UNL     1      -3.251  12.529  22.742  0.00  0.00    +0.000 A 
ATOM     15  C   UNL     1      -1.888  12.651  22.406  0.00  0.00    +0.000 A 
ATOM     16  C   UNL     1      -1.170  13.649  23.066  0.00  0.00    +0.000 A 
ATOM     17  C   UNL     1      -1.860  14.599  23.877  0.00  0.00    +0.000 A 
BRANCH  12  19
ATOM     18  C   UNL     1      -5.296  15.766  23.927  0.00  0.00    +0.000 C 
ATOM     19  O   UNL     1      -4.086  15.461  24.587  0.00  0.00    +0.000 OA
ENDBRANCH  12  19
ENDBRANCH   1  15
BRANCH   5  20
ATOM     20  C   UNL     1       1.532  10.263  18.848  0.00  0.00    +0.000 C 
ATOM     21  S   UNL     1       1.818  11.810  18.271  0.00  0.00    +0.000 S 
BRANCH  20  22
ATOM     22  N   UNL     1       1.728   9.132  18.129  0.00  0.00    +0.000 N 
ATOM     23  H   UNL     1       0.931   8.798  17.608  0.00  0.00    +0.000 HD
BRANCH  22  24
ATOM     24  C   UNL     1       3.002   8.547  17.803  0.00  0.00    +0.000 C 
BRANCH  24  25
ATOM     25  C   UNL     1       3.010   7.108  18.136  0.00  0.00    +0.000 A 
ATOM     26  C   UNL     1       2.289   6.695  19.250  0.00  0.00    +0.000 A 
ATOM     27  C   UNL     1       2.337   5.363  19.638  0.00  0.00    +0.000 A 
ATOM     28  C   UNL     1       1.770   4.973  20.851  0.00  0.00    +0.000 A 
ATOM     29  C   UNL     1       1.829   3.641  21.239  0.00  0.00    +0.000 A 
ATOM     30  C   UNL     1       2.357   2.687  20.379  0.00  0.00    +0.000 A 
ATOM     31  C   UNL     1       2.925   3.066  19.159  0.00  0.00    +0.000 A 
ATOM     32  C   UNL     1       2.986   4.417  18.810  0.00  0.00    +0.000 A 
ATOM     33  C   UNL     1       3.719   4.844  17.694  0.00  0.00    +0.000 A 
ATOM     34  C   UNL     1       3.785   6.197  17.410  0.00  0.00    +0.000 A 
BRANCH  34  35
ATOM     35  O   UNL     1       4.633   6.672  16.444  0.00  0.00    +0.000 OA
ATOM     36  H   UNL     1       4.111   6.902  15.657  0.00  0.00    +0.000 HD
ENDBRANCH  34  35
ENDBRANCH  24  25
ENDBRANCH  22  24
ENDBRANCH  20  22
ENDBRANCH   5  20
TORSDOF 7
ENDMDL
MODEL 7
REMARK VINA RESULT:      -8.0      1.982      2.393
REMARK  Name = 
REMARK  8 active torsions:
REMARK  status: ('A' for Active; 'I' for Inactive)
REMARK    1  A    between atoms: C_1  and  O_2
REMARK    2  A    between atoms: O_2  and  C_3
REMARK    3  A    between atoms: C_6  and  N_7
REMARK    4  A    between atoms: N_11  and  C_12
REMARK    5  A    between atoms: C_12  and  N_14
REMARK    6  A    between atoms: N_14  and  C_15
REMARK    7  A    between atoms: C_15  and  C_16
REMARK    8  A    between atoms: C_25  and  O_26
REMARK                            x       y       z     vdW  Elec       q    Type
REMARK                         _______ _______ _______ _____ _____    ______ ____
ROOT
ATOM      1  N   UNL     1      -1.952  12.218  20.126  0.00  0.00    +0.000 N 
ATOM      2  C   UNL     1      -1.142  11.317  20.860  0.00  0.00    +0.000 C 
ATOM      3  O   UNL     1      -0.981  11.082  22.037  0.00  0.00    +0.000 OA
ATOM      4  C   UNL     1      -0.433  10.538  19.821  0.00  0.00    +0.000 C 
ATOM      5  N   UNL     1       0.862  10.437  19.870  0.00  0.00    +0.000 NA
ATOM      6  C   UNL     1      -1.400  10.477  18.747  0.00  0.00    +0.000 A 
ATOM      7  C   UNL     1      -1.617   9.467  17.829  0.00  0.00    +0.000 A 
ATOM      8  C   UNL     1      -2.314   9.803  16.691  0.00  0.00    +0.000 A 
ATOM      9  C   UNL     1      -2.836  11.106  16.574  0.00  0.00    +0.000 A 
ATOM     10  C   UNL     1      -2.803  12.030  17.666  0.00  0.00    +0.000 A 
ATOM     11  C   UNL     1      -2.126  11.671  18.811  0.00  0.00    +0.000 A 
ENDROOT
BRANCH   1  15
ATOM     12  C   UNL     1      -4.510  15.207  21.682  0.00  0.00    +0.000 A 
ATOM     13  C   UNL     1      -4.883  13.883  21.596  0.00  0.00    +0.000 A 
ATOM     14  C   UNL     1      -3.948  12.927  21.244  0.00  0.00    +0.000 A 
ATOM     15  C   UNL     1      -2.641  13.250  20.826  0.00  0.00    +0.000 A 
ATOM     16  C   UNL     1      -2.225  14.565  21.038  0.00  0.00    +0.000 A 
ATOM     17  C   UNL     1      -3.168  15.545  21.471  0.00  0.00    +0.000 A 
BRANCH  12  19
ATOM     18  C   UNL     1      -6.839  15.632  21.434  0.00  0.00    +0.000 C 
ATOM     19  O   UNL     1      -5.571  16.028  21.911  0.00  0.00    +0.000 OA
ENDBRANCH  12  19
ENDBRANCH   1  15
BRANCH   5  20
ATOM     20  C   UNL     1       1.535  10.413  18.685  0.00  0.00    +0.000 C 
ATOM     21  S   UNL     1       2.161  11.779  17.942  0.00  0.00    +0.000 S 
BRANCH  20  22
ATOM     22  N   UNL     1       1.627   9.160  18.180  0.00  0.00    +0.000 N 
ATOM     23  H   UNL     1       0.876   8.876  17.567  0.00  0.00    +0.000 HD
BRANCH  22  24
ATOM     24  C   UNL     1       2.802   8.330  18.188  0.00  0.00    +0.000 C 
BRANCH  24  25
ATOM     25  C   UNL     1       2.501   7.015  18.791  0.00  0.00    +0.000 A 
ATOM     26  C   UNL     1       2.526   5.900  17.961  0.00  0.00    +0.000 A 
ATOM     27  C   UNL     1       2.173   4.660  18.476  0.00  0.00    +0.000 A 
ATOM     28  C   UNL     1       2.017   3.572  17.617  0.00  0.00    +0.000 A 
ATOM     29  C   UNL     1       1.653   2.335  18.135  0.00  0.00    +0.000 A 
ATOM     30  C   UNL     1       1.546   2.160  19.509  0.00  0.00    +0.000 A 
ATOM     31  C   UNL     1       1.704   3.243  20.379  0.00  0.00    +0.000 A 
ATOM     32  C   UNL     1       1.945   4.518  19.865  0.00  0.00    +0.000 A 
ATOM     33  C   UNL     1       1.913   5.650  20.692  0.00  0.00    +0.000 A 
ATOM     34  C   UNL     1       2.119   6.899  20.131  0.00  0.00    +0.000 A 
BRANCH  34  35
ATOM     35  O   UNL     1       1.915   8.039  20.863  0.00  0.00    +0.000 OA
ATOM     36  H   UNL     1       2.745   8.273  21.312  0.00  0.00    +0.000 HD
ENDBRANCH  34  35
ENDBRANCH  24  25
ENDBRANCH  22  24
ENDBRANCH  20  22
ENDBRANCH   5  20
TORSDOF 7
ENDMDL
MODEL 8
REMARK VINA RESULT:      -7.9      2.513      9.730
REMARK  Name = 
REMARK  8 active torsions:
REMARK  status: ('A' for Active; 'I' for Inactive)
REMARK    1  A    between atoms: C_1  and  O_2
REMARK    2  A    between atoms: O_2  and  C_3
REMARK    3  A    between atoms: C_6  and  N_7
REMARK    4  A    between atoms: N_11  and  C_12
REMARK    5  A    between atoms: C_12  and  N_14
REMARK    6  A    between atoms: N_14  and  C_15
REMARK    7  A    between atoms: C_15  and  C_16
REMARK    8  A    between atoms: C_25  and  O_26
REMARK                            x       y       z     vdW  Elec       q    Type
REMARK                         _______ _______ _______ _____ _____    ______ ____
ROOT
ATOM      1  N   UNL     1       1.291   9.098  19.580  0.00  0.00    +0.000 N 
ATOM      2  C   UNL     1       0.541   9.905  18.689  0.00  0.00    +0.000 C 
ATOM      3  O   UNL     1       0.209   9.810  17.528  0.00  0.00    +0.000 OA
ATOM      4  C   UNL     1       0.101  11.049  19.518  0.00  0.00    +0.000 C 
ATOM      5  N   UNL     1       0.325  12.261  19.105  0.00  0.00    +0.000 NA
ATOM      6  C   UNL     1      -0.069  10.454  20.826  0.00  0.00    +0.000 A 
ATOM      7  C   UNL     1      -0.979  10.775  21.814  0.00  0.00    +0.000 A 
ATOM      8  C   UNL     1      -0.692  10.335  23.087  0.00  0.00    +0.000 A 
ATOM      9  C   UNL     1       0.441   9.522  23.285  0.00  0.00    +0.000 A 
ATOM     10  C   UNL     1       1.200   9.009  22.187  0.00  0.00    +0.000 A 
ATOM     11  C   UNL     1       0.885   9.434  20.914  0.00  0.00    +0.000 A 
ENDROOT
BRANCH   1  15
ATOM     12  C   UNL     1       3.859   5.870  18.642  0.00  0.00    +0.000 A 
ATOM     13  C   UNL     1       3.024   5.859  19.738  0.00  0.00    +0.000 A 
ATOM     14  C   UNL     1       2.084   6.861  19.897  0.00  0.00    +0.000 A 
ATOM     15  C   UNL     1       2.020   7.992  19.058  0.00  0.00    +0.000 A 
ATOM     16  C   UNL     1       2.770   7.940  17.882  0.00  0.00    +0.000 A 
ATOM     17  C   UNL     1       3.691   6.869  17.677  0.00  0.00    +0.000 A 
BRANCH  12  19
ATOM     18  C   UNL     1       6.066   5.214  19.248  0.00  0.00    +0.000 C 
ATOM     19  O   UNL     1       4.804   4.892  18.704  0.00  0.00    +0.000 OA
ENDBRANCH  12  19
ENDBRANCH   1  15
BRANCH   5  20
ATOM     20  C   UNL     1       0.620  13.200  20.048  0.00  0.00    +0.000 C 
ATOM     21  S   UNL     1       2.119  13.344  20.783  0.00  0.00    +0.000 S 
BRANCH  20  22
ATOM     22  N   UNL     1      -0.443  13.993  20.323  0.00  0.00    +0.000 N 
ATOM     23  H   UNL     1      -1.211  13.941  19.670  0.00  0.00    +0.000 HD
BRANCH  22  24
ATOM     24  C   UNL     1      -0.703  14.654  21.574  0.00  0.00    +0.000 C 
BRANCH  24  25
ATOM     25  C   UNL     1      -2.120  14.490  21.961  0.00  0.00    +0.000 A 
ATOM     26  C   UNL     1      -2.406  13.668  23.044  0.00  0.00    +0.000 A 
ATOM     27  C   UNL     1      -3.730  13.429  23.387  0.00  0.00    +0.000 A 
ATOM     28  C   UNL     1      -4.034  12.468  24.351  0.00  0.00    +0.000 A 
ATOM     29  C   UNL     1      -5.361  12.225  24.684  0.00  0.00    +0.000 A 
ATOM     30  C   UNL     1      -6.370  13.005  24.135  0.00  0.00    +0.000 A 
ATOM     31  C   UNL     1      -6.077  13.974  23.171  0.00  0.00    +0.000 A 
ATOM     32  C   UNL     1      -4.762  14.143  22.734  0.00  0.00    +0.000 A 
ATOM     33  C   UNL     1      -4.464  14.963  21.636  0.00  0.00    +0.000 A 
ATOM     34  C   UNL     1      -3.150  15.069  21.212  0.00  0.00    +0.000 A 
BRANCH  34  35
ATOM     35  O   UNL     1      -2.839  15.707  20.040  0.00  0.00    +0.000 OA
ATOM     36  H   UNL     1      -3.661  16.029  19.633  0.00  0.00    +0.000 HD
ENDBRANCH  34  35
ENDBRANCH  24  25
ENDBRANCH  22  24
ENDBRANCH  20  22
ENDBRANCH   5  20
TORSDOF 7
ENDMDL
MODEL 9
REMARK VINA RESULT:      -7.9      1.353      2.426
REMARK  Name = 
REMARK  8 active torsions:
REMARK  status: ('A' for Active; 'I' for Inactive)
REMARK    1  A    between atoms: C_1  and  O_2
REMARK    2  A    between atoms: O_2  and  C_3
REMARK    3  A    between atoms: C_6  and  N_7
REMARK    4  A    between atoms: N_11  and  C_12
REMARK    5  A    between atoms: C_12  and  N_14
REMARK    6  A    between atoms: N_14  and  C_15
REMARK    7  A    between atoms: C_15  and  C_16
REMARK    8  A    between atoms: C_25  and  O_26
REMARK                            x       y       z     vdW  Elec       q    Type
REMARK                         _______ _______ _______ _____ _____    ______ ____
ROOT
ATOM      1  N   UNL     1      -1.368  11.712  20.836  0.00  0.00    +0.000 N 
ATOM      2  C   UNL     1      -0.755  10.533  21.329  0.00  0.00    +0.000 C 
ATOM      3  O   UNL     1      -0.658  10.017  22.420  0.00  0.00    +0.000 OA
ATOM      4  C   UNL     1      -0.194   9.884  20.124  0.00  0.00    +0.000 C 
ATOM      5  N   UNL     1       1.056   9.530  20.111  0.00  0.00    +0.000 NA
ATOM      6  C   UNL     1      -1.141  10.247  19.091  0.00  0.00    +0.000 A 
ATOM      7  C   UNL     1      -1.535   9.525  17.981  0.00  0.00    +0.000 A 
ATOM      8  C   UNL     1      -2.140  10.231  16.966  0.00  0.00    +0.000 A 
ATOM      9  C   UNL     1      -2.401  11.602  17.155  0.00  0.00    +0.000 A 
ATOM     10  C   UNL     1      -2.207  12.238  18.421  0.00  0.00    +0.000 A 
ATOM     11  C   UNL     1      -1.626  11.513  19.439  0.00  0.00    +0.000 A 
ENDROOT
BRANCH   1  15
ATOM     12  C   UNL     1      -2.324  14.277  24.061  0.00  0.00    +0.000 A 
ATOM     13  C   UNL     1      -1.082  14.267  23.464  0.00  0.00    +0.000 A 
ATOM     14  C   UNL     1      -0.881  13.537  22.306  0.00  0.00    +0.000 A 
ATOM     15  C   UNL     1      -1.855  12.674  21.766  0.00  0.00    +0.000 A 
ATOM     16  C   UNL     1      -3.144  12.782  22.288  0.00  0.00    +0.000 A 
ATOM     17  C   UNL     1      -3.375  13.592  23.441  0.00  0.00    +0.000 A 
BRANCH  12  19
ATOM     18  C   UNL     1      -2.830  16.248  25.296  0.00  0.00    +0.000 C 
ATOM     19  O   UNL     1      -2.318  14.934  25.253  0.00  0.00    +0.000 OA
ENDBRANCH  12  19
ENDBRANCH   1  15
BRANCH   5  20
ATOM     20  C   UNL     1       1.728   9.643  18.930  0.00  0.00    +0.000 C 
ATOM     21  S   UNL     1       2.044  11.105  18.174  0.00  0.00    +0.000 S 
BRANCH  20  22
ATOM     22  N   UNL     1       2.098   8.436  18.441  0.00  0.00    +0.000 N 
ATOM     23  H   UNL     1       2.441   8.431  17.492  0.00  0.00    +0.000 HD
BRANCH  22  24
ATOM     24  C   UNL     1       2.329   7.245  19.216  0.00  0.00    +0.000 C 
BRANCH  24  25
ATOM     25  C   UNL     1       3.049   6.237  18.411  0.00  0.00    +0.000 A 
ATOM     26  C   UNL     1       4.021   6.687  17.525  0.00  0.00    +0.000 A 
ATOM     27  C   UNL     1       4.662   5.776  16.697  0.00  0.00    +0.000 A 
ATOM     28  C   UNL     1       5.502   6.233  15.682  0.00  0.00    +0.000 A 
ATOM     29  C   UNL     1       6.135   5.318  14.850  0.00  0.00    +0.000 A 
ATOM     30  C   UNL     1       6.012   3.957  15.092  0.00  0.00    +0.000 A 
ATOM     31  C   UNL     1       5.176   3.487  16.109  0.00  0.00    +0.000 A 
ATOM     32  C   UNL     1       4.436   4.390  16.873  0.00  0.00    +0.000 A 
ATOM     33  C   UNL     1       3.447   3.946  17.763  0.00  0.00    +0.000 A 
ATOM     34  C   UNL     1       2.710   4.881  18.470  0.00  0.00    +0.000 A 
BRANCH  34  35
ATOM     35  O   UNL     1       1.618   4.503  19.206  0.00  0.00    +0.000 OA
ATOM     36  H   UNL     1       1.915   4.248  20.095  0.00  0.00    +0.000 HD
ENDBRANCH  34  35
ENDBRANCH  24  25
ENDBRANCH  22  24
ENDBRANCH  20  22
ENDBRANCH   5  20
TORSDOF 7
ENDMDL
