MODEL 1
REMARK VINA RESULT:      -7.1      0.000      0.000
REMARK  Name = 
REMARK  7 active torsions:
REMARK  status: ('A' for Active; 'I' for Inactive)
REMARK    1  A    between atoms: C_1  and  C_2
REMARK    2  A    between atoms: C_2  and  C_3
REMARK    3  A    between atoms: C_3  and  C_4
REMARK    4  A    between atoms: C_3  and  C_5
REMARK    5  A    between atoms: C_3  and  O_6
REMARK    6  A    between atoms: O_6  and  C_7
REMARK    7  A    between atoms: C_10  and  C_11
REMARK                            x       y       z     vdW  Elec       q    Type
REMARK                         _______ _______ _______ _____ _____    ______ ____
ROOT
ATOM      1  C   UNL     1       4.227   5.164  18.957  0.00  0.00    +0.000 A 
ATOM      2  C   UNL     1       3.924   6.074  17.940  0.00  0.00    +0.000 A 
ATOM      3  C   UNL     1       4.783   6.241  16.850  0.00  0.00    +0.000 A 
ATOM      4  C   UNL     1       5.964   5.500  16.772  0.00  0.00    +0.000 A 
ATOM      5  C   UNL     1       6.295   4.630  17.812  0.00  0.00    +0.000 A 
ATOM      6  C   UNL     1       5.440   4.483  18.908  0.00  0.00    +0.000 A 
ENDROOT
BRANCH   4   7
ATOM      7  C   UNL     1       6.852   5.644  15.620  0.00  0.00    +0.000 C 
ATOM      8  C   UNL     1       6.730   4.963  14.475  0.00  0.00    +0.000 C 
ATOM      9  S   UNL     1       5.547   3.780  14.058  0.00  0.00    +0.000 S 
ATOM     10  C   UNL     1       6.285   3.479  12.501  0.00  0.00    +0.000 C 
ATOM     11  O   UNL     1       5.879   2.659  11.693  0.00  0.00    +0.000 OA
ATOM     12  N   UNL     1       7.361   4.288  12.336  0.00  0.00    +0.000 N 
ATOM     13  C   UNL     1       7.688   5.136  13.351  0.00  0.00    +0.000 C 
ATOM     14  O   UNL     1       8.628   5.912  13.336  0.00  0.00    +0.000 OA
ATOM     15  H   UNL     1       7.911   4.249  11.494  0.00  0.00    +0.000 HD
ENDBRANCH   4   7
BRANCH   1  16
ATOM     16  O   UNL     1       3.281   5.058  19.931  0.00  0.00    +0.000 OA
BRANCH  16  17
ATOM     17  C   UNL     1       2.416   3.913  20.061  0.00  0.00    +0.000 C 
ATOM     18  C   UNL     1       1.044   4.367  20.587  0.00  0.00    +0.000 C 
ATOM     19  C   UNL     1       2.986   2.752  20.900  0.00  0.00    +0.000 C 
BRANCH  17  21
ATOM     20  C   UNL     1       2.675   1.967  18.367  0.00  0.00    +0.000 C 
ATOM     21  C   UNL     1       2.200   3.397  18.607  0.00  0.00    +0.000 C 
ENDBRANCH  17  21
ENDBRANCH  16  17
ENDBRANCH   1  16
TORSDOF 4
ENDMDL
MODEL 2
REMARK VINA RESULT:      -7.0      0.438      1.275
REMARK  Name = 
REMARK  7 active torsions:
REMARK  status: ('A' for Active; 'I' for Inactive)
REMARK    1  A    between atoms: C_1  and  C_2
REMARK    2  A    between atoms: C_2  and  C_3
REMARK    3  A    between atoms: C_3  and  C_4
REMARK    4  A    between atoms: C_3  and  C_5
REMARK    5  A    between atoms: C_3  and  O_6
REMARK    6  A    between atoms: O_6  and  C_7
REMARK    7  A    between atoms: C_10  and  C_11
REMARK                            x       y       z     vdW  Elec       q    Type
REMARK                         _______ _______ _______ _____ _____    ______ ____
ROOT
ATOM      1  C   UNL     1       4.328   5.201  18.913  0.00  0.00    +0.000 A 
ATOM      2  C   UNL     1       4.040   6.139  17.917  0.00  0.00    +0.000 A 
ATOM      3  C   UNL     1       4.886   6.297  16.816  0.00  0.00    +0.000 A 
ATOM      4  C   UNL     1       6.039   5.517  16.705  0.00  0.00    +0.000 A 
ATOM      5  C   UNL     1       6.357   4.617  17.723  0.00  0.00    +0.000 A 
ATOM      6  C   UNL     1       5.515   4.479  18.831  0.00  0.00    +0.000 A 
ENDROOT
BRANCH   4   7
ATOM      7  C   UNL     1       6.912   5.651  15.540  0.00  0.00    +0.000 C 
ATOM      8  C   UNL     1       6.774   4.963  14.402  0.00  0.00    +0.000 C 
ATOM      9  S   UNL     1       5.583   3.780  14.008  0.00  0.00    +0.000 S 
ATOM     10  C   UNL     1       6.299   3.468  12.443  0.00  0.00    +0.000 C 
ATOM     11  O   UNL     1       5.882   2.643  11.646  0.00  0.00    +0.000 OA
ATOM     12  N   UNL     1       7.375   4.272  12.259  0.00  0.00    +0.000 N 
ATOM     13  C   UNL     1       7.717   5.126  13.264  0.00  0.00    +0.000 C 
ATOM     14  O   UNL     1       8.659   5.900  13.231  0.00  0.00    +0.000 OA
ATOM     15  H   UNL     1       7.914   4.226  11.410  0.00  0.00    +0.000 HD
ENDBRANCH   4   7
BRANCH   1  16
ATOM     16  O   UNL     1       3.395   5.110  19.901  0.00  0.00    +0.000 OA
BRANCH  16  17
ATOM     17  C   UNL     1       2.300   4.174  19.860  0.00  0.00    +0.000 C 
ATOM     18  C   UNL     1       2.117   3.666  18.421  0.00  0.00    +0.000 C 
ATOM     19  C   UNL     1       0.973   4.691  20.450  0.00  0.00    +0.000 C 
BRANCH  17  21
ATOM     20  C   UNL     1       1.782   2.535  21.802  0.00  0.00    +0.000 C 
ATOM     21  C   UNL     1       2.768   2.960  20.718  0.00  0.00    +0.000 C 
ENDBRANCH  17  21
ENDBRANCH  16  17
ENDBRANCH   1  16
TORSDOF 4
ENDMDL
MODEL 3
REMARK VINA RESULT:      -6.8      0.582      1.881
REMARK  Name = 
REMARK  7 active torsions:
REMARK  status: ('A' for Active; 'I' for Inactive)
REMARK    1  A    between atoms: C_1  and  C_2
REMARK    2  A    between atoms: C_2  and  C_3
REMARK    3  A    between atoms: C_3  and  C_4
REMARK    4  A    between atoms: C_3  and  C_5
REMARK    5  A    between atoms: C_3  and  O_6
REMARK    6  A    between atoms: O_6  and  C_7
REMARK    7  A    between atoms: C_10  and  C_11
REMARK                            x       y       z     vdW  Elec       q    Type
REMARK                         _______ _______ _______ _____ _____    ______ ____
ROOT
ATOM      1  C   UNL     1       4.316   5.190  18.817  0.00  0.00    +0.000 A 
ATOM      2  C   UNL     1       5.369   4.294  18.610  0.00  0.00    +0.000 A 
ATOM      3  C   UNL     1       6.205   4.416  17.496  0.00  0.00    +0.000 A 
ATOM      4  C   UNL     1       5.988   5.438  16.571  0.00  0.00    +0.000 A 
ATOM      5  C   UNL     1       4.906   6.302  16.746  0.00  0.00    +0.000 A 
ATOM      6  C   UNL     1       4.063   6.161  17.853  0.00  0.00    +0.000 A 
ENDROOT
BRANCH   4   7
ATOM      7  C   UNL     1       6.877   5.594  15.421  0.00  0.00    +0.000 C 
ATOM      8  C   UNL     1       6.766   4.914  14.275  0.00  0.00    +0.000 C 
ATOM      9  S   UNL     1       5.598   3.718  13.853  0.00  0.00    +0.000 S 
ATOM     10  C   UNL     1       6.343   3.429  12.297  0.00  0.00    +0.000 C 
ATOM     11  O   UNL     1       5.949   2.605  11.486  0.00  0.00    +0.000 OA
ATOM     12  N   UNL     1       7.410   4.249  12.137  0.00  0.00    +0.000 N 
ATOM     13  C   UNL     1       7.725   5.099  13.153  0.00  0.00    +0.000 C 
ATOM     14  O   UNL     1       8.657   5.886  13.142  0.00  0.00    +0.000 OA
ATOM     15  H   UNL     1       7.963   4.218  11.296  0.00  0.00    +0.000 HD
ENDBRANCH   4   7
BRANCH   1  16
ATOM     16  O   UNL     1       3.614   4.993  19.967  0.00  0.00    +0.000 OA
BRANCH  16  17
ATOM     17  C   UNL     1       2.447   4.150  20.038  0.00  0.00    +0.000 C 
ATOM     18  C   UNL     1       2.730   2.964  20.973  0.00  0.00    +0.000 C 
ATOM     19  C   UNL     1       1.897   3.678  18.676  0.00  0.00    +0.000 C 
BRANCH  17  21
ATOM     20  C   UNL     1       1.618   6.525  20.668  0.00  0.00    +0.000 C 
ATOM     21  C   UNL     1       1.354   5.023  20.723  0.00  0.00    +0.000 C 
ENDBRANCH  17  21
ENDBRANCH  16  17
ENDBRANCH   1  16
TORSDOF 4
ENDMDL
MODEL 4
REMARK VINA RESULT:      -6.8      6.176      8.147
REMARK  Name = 
REMARK  7 active torsions:
REMARK  status: ('A' for Active; 'I' for Inactive)
REMARK    1  A    between atoms: C_1  and  C_2
REMARK    2  A    between atoms: C_2  and  C_3
REMARK    3  A    between atoms: C_3  and  C_4
REMARK    4  A    between atoms: C_3  and  C_5
REMARK    5  A    between atoms: C_3  and  O_6
REMARK    6  A    between atoms: O_6  and  C_7
REMARK    7  A    between atoms: C_10  and  C_11
REMARK                            x       y       z     vdW  Elec       q    Type
REMARK                         _______ _______ _______ _____ _____    ______ ____
ROOT
ATOM      1  C   UNL     1       2.435   6.874  19.386  0.00  0.00    +0.000 A 
ATOM      2  C   UNL     1       2.476   7.530  18.152  0.00  0.00    +0.000 A 
ATOM      3  C   UNL     1       1.914   8.800  17.997  0.00  0.00    +0.000 A 
ATOM      4  C   UNL     1       1.295   9.426  19.081  0.00  0.00    +0.000 A 
ATOM      5  C   UNL     1       1.206   8.752  20.300  0.00  0.00    +0.000 A 
ATOM      6  C   UNL     1       1.754   7.474  20.441  0.00  0.00    +0.000 A 
ENDROOT
BRANCH   4   7
ATOM      7  C   UNL     1       0.734  10.768  18.937  0.00  0.00    +0.000 C 
ATOM      8  C   UNL     1      -0.480  11.037  18.443  0.00  0.00    +0.000 C 
ATOM      9  S   UNL     1      -1.666   9.927  17.865  0.00  0.00    +0.000 S 
ATOM     10  C   UNL     1      -2.757  11.215  17.404  0.00  0.00    +0.000 C 
ATOM     11  O   UNL     1      -3.843  11.041  16.873  0.00  0.00    +0.000 OA
ATOM     12  N   UNL     1      -2.214  12.415  17.723  0.00  0.00    +0.000 N 
ATOM     13  C   UNL     1      -0.979  12.430  18.296  0.00  0.00    +0.000 C 
ATOM     14  O   UNL     1      -0.376  13.436  18.630  0.00  0.00    +0.000 OA
ATOM     15  H   UNL     1      -2.706  13.272  17.525  0.00  0.00    +0.000 HD
ENDBRANCH   4   7
BRANCH   1  16
ATOM     16  O   UNL     1       3.067   5.668  19.415  0.00  0.00    +0.000 OA
BRANCH  16  17
ATOM     17  C   UNL     1       2.383   4.420  19.191  0.00  0.00    +0.000 C 
ATOM     18  C   UNL     1       3.367   3.256  19.388  0.00  0.00    +0.000 C 
ATOM     19  C   UNL     1       1.641   4.311  17.844  0.00  0.00    +0.000 C 
BRANCH  17  21
ATOM     20  C   UNL     1       1.306   2.984  21.063  0.00  0.00    +0.000 C 
ATOM     21  C   UNL     1       1.326   4.324  20.333  0.00  0.00    +0.000 C 
ENDBRANCH  17  21
ENDBRANCH  16  17
ENDBRANCH   1  16
TORSDOF 4
ENDMDL
MODEL 5
REMARK VINA RESULT:      -6.7      0.718      1.279
REMARK  Name = 
REMARK  7 active torsions:
REMARK  status: ('A' for Active; 'I' for Inactive)
REMARK    1  A    between atoms: C_1  and  C_2
REMARK    2  A    between atoms: C_2  and  C_3
REMARK    3  A    between atoms: C_3  and  C_4
REMARK    4  A    between atoms: C_3  and  C_5
REMARK    5  A    between atoms: C_3  and  O_6
REMARK    6  A    between atoms: O_6  and  C_7
REMARK    7  A    between atoms: C_10  and  C_11
REMARK                            x       y       z     vdW  Elec       q    Type
REMARK                         _______ _______ _______ _____ _____    ______ ____
ROOT
ATOM      1  C   UNL     1       4.262   5.009  19.062  0.00  0.00    +0.000 A 
ATOM      2  C   UNL     1       5.105   3.976  18.643  0.00  0.00    +0.000 A 
ATOM      3  C   UNL     1       5.926   4.131  17.522  0.00  0.00    +0.000 A 
ATOM      4  C   UNL     1       5.903   5.327  16.802  0.00  0.00    +0.000 A 
ATOM      5  C   UNL     1       5.024   6.340  17.186  0.00  0.00    +0.000 A 
ATOM      6  C   UNL     1       4.193   6.170  18.297  0.00  0.00    +0.000 A 
ENDROOT
BRANCH   4   7
ATOM      7  C   UNL     1       6.782   5.511  15.649  0.00  0.00    +0.000 C 
ATOM      8  C   UNL     1       6.648   4.875  14.480  0.00  0.00    +0.000 C 
ATOM      9  S   UNL     1       5.456   3.714  14.028  0.00  0.00    +0.000 S 
ATOM     10  C   UNL     1       6.180   3.470  12.454  0.00  0.00    +0.000 C 
ATOM     11  O   UNL     1       5.764   2.683  11.619  0.00  0.00    +0.000 OA
ATOM     12  N   UNL     1       7.258   4.280  12.312  0.00  0.00    +0.000 N 
ATOM     13  C   UNL     1       7.597   5.087  13.355  0.00  0.00    +0.000 C 
ATOM     14  O   UNL     1       8.541   5.859  13.362  0.00  0.00    +0.000 OA
ATOM     15  H   UNL     1       7.801   4.270  11.464  0.00  0.00    +0.000 HD
ENDBRANCH   4   7
BRANCH   1  16
ATOM     16  O   UNL     1       3.558   4.748  20.198  0.00  0.00    +0.000 OA
BRANCH  16  17
ATOM     17  C   UNL     1       2.122   4.626  20.219  0.00  0.00    +0.000 C 
ATOM     18  C   UNL     1       1.500   5.986  20.578  0.00  0.00    +0.000 C 
ATOM     19  C   UNL     1       1.573   3.499  21.117  0.00  0.00    +0.000 C 
BRANCH  17  21
ATOM     20  C   UNL     1       1.226   2.885  18.520  0.00  0.00    +0.000 C 
ATOM     21  C   UNL     1       1.717   4.311  18.748  0.00  0.00    +0.000 C 
ENDBRANCH  17  21
ENDBRANCH  16  17
ENDBRANCH   1  16
TORSDOF 4
ENDMDL
MODEL 6
REMARK VINA RESULT:      -6.6      6.135      8.096
REMARK  Name = 
REMARK  7 active torsions:
REMARK  status: ('A' for Active; 'I' for Inactive)
REMARK    1  A    between atoms: C_1  and  C_2
REMARK    2  A    between atoms: C_2  and  C_3
REMARK    3  A    between atoms: C_3  and  C_4
REMARK    4  A    between atoms: C_3  and  C_5
REMARK    5  A    between atoms: C_3  and  O_6
REMARK    6  A    between atoms: O_6  and  C_7
REMARK    7  A    between atoms: C_10  and  C_11
REMARK                            x       y       z     vdW  Elec       q    Type
REMARK                         _______ _______ _______ _____ _____    ______ ____
ROOT
ATOM      1  C   UNL     1       2.441   6.895  19.302  0.00  0.00    +0.000 A 
ATOM      2  C   UNL     1       1.803   7.452  20.414  0.00  0.00    +0.000 A 
ATOM      3  C   UNL     1       1.201   8.711  20.338  0.00  0.00    +0.000 A 
ATOM      4  C   UNL     1       1.240   9.431  19.142  0.00  0.00    +0.000 A 
ATOM      5  C   UNL     1       1.922   8.901  18.046  0.00  0.00    +0.000 A 
ATOM      6  C   UNL     1       2.538   7.649  18.137  0.00  0.00    +0.000 A 
ENDROOT
BRANCH   4   7
ATOM      7  C   UNL     1       0.584  10.734  19.043  0.00  0.00    +0.000 C 
ATOM      8  C   UNL     1      -0.576  10.957  18.417  0.00  0.00    +0.000 C 
ATOM      9  S   UNL     1      -1.577   9.823  17.589  0.00  0.00    +0.000 S 
ATOM     10  C   UNL     1      -2.710  11.063  17.101  0.00  0.00    +0.000 C 
ATOM     11  O   UNL     1      -3.701  10.860  16.416  0.00  0.00    +0.000 OA
ATOM     12  N   UNL     1      -2.321  12.264  17.595  0.00  0.00    +0.000 N 
ATOM     13  C   UNL     1      -1.174  12.316  18.328  0.00  0.00    +0.000 C 
ATOM     14  O   UNL     1      -0.710  13.327  18.827  0.00  0.00    +0.000 OA
ATOM     15  H   UNL     1      -2.858  13.095  17.410  0.00  0.00    +0.000 HD
ENDBRANCH   4   7
BRANCH   1  16
ATOM     16  O   UNL     1       2.937   5.641  19.495  0.00  0.00    +0.000 OA
BRANCH  16  17
ATOM     17  C   UNL     1       2.142   4.451  19.331  0.00  0.00    +0.000 C 
ATOM     18  C   UNL     1       1.738   4.307  17.855  0.00  0.00    +0.000 C 
ATOM     19  C   UNL     1       0.919   4.345  20.264  0.00  0.00    +0.000 C 
BRANCH  17  21
ATOM     20  C   UNL     1       2.927   2.682  21.057  0.00  0.00    +0.000 C 
ATOM     21  C   UNL     1       3.102   3.269  19.660  0.00  0.00    +0.000 C 
ENDBRANCH  17  21
ENDBRANCH  16  17
ENDBRANCH   1  16
TORSDOF 4
ENDMDL
MODEL 7
REMARK VINA RESULT:      -6.6      6.012      7.890
REMARK  Name = 
REMARK  7 active torsions:
REMARK  status: ('A' for Active; 'I' for Inactive)
REMARK    1  A    between atoms: C_1  and  C_2
REMARK    2  A    between atoms: C_2  and  C_3
REMARK    3  A    between atoms: C_3  and  C_4
REMARK    4  A    between atoms: C_3  and  C_5
REMARK    5  A    between atoms: C_3  and  O_6
REMARK    6  A    between atoms: O_6  and  C_7
REMARK    7  A    between atoms: C_10  and  C_11
REMARK                            x       y       z     vdW  Elec       q    Type
REMARK                         _______ _______ _______ _____ _____    ______ ____
ROOT
ATOM      1  C   UNL     1       2.491   6.637  19.326  0.00  0.00    +0.000 A 
ATOM      2  C   UNL     1       2.649   7.354  18.136  0.00  0.00    +0.000 A 
ATOM      3  C   UNL     1       2.168   8.661  18.019  0.00  0.00    +0.000 A 
ATOM      4  C   UNL     1       1.513   9.263  19.095  0.00  0.00    +0.000 A 
ATOM      5  C   UNL     1       1.307   8.531  20.266  0.00  0.00    +0.000 A 
ATOM      6  C   UNL     1       1.775   7.218  20.368  0.00  0.00    +0.000 A 
ENDROOT
BRANCH   4   7
ATOM      7  C   UNL     1       1.036  10.641  18.993  0.00  0.00    +0.000 C 
ATOM      8  C   UNL     1      -0.123  11.005  18.434  0.00  0.00    +0.000 C 
ATOM      9  S   UNL     1      -1.323   9.999  17.712  0.00  0.00    +0.000 S 
ATOM     10  C   UNL     1      -2.307  11.371  17.254  0.00  0.00    +0.000 C 
ATOM     11  O   UNL     1      -3.360  11.289  16.641  0.00  0.00    +0.000 OA
ATOM     12  N   UNL     1      -1.726  12.519  17.680  0.00  0.00    +0.000 N 
ATOM     13  C   UNL     1      -0.535  12.431  18.336  0.00  0.00    +0.000 C 
ATOM     14  O   UNL     1       0.095  13.381  18.769  0.00  0.00    +0.000 OA
ATOM     15  H   UNL     1      -2.156  13.412  17.501  0.00  0.00    +0.000 HD
ENDBRANCH   4   7
BRANCH   1  16
ATOM     16  O   UNL     1       3.054   5.397  19.325  0.00  0.00    +0.000 OA
BRANCH  16  17
ATOM     17  C   UNL     1       2.296   4.193  19.093  0.00  0.00    +0.000 C 
ATOM     18  C   UNL     1       1.459   4.357  17.815  0.00  0.00    +0.000 C 
ATOM     19  C   UNL     1       1.430   3.725  20.280  0.00  0.00    +0.000 C 
BRANCH  17  21
ATOM     20  C   UNL     1       4.192   3.327  17.551  0.00  0.00    +0.000 C 
ATOM     21  C   UNL     1       3.359   3.090  18.807  0.00  0.00    +0.000 C 
ENDBRANCH  17  21
ENDBRANCH  16  17
ENDBRANCH   1  16
TORSDOF 4
ENDMDL
MODEL 8
REMARK VINA RESULT:      -6.5      0.815      1.303
REMARK  Name = 
REMARK  7 active torsions:
REMARK  status: ('A' for Active; 'I' for Inactive)
REMARK    1  A    between atoms: C_1  and  C_2
REMARK    2  A    between atoms: C_2  and  C_3
REMARK    3  A    between atoms: C_3  and  C_4
REMARK    4  A    between atoms: C_3  and  C_5
REMARK    5  A    between atoms: C_3  and  O_6
REMARK    6  A    between atoms: O_6  and  C_7
REMARK    7  A    between atoms: C_10  and  C_11
REMARK                            x       y       z     vdW  Elec       q    Type
REMARK                         _______ _______ _______ _____ _____    ______ ____
ROOT
ATOM      1  C   UNL     1       3.949   4.825  18.923  0.00  0.00    +0.000 A 
ATOM      2  C   UNL     1       5.307   5.005  19.202  0.00  0.00    +0.000 A 
ATOM      3  C   UNL     1       6.229   5.200  18.170  0.00  0.00    +0.000 A 
ATOM      4  C   UNL     1       5.799   5.209  16.842  0.00  0.00    +0.000 A 
ATOM      5  C   UNL     1       4.453   4.976  16.558  0.00  0.00    +0.000 A 
ATOM      6  C   UNL     1       3.539   4.763  17.595  0.00  0.00    +0.000 A 
ENDROOT
BRANCH   4   7
ATOM      7  C   UNL     1       6.752   5.446  15.759  0.00  0.00    +0.000 C 
ATOM      8  C   UNL     1       6.688   4.875  14.551  0.00  0.00    +0.000 C 
ATOM      9  S   UNL     1       5.520   3.752  13.961  0.00  0.00    +0.000 S 
ATOM     10  C   UNL     1       6.341   3.586  12.426  0.00  0.00    +0.000 C 
ATOM     11  O   UNL     1       5.974   2.850  11.524  0.00  0.00    +0.000 OA
ATOM     12  N   UNL     1       7.432   4.391  12.397  0.00  0.00    +0.000 N 
ATOM     13  C   UNL     1       7.709   5.137  13.502  0.00  0.00    +0.000 C 
ATOM     14  O   UNL     1       8.656   5.897  13.611  0.00  0.00    +0.000 OA
ATOM     15  H   UNL     1       8.028   4.421  11.586  0.00  0.00    +0.000 HD
ENDBRANCH   4   7
BRANCH   1  16
ATOM     16  O   UNL     1       3.151   4.700  20.020  0.00  0.00    +0.000 OA
BRANCH  16  17
ATOM     17  C   UNL     1       2.486   3.470  20.369  0.00  0.00    +0.000 C 
ATOM     18  C   UNL     1       2.326   3.392  21.896  0.00  0.00    +0.000 C 
ATOM     19  C   UNL     1       3.134   2.191  19.803  0.00  0.00    +0.000 C 
BRANCH  17  21
ATOM     20  C   UNL     1       0.716   2.534  18.722  0.00  0.00    +0.000 C 
ATOM     21  C   UNL     1       1.055   3.594  19.765  0.00  0.00    +0.000 C 
ENDBRANCH  17  21
ENDBRANCH  16  17
ENDBRANCH   1  16
TORSDOF 4
ENDMDL
MODEL 9
REMARK VINA RESULT:      -6.5      0.878      1.668
REMARK  Name = 
REMARK  7 active torsions:
REMARK  status: ('A' for Active; 'I' for Inactive)
REMARK    1  A    between atoms: C_1  and  C_2
REMARK    2  A    between atoms: C_2  and  C_3
REMARK    3  A    between atoms: C_3  and  C_4
REMARK    4  A    between atoms: C_3  and  C_5
REMARK    5  A    between atoms: C_3  and  O_6
REMARK    6  A    between atoms: O_6  and  C_7
REMARK    7  A    between atoms: C_10  and  C_11
REMARK                            x       y       z     vdW  Elec       q    Type
REMARK                         _______ _______ _______ _____ _____    ______ ____
ROOT
ATOM      1  C   UNL     1       4.202   4.829  18.927  0.00  0.00    +0.000 A 
ATOM      2  C   UNL     1       4.760   3.740  18.249  0.00  0.00    +0.000 A 
ATOM      3  C   UNL     1       5.596   3.936  17.146  0.00  0.00    +0.000 A 
ATOM      4  C   UNL     1       5.876   5.230  16.704  0.00  0.00    +0.000 A 
ATOM      5  C   UNL     1       5.279   6.316  17.346  0.00  0.00    +0.000 A 
ATOM      6  C   UNL     1       4.429   6.111  18.436  0.00  0.00    +0.000 A 
ENDROOT
BRANCH   4   7
ATOM      7  C   UNL     1       6.776   5.445  15.572  0.00  0.00    +0.000 C 
ATOM      8  C   UNL     1       6.667   4.835  14.387  0.00  0.00    +0.000 C 
ATOM      9  S   UNL     1       5.490   3.680  13.885  0.00  0.00    +0.000 S 
ATOM     10  C   UNL     1       6.244   3.477  12.320  0.00  0.00    +0.000 C 
ATOM     11  O   UNL     1       5.848   2.707  11.459  0.00  0.00    +0.000 OA
ATOM     12  N   UNL     1       7.321   4.294  12.217  0.00  0.00    +0.000 N 
ATOM     13  C   UNL     1       7.636   5.078  13.285  0.00  0.00    +0.000 C 
ATOM     14  O   UNL     1       8.576   5.854  13.328  0.00  0.00    +0.000 OA
ATOM     15  H   UNL     1       7.879   4.307  11.380  0.00  0.00    +0.000 HD
ENDBRANCH   4   7
BRANCH   1  16
ATOM     16  O   UNL     1       3.453   4.502  20.016  0.00  0.00    +0.000 OA
BRANCH  16  17
ATOM     17  C   UNL     1       2.021   4.665  20.059  0.00  0.00    +0.000 C 
ATOM     18  C   UNL     1       1.423   4.278  18.696  0.00  0.00    +0.000 C 
ATOM     19  C   UNL     1       1.534   6.055  20.516  0.00  0.00    +0.000 C 
BRANCH  17  21
ATOM     20  C   UNL     1       2.571   2.589  21.512  0.00  0.00    +0.000 C 
ATOM     21  C   UNL     1       1.521   3.613  21.094  0.00  0.00    +0.000 C 
ENDBRANCH  17  21
ENDBRANCH  16  17
ENDBRANCH   1  16
TORSDOF 4
ENDMDL
