MODEL 1
REMARK VINA RESULT:      -8.0      0.000      0.000
REMARK  Name = 
REMARK  9 active torsions:
REMARK  status: ('A' for Active; 'I' for Inactive)
REMARK    1  A    between atoms: C_1  and  C_2
REMARK    2  A    between atoms: C_2  and  C_3
REMARK    3  A    between atoms: C_2  and  C_4
REMARK    4  A    between atoms: C_2  and  C_8
REMARK    5  A    between atoms: C_4  and  C_5
REMARK    6  A    between atoms: C_5  and  O_7
REMARK    7  A    between atoms: C_8  and  C_9
REMARK    8  A    between atoms: N_18  and  C_19
REMARK    9  A    between atoms: C_19  and  C_20
REMARK                            x       y       z     vdW  Elec       q    Type
REMARK                         _______ _______ _______ _____ _____    ______ ____
ROOT
ATOM      1  C   UNL     1       4.168   5.269  17.658  0.00  0.00    +0.000 A 
ATOM      2  N   UNL     1       3.944   4.033  17.254  0.00  0.00    +0.000 NA
ATOM      3  C   UNL     1       2.857   3.592  17.955  0.00  0.00    +0.000 A 
ATOM      4  C   UNL     1       2.209   2.354  17.878  0.00  0.00    +0.000 A 
ATOM      5  C   UNL     1       1.095   2.149  18.688  0.00  0.00    +0.000 A 
ATOM      6  F   UNL     1       0.465   0.967  18.647  0.00  0.00    +0.000 F 
ATOM      7  C   UNL     1       0.620   3.140  19.541  0.00  0.00    +0.000 A 
ATOM      8  C   UNL     1       1.264   4.389  19.628  0.00  0.00    +0.000 A 
ATOM      9  C   UNL     1       2.401   4.573  18.831  0.00  0.00    +0.000 A 
ATOM     10  N   UNL     1       3.327   5.594  18.708  0.00  0.00    +0.000 N 
ENDROOT
BRANCH   1  11
ATOM     11  C   UNL     1       5.230   6.155  17.073  0.00  0.00    +0.000 C 
BRANCH  11  13
ATOM     12  C   UNL     1       6.559   5.493  19.071  0.00  0.00    +0.000 C 
ATOM     13  C   UNL     1       6.685   5.853  17.573  0.00  0.00    +0.000 C 
ATOM     14  C   UNL     1       7.559   7.115  17.434  0.00  0.00    +0.000 C 
BRANCH  13  15
ATOM     15  C   UNL     1       7.302   4.661  16.787  0.00  0.00    +0.000 C 
BRANCH  15  16
ATOM     16  C   UNL     1       7.036   4.595  15.294  0.00  0.00    +0.000 C 
ATOM     17  O   UNL     1       7.475   5.348  14.441  0.00  0.00    +0.000 OA
BRANCH  16  18
ATOM     18  O   UNL     1       6.213   3.564  14.976  0.00  0.00    +0.000 OA
ATOM     19  H   UNL     1       5.400   3.540  15.518  0.00  0.00    +0.000 HD
ENDBRANCH  16  18
ENDBRANCH  15  16
ENDBRANCH  13  15
ENDBRANCH  11  13
ENDBRANCH   1  11
BRANCH  10  20
ATOM     20  C   UNL     1       3.440   6.753  19.595  0.00  0.00    +0.000 C 
BRANCH  20  21
ATOM     21  C   UNL     1       2.348   7.769  19.321  0.00  0.00    +0.000 A 
ATOM     22  C   UNL     1       2.158   8.293  18.030  0.00  0.00    +0.000 A 
ATOM     23  C   UNL     1       1.252   9.338  17.813  0.00  0.00    +0.000 A 
ATOM     24  C   UNL     1       0.515   9.852  18.875  0.00  0.00    +0.000 A 
ATOM     25 CL   UNL     1      -0.508  11.214  18.633  0.00  0.00    +0.000 Cl
ATOM     26  C   UNL     1       0.622   9.285  20.140  0.00  0.00    +0.000 A 
ATOM     27  C   UNL     1       1.525   8.241  20.358  0.00  0.00    +0.000 A 
ENDBRANCH  20  21
ENDBRANCH  10  20
TORSDOF 7
ENDMDL
MODEL 2
REMARK VINA RESULT:      -8.0      3.205      5.358
REMARK  Name = 
REMARK  9 active torsions:
REMARK  status: ('A' for Active; 'I' for Inactive)
REMARK    1  A    between atoms: C_1  and  C_2
REMARK    2  A    between atoms: C_2  and  C_3
REMARK    3  A    between atoms: C_2  and  C_4
REMARK    4  A    between atoms: C_2  and  C_8
REMARK    5  A    between atoms: C_4  and  C_5
REMARK    6  A    between atoms: C_5  and  O_7
REMARK    7  A    between atoms: C_8  and  C_9
REMARK    8  A    between atoms: N_18  and  C_19
REMARK    9  A    between atoms: C_19  and  C_20
REMARK                            x       y       z     vdW  Elec       q    Type
REMARK                         _______ _______ _______ _____ _____    ______ ____
ROOT
ATOM      1  C   UNL     1       3.923   3.524  18.079  0.00  0.00    +0.000 A 
ATOM      2  N   UNL     1       4.178   3.111  16.852  0.00  0.00    +0.000 NA
ATOM      3  C   UNL     1       5.139   3.947  16.357  0.00  0.00    +0.000 A 
ATOM      4  C   UNL     1       5.765   3.919  15.105  0.00  0.00    +0.000 A 
ATOM      5  C   UNL     1       6.741   4.876  14.843  0.00  0.00    +0.000 A 
ATOM      6  F   UNL     1       7.345   4.884  13.647  0.00  0.00    +0.000 F 
ATOM      7  C   UNL     1       7.106   5.827  15.790  0.00  0.00    +0.000 A 
ATOM      8  C   UNL     1       6.483   5.866  17.052  0.00  0.00    +0.000 A 
ATOM      9  C   UNL     1       5.481   4.918  17.294  0.00  0.00    +0.000 A 
ATOM     10  N   UNL     1       4.606   4.699  18.344  0.00  0.00    +0.000 N 
ENDROOT
BRANCH   1  11
ATOM     11  C   UNL     1       2.979   2.824  19.012  0.00  0.00    +0.000 C 
BRANCH  11  13
ATOM     12  C   UNL     1       0.671   1.992  18.595  0.00  0.00    +0.000 C 
ATOM     13  C   UNL     1       1.482   3.274  18.891  0.00  0.00    +0.000 C 
ATOM     14  C   UNL     1       1.323   4.251  17.710  0.00  0.00    +0.000 C 
BRANCH  13  15
ATOM     15  C   UNL     1       0.993   3.922  20.217  0.00  0.00    +0.000 C 
BRANCH  15  16
ATOM     16  C   UNL     1       1.660   3.473  21.505  0.00  0.00    +0.000 C 
ATOM     17  O   UNL     1       1.456   2.432  22.106  0.00  0.00    +0.000 OA
BRANCH  16  18
ATOM     18  O   UNL     1       2.550   4.392  21.956  0.00  0.00    +0.000 OA
ATOM     19  H   UNL     1       2.530   4.505  22.926  0.00  0.00    +0.000 HD
ENDBRANCH  16  18
ENDBRANCH  15  16
ENDBRANCH  13  15
ENDBRANCH  11  13
ENDBRANCH   1  11
BRANCH  10  20
ATOM     20  C   UNL     1       4.387   5.604  19.473  0.00  0.00    +0.000 C 
BRANCH  20  21
ATOM     21  C   UNL     1       3.358   6.667  19.139  0.00  0.00    +0.000 A 
ATOM     22  C   UNL     1       3.346   7.288  17.878  0.00  0.00    +0.000 A 
ATOM     23  C   UNL     1       2.495   8.370  17.626  0.00  0.00    +0.000 A 
ATOM     24  C   UNL     1       1.636   8.827  18.621  0.00  0.00    +0.000 A 
ATOM     25 CL   UNL     1       0.678  10.231  18.354  0.00  0.00    +0.000 Cl
ATOM     26  C   UNL     1       1.569   8.168  19.844  0.00  0.00    +0.000 A 
ATOM     27  C   UNL     1       2.417   7.086  20.096  0.00  0.00    +0.000 A 
ENDBRANCH  20  21
ENDBRANCH  10  20
TORSDOF 7
ENDMDL
MODEL 3
REMARK VINA RESULT:      -7.8      2.690      4.819
REMARK  Name = 
REMARK  9 active torsions:
REMARK  status: ('A' for Active; 'I' for Inactive)
REMARK    1  A    between atoms: C_1  and  C_2
REMARK    2  A    between atoms: C_2  and  C_3
REMARK    3  A    between atoms: C_2  and  C_4
REMARK    4  A    between atoms: C_2  and  C_8
REMARK    5  A    between atoms: C_4  and  C_5
REMARK    6  A    between atoms: C_5  and  O_7
REMARK    7  A    between atoms: C_8  and  C_9
REMARK    8  A    between atoms: N_18  and  C_19
REMARK    9  A    between atoms: C_19  and  C_20
REMARK                            x       y       z     vdW  Elec       q    Type
REMARK                         _______ _______ _______ _____ _____    ______ ____
ROOT
ATOM      1  C   UNL     1       2.946   4.496  17.718  0.00  0.00    +0.000 A 
ATOM      2  N   UNL     1       3.392   4.148  16.526  0.00  0.00    +0.000 NA
ATOM      3  C   UNL     1       4.657   4.656  16.426  0.00  0.00    +0.000 A 
ATOM      4  C   UNL     1       5.565   4.546  15.366  0.00  0.00    +0.000 A 
ATOM      5  C   UNL     1       6.816   5.137  15.514  0.00  0.00    +0.000 A 
ATOM      6  F   UNL     1       7.698   5.063  14.509  0.00  0.00    +0.000 F 
ATOM      7  C   UNL     1       7.174   5.807  16.680  0.00  0.00    +0.000 A 
ATOM      8  C   UNL     1       6.270   5.925  17.753  0.00  0.00    +0.000 A 
ATOM      9  C   UNL     1       5.004   5.352  17.581  0.00  0.00    +0.000 A 
ATOM     10  N   UNL     1       3.850   5.337  18.346  0.00  0.00    +0.000 N 
ENDROOT
BRANCH   1  11
ATOM     11  C   UNL     1       1.617   4.064  18.266  0.00  0.00    +0.000 C 
BRANCH  11  13
ATOM     12  C   UNL     1       0.477   1.982  19.014  0.00  0.00    +0.000 C 
ATOM     13  C   UNL     1       1.687   2.897  19.311  0.00  0.00    +0.000 C 
ATOM     14  C   UNL     1       1.547   3.463  20.738  0.00  0.00    +0.000 C 
BRANCH  13  15
ATOM     15  C   UNL     1       3.012   2.098  19.159  0.00  0.00    +0.000 C 
BRANCH  15  16
ATOM     16  C   UNL     1       4.055   2.257  20.250  0.00  0.00    +0.000 C 
ATOM     17  O   UNL     1       3.902   2.042  21.440  0.00  0.00    +0.000 OA
BRANCH  16  18
ATOM     18  O   UNL     1       5.240   2.690  19.752  0.00  0.00    +0.000 OA
ATOM     19  H   UNL     1       5.595   2.115  19.046  0.00  0.00    +0.000 HD
ENDBRANCH  16  18
ENDBRANCH  15  16
ENDBRANCH  13  15
ENDBRANCH  11  13
ENDBRANCH   1  11
BRANCH  10  20
ATOM     20  C   UNL     1       3.611   6.141  19.544  0.00  0.00    +0.000 C 
BRANCH  20  21
ATOM     21  C   UNL     1       2.652   7.282  19.263  0.00  0.00    +0.000 A 
ATOM     22  C   UNL     1       2.621   7.905  18.003  0.00  0.00    +0.000 A 
ATOM     23  C   UNL     1       1.845   9.051  17.794  0.00  0.00    +0.000 A 
ATOM     24  C   UNL     1       1.078   9.570  18.832  0.00  0.00    +0.000 A 
ATOM     25 CL   UNL     1       0.220  11.045  18.613  0.00  0.00    +0.000 Cl
ATOM     26  C   UNL     1       1.025   8.915  20.058  0.00  0.00    +0.000 A 
ATOM     27  C   UNL     1       1.798   7.771  20.267  0.00  0.00    +0.000 A 
ENDBRANCH  20  21
ENDBRANCH  10  20
TORSDOF 7
ENDMDL
MODEL 4
REMARK VINA RESULT:      -7.7      3.180      5.299
REMARK  Name = 
REMARK  9 active torsions:
REMARK  status: ('A' for Active; 'I' for Inactive)
REMARK    1  A    between atoms: C_1  and  C_2
REMARK    2  A    between atoms: C_2  and  C_3
REMARK    3  A    between atoms: C_2  and  C_4
REMARK    4  A    between atoms: C_2  and  C_8
REMARK    5  A    between atoms: C_4  and  C_5
REMARK    6  A    between atoms: C_5  and  O_7
REMARK    7  A    between atoms: C_8  and  C_9
REMARK    8  A    between atoms: N_18  and  C_19
REMARK    9  A    between atoms: C_19  and  C_20
REMARK                            x       y       z     vdW  Elec       q    Type
REMARK                         _______ _______ _______ _____ _____    ______ ____
ROOT
ATOM      1  C   UNL     1       2.945   4.483  17.578  0.00  0.00    +0.000 A 
ATOM      2  N   UNL     1       3.420   4.168  16.388  0.00  0.00    +0.000 NA
ATOM      3  C   UNL     1       4.703   4.636  16.351  0.00  0.00    +0.000 A 
ATOM      4  C   UNL     1       5.643   4.538  15.318  0.00  0.00    +0.000 A 
ATOM      5  C   UNL     1       6.906   5.080  15.532  0.00  0.00    +0.000 A 
ATOM      6  F   UNL     1       7.820   5.016  14.554  0.00  0.00    +0.000 F 
ATOM      7  C   UNL     1       7.246   5.691  16.735  0.00  0.00    +0.000 A 
ATOM      8  C   UNL     1       6.310   5.797  17.781  0.00  0.00    +0.000 A 
ATOM      9  C   UNL     1       5.032   5.274  17.544  0.00  0.00    +0.000 A 
ATOM     10  N   UNL     1       3.853   5.267  18.269  0.00  0.00    +0.000 N 
ENDROOT
BRANCH   1  11
ATOM     11  C   UNL     1       1.584   4.075  18.064  0.00  0.00    +0.000 C 
BRANCH  11  13
ATOM     12  C   UNL     1       2.916   2.189  18.993  0.00  0.00    +0.000 C 
ATOM     13  C   UNL     1       1.588   2.960  19.167  0.00  0.00    +0.000 C 
ATOM     14  C   UNL     1       0.412   1.991  18.936  0.00  0.00    +0.000 C 
BRANCH  13  15
ATOM     15  C   UNL     1       1.518   3.590  20.587  0.00  0.00    +0.000 C 
BRANCH  15  16
ATOM     16  C   UNL     1       1.898   2.710  21.764  0.00  0.00    +0.000 C 
ATOM     17  O   UNL     1       3.021   2.347  22.069  0.00  0.00    +0.000 OA
BRANCH  16  18
ATOM     18  O   UNL     1       0.810   2.337  22.483  0.00  0.00    +0.000 OA
ATOM     19  H   UNL     1       0.956   2.371  23.448  0.00  0.00    +0.000 HD
ENDBRANCH  16  18
ENDBRANCH  15  16
ENDBRANCH  13  15
ENDBRANCH  11  13
ENDBRANCH   1  11
BRANCH  10  20
ATOM     20  C   UNL     1       3.599   6.031  19.490  0.00  0.00    +0.000 C 
BRANCH  20  21
ATOM     21  C   UNL     1       2.679   7.209  19.226  0.00  0.00    +0.000 A 
ATOM     22  C   UNL     1       2.692   7.869  17.985  0.00  0.00    +0.000 A 
ATOM     23  C   UNL     1       1.954   9.044  17.796  0.00  0.00    +0.000 A 
ATOM     24  C   UNL     1       1.183   9.555  18.836  0.00  0.00    +0.000 A 
ATOM     25 CL   UNL     1       0.373  11.061  18.645  0.00  0.00    +0.000 Cl
ATOM     26  C   UNL     1       1.086   8.866  20.039  0.00  0.00    +0.000 A 
ATOM     27  C   UNL     1       1.821   7.693  20.228  0.00  0.00    +0.000 A 
ENDBRANCH  20  21
ENDBRANCH  10  20
TORSDOF 7
ENDMDL
MODEL 5
REMARK VINA RESULT:      -7.5      1.188      1.624
REMARK  Name = 
REMARK  9 active torsions:
REMARK  status: ('A' for Active; 'I' for Inactive)
REMARK    1  A    between atoms: C_1  and  C_2
REMARK    2  A    between atoms: C_2  and  C_3
REMARK    3  A    between atoms: C_2  and  C_4
REMARK    4  A    between atoms: C_2  and  C_8
REMARK    5  A    between atoms: C_4  and  C_5
REMARK    6  A    between atoms: C_5  and  O_7
REMARK    7  A    between atoms: C_8  and  C_9
REMARK    8  A    between atoms: N_18  and  C_19
REMARK    9  A    between atoms: C_19  and  C_20
REMARK                            x       y       z     vdW  Elec       q    Type
REMARK                         _______ _______ _______ _____ _____    ______ ____
ROOT
ATOM      1  C   UNL     1       4.746   5.371  18.762  0.00  0.00    +0.000 A 
ATOM      2  N   UNL     1       4.696   4.219  19.404  0.00  0.00    +0.000 NA
ATOM      3  C   UNL     1       3.461   3.692  19.151  0.00  0.00    +0.000 A 
ATOM      4  C   UNL     1       2.922   2.475  19.584  0.00  0.00    +0.000 A 
ATOM      5  C   UNL     1       1.635   2.147  19.168  0.00  0.00    +0.000 A 
ATOM      6  F   UNL     1       1.087   0.997  19.582  0.00  0.00    +0.000 F 
ATOM      7  C   UNL     1       0.899   2.985  18.335  0.00  0.00    +0.000 A 
ATOM      8  C   UNL     1       1.431   4.211  17.893  0.00  0.00    +0.000 A 
ATOM      9  C   UNL     1       2.714   4.545  18.342  0.00  0.00    +0.000 A 
ATOM     10  N   UNL     1       3.514   5.667  18.203  0.00  0.00    +0.000 N 
ENDROOT
BRANCH   1  11
ATOM     11  C   UNL     1       5.969   6.239  18.708  0.00  0.00    +0.000 C 
BRANCH  11  13
ATOM     12  C   UNL     1       7.839   4.812  17.894  0.00  0.00    +0.000 C 
ATOM     13  C   UNL     1       6.908   5.974  17.480  0.00  0.00    +0.000 C 
ATOM     14  C   UNL     1       7.765   7.225  17.197  0.00  0.00    +0.000 C 
BRANCH  13  15
ATOM     15  C   UNL     1       6.078   5.575  16.227  0.00  0.00    +0.000 C 
BRANCH  15  16
ATOM     16  C   UNL     1       6.807   4.866  15.100  0.00  0.00    +0.000 C 
ATOM     17  O   UNL     1       7.681   5.334  14.390  0.00  0.00    +0.000 OA
BRANCH  16  18
ATOM     18  O   UNL     1       6.368   3.592  14.943  0.00  0.00    +0.000 OA
ATOM     19  H   UNL     1       5.798   3.475  14.158  0.00  0.00    +0.000 HD
ENDBRANCH  16  18
ENDBRANCH  15  16
ENDBRANCH  13  15
ENDBRANCH  11  13
ENDBRANCH   1  11
BRANCH  10  20
ATOM     20  C   UNL     1       3.089   6.953  17.650  0.00  0.00    +0.000 C 
BRANCH  20  21
ATOM     21  C   UNL     1       2.344   7.779  18.682  0.00  0.00    +0.000 A 
ATOM     22  C   UNL     1       2.178   7.312  19.997  0.00  0.00    +0.000 A 
ATOM     23  C   UNL     1       1.364   8.005  20.901  0.00  0.00    +0.000 A 
ATOM     24  C   UNL     1       0.729   9.179  20.506  0.00  0.00    +0.000 A 
ATOM     25 CL   UNL     1      -0.367   9.965  21.575  0.00  0.00    +0.000 Cl
ATOM     26  C   UNL     1       0.954   9.704  19.239  0.00  0.00    +0.000 A 
ATOM     27  C   UNL     1       1.768   9.014  18.336  0.00  0.00    +0.000 A 
ENDBRANCH  20  21
ENDBRANCH  10  20
TORSDOF 7
ENDMDL
MODEL 6
REMARK VINA RESULT:      -7.4      1.164      1.563
REMARK  Name = 
REMARK  9 active torsions:
REMARK  status: ('A' for Active; 'I' for Inactive)
REMARK    1  A    between atoms: C_1  and  C_2
REMARK    2  A    between atoms: C_2  and  C_3
REMARK    3  A    between atoms: C_2  and  C_4
REMARK    4  A    between atoms: C_2  and  C_8
REMARK    5  A    between atoms: C_4  and  C_5
REMARK    6  A    between atoms: C_5  and  O_7
REMARK    7  A    between atoms: C_8  and  C_9
REMARK    8  A    between atoms: N_18  and  C_19
REMARK    9  A    between atoms: C_19  and  C_20
REMARK                            x       y       z     vdW  Elec       q    Type
REMARK                         _______ _______ _______ _____ _____    ______ ____
ROOT
ATOM      1  C   UNL     1       4.797   5.439  18.812  0.00  0.00    +0.000 A 
ATOM      2  N   UNL     1       4.698   4.278  19.429  0.00  0.00    +0.000 NA
ATOM      3  C   UNL     1       3.460   3.786  19.127  0.00  0.00    +0.000 A 
ATOM      4  C   UNL     1       2.877   2.575  19.520  0.00  0.00    +0.000 A 
ATOM      5  C   UNL     1       1.596   2.288  19.057  0.00  0.00    +0.000 A 
ATOM      6  F   UNL     1       1.007   1.144  19.431  0.00  0.00    +0.000 F 
ATOM      7  C   UNL     1       0.909   3.159  18.217  0.00  0.00    +0.000 A 
ATOM      8  C   UNL     1       1.484   4.380  17.816  0.00  0.00    +0.000 A 
ATOM      9  C   UNL     1       2.761   4.673  18.312  0.00  0.00    +0.000 A 
ATOM     10  N   UNL     1       3.591   5.776  18.220  0.00  0.00    +0.000 N 
ENDROOT
BRANCH   1  11
ATOM     11  C   UNL     1       6.043   6.277  18.813  0.00  0.00    +0.000 C 
BRANCH  11  13
ATOM     12  C   UNL     1       7.827   4.820  17.872  0.00  0.00    +0.000 C 
ATOM     13  C   UNL     1       6.974   6.071  17.568  0.00  0.00    +0.000 C 
ATOM     14  C   UNL     1       7.908   7.287  17.407  0.00  0.00    +0.000 C 
BRANCH  13  15
ATOM     15  C   UNL     1       6.131   5.845  16.281  0.00  0.00    +0.000 C 
BRANCH  15  16
ATOM     16  C   UNL     1       6.655   4.845  15.267  0.00  0.00    +0.000 C 
ATOM     17  O   UNL     1       6.287   3.691  15.124  0.00  0.00    +0.000 OA
BRANCH  16  18
ATOM     18  O   UNL     1       7.632   5.381  14.493  0.00  0.00    +0.000 OA
ATOM     19  H   UNL     1       7.878   4.815  13.736  0.00  0.00    +0.000 HD
ENDBRANCH  16  18
ENDBRANCH  15  16
ENDBRANCH  13  15
ENDBRANCH  11  13
ENDBRANCH   1  11
BRANCH  10  20
ATOM     20  C   UNL     1       3.216   7.083  17.679  0.00  0.00    +0.000 C 
BRANCH  20  21
ATOM     21  C   UNL     1       2.290   7.827  18.622  0.00  0.00    +0.000 A 
ATOM     22  C   UNL     1       1.609   8.982  18.202  0.00  0.00    +0.000 A 
ATOM     23  C   UNL     1       0.876   9.749  19.116  0.00  0.00    +0.000 A 
ATOM     24  C   UNL     1       0.799   9.356  20.449  0.00  0.00    +0.000 A 
ATOM     25 CL   UNL     1       0.001  10.360  21.597  0.00  0.00    +0.000 Cl
ATOM     26  C   UNL     1       1.389   8.167  20.863  0.00  0.00    +0.000 A 
ATOM     27  C   UNL     1       2.120   7.401  19.951  0.00  0.00    +0.000 A 
ENDBRANCH  20  21
ENDBRANCH  10  20
TORSDOF 7
ENDMDL
MODEL 7
REMARK VINA RESULT:      -7.3      2.111      2.737
REMARK  Name = 
REMARK  9 active torsions:
REMARK  status: ('A' for Active; 'I' for Inactive)
REMARK    1  A    between atoms: C_1  and  C_2
REMARK    2  A    between atoms: C_2  and  C_3
REMARK    3  A    between atoms: C_2  and  C_4
REMARK    4  A    between atoms: C_2  and  C_8
REMARK    5  A    between atoms: C_4  and  C_5
REMARK    6  A    between atoms: C_5  and  O_7
REMARK    7  A    between atoms: C_8  and  C_9
REMARK    8  A    between atoms: N_18  and  C_19
REMARK    9  A    between atoms: C_19  and  C_20
REMARK                            x       y       z     vdW  Elec       q    Type
REMARK                         _______ _______ _______ _____ _____    ______ ____
ROOT
ATOM      1  C   UNL     1       4.353   5.410  18.731  0.00  0.00    +0.000 A 
ATOM      2  N   UNL     1       4.591   4.565  19.715  0.00  0.00    +0.000 NA
ATOM      3  C   UNL     1       3.381   4.040  20.073  0.00  0.00    +0.000 A 
ATOM      4  C   UNL     1       3.095   3.083  21.054  0.00  0.00    +0.000 A 
ATOM      5  C   UNL     1       1.770   2.690  21.215  0.00  0.00    +0.000 A 
ATOM      6  F   UNL     1       1.466   1.788  22.158  0.00  0.00    +0.000 F 
ATOM      7  C   UNL     1       0.751   3.211  20.423  0.00  0.00    +0.000 A 
ATOM      8  C   UNL     1       1.026   4.174  19.434  0.00  0.00    +0.000 A 
ATOM      9  C   UNL     1       2.358   4.585  19.301  0.00  0.00    +0.000 A 
ATOM     10  N   UNL     1       2.989   5.545  18.530  0.00  0.00    +0.000 N 
ENDROOT
BRANCH   1  11
ATOM     11  C   UNL     1       5.430   6.144  17.987  0.00  0.00    +0.000 C 
BRANCH  11  13
ATOM     12  C   UNL     1       6.808   6.050  15.916  0.00  0.00    +0.000 C 
ATOM     13  C   UNL     1       6.397   5.228  17.159  0.00  0.00    +0.000 C 
ATOM     14  C   UNL     1       5.650   3.962  16.696  0.00  0.00    +0.000 C 
BRANCH  13  15
ATOM     15  C   UNL     1       7.654   4.856  17.995  0.00  0.00    +0.000 C 
BRANCH  15  16
ATOM     16  C   UNL     1       7.941   5.684  19.235  0.00  0.00    +0.000 C 
ATOM     17  O   UNL     1       7.772   5.342  20.393  0.00  0.00    +0.000 OA
BRANCH  16  18
ATOM     18  O   UNL     1       8.425   6.911  18.918  0.00  0.00    +0.000 OA
ATOM     19  H   UNL     1       8.942   7.319  19.639  0.00  0.00    +0.000 HD
ENDBRANCH  16  18
ENDBRANCH  15  16
ENDBRANCH  13  15
ENDBRANCH  11  13
ENDBRANCH   1  11
BRANCH  10  20
ATOM     20  C   UNL     1       2.320   6.570  17.728  0.00  0.00    +0.000 C 
BRANCH  20  21
ATOM     21  C   UNL     1       1.940   7.772  18.572  0.00  0.00    +0.000 A 
ATOM     22  C   UNL     1       1.858   7.674  19.972  0.00  0.00    +0.000 A 
ATOM     23  C   UNL     1       1.362   8.739  20.732  0.00  0.00    +0.000 A 
ATOM     24  C   UNL     1       0.966   9.917  20.105  0.00  0.00    +0.000 A 
ATOM     25 CL   UNL     1       0.245  11.180  21.024  0.00  0.00    +0.000 Cl
ATOM     26  C   UNL     1       1.126  10.065  18.732  0.00  0.00    +0.000 A 
ATOM     27  C   UNL     1       1.622   9.003  17.972  0.00  0.00    +0.000 A 
ENDBRANCH  20  21
ENDBRANCH  10  20
TORSDOF 7
ENDMDL
MODEL 8
REMARK VINA RESULT:      -7.3      1.569      2.177
REMARK  Name = 
REMARK  9 active torsions:
REMARK  status: ('A' for Active; 'I' for Inactive)
REMARK    1  A    between atoms: C_1  and  C_2
REMARK    2  A    between atoms: C_2  and  C_3
REMARK    3  A    between atoms: C_2  and  C_4
REMARK    4  A    between atoms: C_2  and  C_8
REMARK    5  A    between atoms: C_4  and  C_5
REMARK    6  A    between atoms: C_5  and  O_7
REMARK    7  A    between atoms: C_8  and  C_9
REMARK    8  A    between atoms: N_18  and  C_19
REMARK    9  A    between atoms: C_19  and  C_20
REMARK                            x       y       z     vdW  Elec       q    Type
REMARK                         _______ _______ _______ _____ _____    ______ ____
ROOT
ATOM      1  C   UNL     1       4.392   5.159  18.647  0.00  0.00    +0.000 A 
ATOM      2  N   UNL     1       4.631   4.328  19.643  0.00  0.00    +0.000 NA
ATOM      3  C   UNL     1       3.412   3.883  20.072  0.00  0.00    +0.000 A 
ATOM      4  C   UNL     1       3.121   2.969  21.092  0.00  0.00    +0.000 A 
ATOM      5  C   UNL     1       1.785   2.657  21.327  0.00  0.00    +0.000 A 
ATOM      6  F   UNL     1       1.477   1.799  22.308  0.00  0.00    +0.000 F 
ATOM      7  C   UNL     1       0.760   3.214  20.569  0.00  0.00    +0.000 A 
ATOM      8  C   UNL     1       1.039   4.135  19.541  0.00  0.00    +0.000 A 
ATOM      9  C   UNL     1       2.384   4.465  19.334  0.00  0.00    +0.000 A 
ATOM     10  N   UNL     1       3.030   5.368  18.507  0.00  0.00    +0.000 N 
ENDROOT
BRANCH   1  11
ATOM     11  C   UNL     1       5.471   5.811  17.832  0.00  0.00    +0.000 C 
BRANCH  11  13
ATOM     12  C   UNL     1       5.206   3.641  16.644  0.00  0.00    +0.000 C 
ATOM     13  C   UNL     1       6.105   4.895  16.729  0.00  0.00    +0.000 C 
ATOM     14  C   UNL     1       7.523   4.467  17.155  0.00  0.00    +0.000 C 
BRANCH  13  15
ATOM     15  C   UNL     1       6.135   5.626  15.356  0.00  0.00    +0.000 C 
BRANCH  15  16
ATOM     16  C   UNL     1       6.857   4.938  14.212  0.00  0.00    +0.000 C 
ATOM     17  O   UNL     1       6.503   3.925  13.631  0.00  0.00    +0.000 OA
BRANCH  16  18
ATOM     18  O   UNL     1       8.001   5.586  13.878  0.00  0.00    +0.000 OA
ATOM     19  H   UNL     1       7.963   6.547  14.050  0.00  0.00    +0.000 HD
ENDBRANCH  16  18
ENDBRANCH  15  16
ENDBRANCH  13  15
ENDBRANCH  11  13
ENDBRANCH   1  11
BRANCH  10  20
ATOM     20  C   UNL     1       2.381   6.408  17.709  0.00  0.00    +0.000 C 
BRANCH  20  21
ATOM     21  C   UNL     1       2.015   7.610  18.559  0.00  0.00    +0.000 A 
ATOM     22  C   UNL     1       1.954   7.511  19.960  0.00  0.00    +0.000 A 
ATOM     23  C   UNL     1       1.472   8.577  20.729  0.00  0.00    +0.000 A 
ATOM     24  C   UNL     1       1.068   9.755  20.108  0.00  0.00    +0.000 A 
ATOM     25 CL   UNL     1       0.362  11.019  21.039  0.00  0.00    +0.000 Cl
ATOM     26  C   UNL     1       1.207   9.904  18.733  0.00  0.00    +0.000 A 
ATOM     27  C   UNL     1       1.690   8.842  17.965  0.00  0.00    +0.000 A 
ENDBRANCH  20  21
ENDBRANCH  10  20
TORSDOF 7
ENDMDL
MODEL 9
REMARK VINA RESULT:      -7.2      1.599      2.241
REMARK  Name = 
REMARK  9 active torsions:
REMARK  status: ('A' for Active; 'I' for Inactive)
REMARK    1  A    between atoms: C_1  and  C_2
REMARK    2  A    between atoms: C_2  and  C_3
REMARK    3  A    between atoms: C_2  and  C_4
REMARK    4  A    between atoms: C_2  and  C_8
REMARK    5  A    between atoms: C_4  and  C_5
REMARK    6  A    between atoms: C_5  and  O_7
REMARK    7  A    between atoms: C_8  and  C_9
REMARK    8  A    between atoms: N_18  and  C_19
REMARK    9  A    between atoms: C_19  and  C_20
REMARK                            x       y       z     vdW  Elec       q    Type
REMARK                         _______ _______ _______ _____ _____    ______ ____
ROOT
ATOM      1  C   UNL     1       4.467   5.047  18.650  0.00  0.00    +0.000 A 
ATOM      2  N   UNL     1       4.683   4.174  19.615  0.00  0.00    +0.000 NA
ATOM      3  C   UNL     1       3.452   3.787  20.066  0.00  0.00    +0.000 A 
ATOM      4  C   UNL     1       3.136   2.862  21.067  0.00  0.00    +0.000 A 
ATOM      5  C   UNL     1       1.792   2.619  21.331  0.00  0.00    +0.000 A 
ATOM      6  F   UNL     1       1.461   1.751  22.297  0.00  0.00    +0.000 F 
ATOM      7  C   UNL     1       0.780   3.257  20.619  0.00  0.00    +0.000 A 
ATOM      8  C   UNL     1       1.085   4.190  19.610  0.00  0.00    +0.000 A 
ATOM      9  C   UNL     1       2.441   4.449  19.374  0.00  0.00    +0.000 A 
ATOM     10  N   UNL     1       3.116   5.337  18.554  0.00  0.00    +0.000 N 
ENDROOT
BRANCH   1  11
ATOM     11  C   UNL     1       5.560   5.661  17.824  0.00  0.00    +0.000 C 
BRANCH  11  13
ATOM     12  C   UNL     1       5.072   6.426  15.506  0.00  0.00    +0.000 C 
ATOM     13  C   UNL     1       5.576   5.213  16.321  0.00  0.00    +0.000 C 
ATOM     14  C   UNL     1       4.605   4.033  16.116  0.00  0.00    +0.000 C 
BRANCH  13  15
ATOM     15  C   UNL     1       7.016   4.830  15.876  0.00  0.00    +0.000 C 
BRANCH  15  16
ATOM     16  C   UNL     1       7.302   4.792  14.385  0.00  0.00    +0.000 C 
ATOM     17  O   UNL     1       7.963   5.597  13.750  0.00  0.00    +0.000 OA
BRANCH  16  18
ATOM     18  O   UNL     1       6.717   3.723  13.789  0.00  0.00    +0.000 OA
ATOM     19  H   UNL     1       6.348   3.081  14.426  0.00  0.00    +0.000 HD
ENDBRANCH  16  18
ENDBRANCH  15  16
ENDBRANCH  13  15
ENDBRANCH  11  13
ENDBRANCH   1  11
BRANCH  10  20
ATOM     20  C   UNL     1       2.507   6.436  17.805  0.00  0.00    +0.000 C 
BRANCH  20  21
ATOM     21  C   UNL     1       2.081   7.565  18.725  0.00  0.00    +0.000 A 
ATOM     22  C   UNL     1       2.036   7.381  20.118  0.00  0.00    +0.000 A 
ATOM     23  C   UNL     1       1.501   8.372  20.950  0.00  0.00    +0.000 A 
ATOM     24  C   UNL     1       1.028   9.560  20.400  0.00  0.00    +0.000 A 
ATOM     25 CL   UNL     1       0.260  10.727  21.406  0.00  0.00    +0.000 Cl
ATOM     26  C   UNL     1       1.148   9.796  19.036  0.00  0.00    +0.000 A 
ATOM     27  C   UNL     1       1.684   8.808  18.205  0.00  0.00    +0.000 A 
ENDBRANCH  20  21
ENDBRANCH  10  20
TORSDOF 7
ENDMDL
