MODEL 1
REMARK VINA RESULT:      -8.3      0.000      0.000
REMARK  Name = 
REMARK  10 active torsions:
REMARK  status: ('A' for Active; 'I' for Inactive)
REMARK    1  A    between atoms: C_1  and  O_2
REMARK    2  A    between atoms: O_2  and  C_3
REMARK    3  A    between atoms: C_11  and  O_12
REMARK    4  A    between atoms: O_12  and  C_13
REMARK    5  A    between atoms: C_14  and  O_15
REMARK    6  A    between atoms: O_15  and  C_16
REMARK    7  A    between atoms: C_18  and  C_19
REMARK    8  A    between atoms: C_20  and  O_21
REMARK    9  A    between atoms: C_22  and  O_23
REMARK   10  A    between atoms: C_24  and  O_25
REMARK                            x       y       z     vdW  Elec       q    Type
REMARK                         _______ _______ _______ _____ _____    ______ ____
ROOT
ATOM      1  C   UNL     1       0.445  10.372  19.765  0.00  0.00    +0.000 A 
ATOM      2  C   UNL     1      -0.048  10.342  21.074  0.00  0.00    +0.000 A 
ATOM      3  C   UNL     1      -0.881  11.152  21.898  0.00  0.00    +0.000 A 
ATOM      4  C   UNL     1      -0.916  10.543  23.122  0.00  0.00    +0.000 A 
ATOM      5  O   UNL     1      -0.211   9.380  23.093  0.00  0.00    +0.000 OA
ATOM      6  C   UNL     1       0.309   9.248  21.842  0.00  0.00    +0.000 A 
ATOM      7  N   UNL     1       1.056   8.186  21.460  0.00  0.00    +0.000 NA
ATOM      8  C   UNL     1       1.532   8.205  20.195  0.00  0.00    +0.000 A 
ATOM      9  C   UNL     1       2.334   7.134  19.664  0.00  0.00    +0.000 A 
ATOM     10  C   UNL     1       2.851   7.176  18.336  0.00  0.00    +0.000 A 
ATOM     11  C   UNL     1       2.627   8.321  17.583  0.00  0.00    +0.000 A 
ATOM     12  C   UNL     1       1.829   9.348  18.062  0.00  0.00    +0.000 A 
ATOM     13  C   UNL     1       1.266   9.299  19.340  0.00  0.00    +0.000 A 
ENDROOT
BRANCH   1  15
ATOM     14  C   UNL     1      -1.227  11.248  18.334  0.00  0.00    +0.000 C 
ATOM     15  O   UNL     1       0.108  11.325  18.817  0.00  0.00    +0.000 OA
ENDBRANCH   1  15
BRANCH   9  16
ATOM     16  O   UNL     1       2.491   6.093  20.557  0.00  0.00    +0.000 OA
ATOM     17  C   UNL     1       1.680   4.931  20.467  0.00  0.00    +0.000 C 
ENDBRANCH   9  16
BRANCH  10  18
ATOM     18  O   UNL     1       3.578   6.122  17.825  0.00  0.00    +0.000 OA
BRANCH  18  19
ATOM     19  C   UNL     1       4.627   6.390  16.868  0.00  0.00    +0.000 C 
ATOM     20  O   UNL     1       4.871   5.296  15.964  0.00  0.00    +0.000 OA
ATOM     21  C   UNL     1       5.443   4.120  16.533  0.00  0.00    +0.000 C 
ATOM     22  C   UNL     1       4.355   3.185  17.046  0.00  0.00    +0.000 C 
ATOM     23  C   UNL     1       6.637   4.398  17.475  0.00  0.00    +0.000 C 
ATOM     24  C   UNL     1       6.452   5.618  18.384  0.00  0.00    +0.000 C 
ATOM     25  C   UNL     1       5.921   6.811  17.587  0.00  0.00    +0.000 C 
BRANCH  23  26
ATOM     26  O   UNL     1       7.797   4.713  16.652  0.00  0.00    +0.000 OA
ATOM     27  H   UNL     1       7.947   5.675  16.700  0.00  0.00    +0.000 HD
ENDBRANCH  23  26
BRANCH  24  28
ATOM     28  O   UNL     1       7.722   5.958  18.970  0.00  0.00    +0.000 OA
ATOM     29  H   UNL     1       8.126   6.594  18.346  0.00  0.00    +0.000 HD
ENDBRANCH  24  28
BRANCH  25  30
ATOM     30  O   UNL     1       6.892   7.279  16.626  0.00  0.00    +0.000 OA
ATOM     31  H   UNL     1       6.602   8.167  16.333  0.00  0.00    +0.000 HD
ENDBRANCH  25  30
ENDBRANCH  18  19
ENDBRANCH  10  18
TORSDOF 7
ENDMDL
MODEL 2
REMARK VINA RESULT:      -8.0      1.094      1.968
REMARK  Name = 
REMARK  10 active torsions:
REMARK  status: ('A' for Active; 'I' for Inactive)
REMARK    1  A    between atoms: C_1  and  O_2
REMARK    2  A    between atoms: O_2  and  C_3
REMARK    3  A    between atoms: C_11  and  O_12
REMARK    4  A    between atoms: O_12  and  C_13
REMARK    5  A    between atoms: C_14  and  O_15
REMARK    6  A    between atoms: O_15  and  C_16
REMARK    7  A    between atoms: C_18  and  C_19
REMARK    8  A    between atoms: C_20  and  O_21
REMARK    9  A    between atoms: C_22  and  O_23
REMARK   10  A    between atoms: C_24  and  O_25
REMARK                            x       y       z     vdW  Elec       q    Type
REMARK                         _______ _______ _______ _____ _____    ______ ____
ROOT
ATOM      1  C   UNL     1       0.523  10.355  19.819  0.00  0.00    +0.000 A 
ATOM      2  C   UNL     1       0.016  10.263  21.120  0.00  0.00    +0.000 A 
ATOM      3  C   UNL     1      -0.806  11.045  21.980  0.00  0.00    +0.000 A 
ATOM      4  C   UNL     1      -0.869  10.368  23.167  0.00  0.00    +0.000 A 
ATOM      5  O   UNL     1      -0.191   9.191  23.078  0.00  0.00    +0.000 OA
ATOM      6  C   UNL     1       0.339   9.119  21.827  0.00  0.00    +0.000 A 
ATOM      7  N   UNL     1       1.065   8.062  21.392  0.00  0.00    +0.000 NA
ATOM      8  C   UNL     1       1.555   8.142  20.134  0.00  0.00    +0.000 A 
ATOM      9  C   UNL     1       2.337   7.084  19.550  0.00  0.00    +0.000 A 
ATOM     10  C   UNL     1       2.869   7.189  18.232  0.00  0.00    +0.000 A 
ATOM     11  C   UNL     1       2.679   8.380  17.544  0.00  0.00    +0.000 A 
ATOM     12  C   UNL     1       1.902   9.397  18.073  0.00  0.00    +0.000 A 
ATOM     13  C   UNL     1       1.323   9.289  19.341  0.00  0.00    +0.000 A 
ENDROOT
BRANCH   1  15
ATOM     14  C   UNL     1      -1.112  11.352  18.425  0.00  0.00    +0.000 C 
ATOM     15  O   UNL     1       0.219  11.369  18.924  0.00  0.00    +0.000 OA
ENDBRANCH   1  15
BRANCH   9  16
ATOM     16  O   UNL     1       2.460   5.991  20.384  0.00  0.00    +0.000 OA
ATOM     17  C   UNL     1       1.498   4.946  20.356  0.00  0.00    +0.000 C 
ENDBRANCH   9  16
BRANCH  10  18
ATOM     18  O   UNL     1       3.576   6.148  17.667  0.00  0.00    +0.000 OA
BRANCH  18  19
ATOM     19  C   UNL     1       4.396   5.314  18.515  0.00  0.00    +0.000 C 
ATOM     20  O   UNL     1       5.625   5.944  18.922  0.00  0.00    +0.000 OA
ATOM     21  C   UNL     1       6.592   6.166  17.898  0.00  0.00    +0.000 C 
ATOM     22  C   UNL     1       6.364   7.512  17.222  0.00  0.00    +0.000 C 
ATOM     23  C   UNL     1       6.820   4.944  16.978  0.00  0.00    +0.000 C 
ATOM     24  C   UNL     1       5.539   4.188  16.605  0.00  0.00    +0.000 C 
ATOM     25  C   UNL     1       4.668   3.958  17.840  0.00  0.00    +0.000 C 
BRANCH  23  26
ATOM     26  O   UNL     1       7.630   3.976  17.706  0.00  0.00    +0.000 OA
ATOM     27  H   UNL     1       8.566   4.231  17.605  0.00  0.00    +0.000 HD
ENDBRANCH  23  26
BRANCH  24  28
ATOM     28  O   UNL     1       5.900   2.920  16.026  0.00  0.00    +0.000 OA
ATOM     29  H   UNL     1       6.456   2.483  16.704  0.00  0.00    +0.000 HD
ENDBRANCH  24  28
BRANCH  25  30
ATOM     30  O   UNL     1       5.303   3.058  18.775  0.00  0.00    +0.000 OA
ATOM     31  H   UNL     1       4.736   2.262  18.839  0.00  0.00    +0.000 HD
ENDBRANCH  25  30
ENDBRANCH  18  19
ENDBRANCH  10  18
TORSDOF 7
ENDMDL
MODEL 3
REMARK VINA RESULT:      -7.6      2.397      4.093
REMARK  Name = 
REMARK  10 active torsions:
REMARK  status: ('A' for Active; 'I' for Inactive)
REMARK    1  A    between atoms: C_1  and  O_2
REMARK    2  A    between atoms: O_2  and  C_3
REMARK    3  A    between atoms: C_11  and  O_12
REMARK    4  A    between atoms: O_12  and  C_13
REMARK    5  A    between atoms: C_14  and  O_15
REMARK    6  A    between atoms: O_15  and  C_16
REMARK    7  A    between atoms: C_18  and  C_19
REMARK    8  A    between atoms: C_20  and  O_21
REMARK    9  A    between atoms: C_22  and  O_23
REMARK   10  A    between atoms: C_24  and  O_25
REMARK                            x       y       z     vdW  Elec       q    Type
REMARK                         _______ _______ _______ _____ _____    ______ ____
ROOT
ATOM      1  C   UNL     1       0.418  10.743  21.210  0.00  0.00    +0.000 A 
ATOM      2  C   UNL     1       0.285  11.804  20.308  0.00  0.00    +0.000 A 
ATOM      3  C   UNL     1      -0.155  13.158  20.342  0.00  0.00    +0.000 A 
ATOM      4  C   UNL     1      -0.061  13.622  19.058  0.00  0.00    +0.000 A 
ATOM      5  O   UNL     1       0.466  12.666  18.246  0.00  0.00    +0.000 OA
ATOM      6  C   UNL     1       0.689  11.560  19.007  0.00  0.00    +0.000 A 
ATOM      7  N   UNL     1       1.228  10.420  18.515  0.00  0.00    +0.000 NA
ATOM      8  C   UNL     1       1.364   9.392  19.383  0.00  0.00    +0.000 A 
ATOM      9  C   UNL     1       1.929   8.128  18.987  0.00  0.00    +0.000 A 
ATOM     10  C   UNL     1       2.045   7.042  19.903  0.00  0.00    +0.000 A 
ATOM     11  C   UNL     1       1.524   7.207  21.180  0.00  0.00    +0.000 A 
ATOM     12  C   UNL     1       1.008   8.425  21.592  0.00  0.00    +0.000 A 
ATOM     13  C   UNL     1       0.939   9.519  20.725  0.00  0.00    +0.000 A 
ENDROOT
BRANCH   1  15
ATOM     14  C   UNL     1      -1.195  11.016  22.924  0.00  0.00    +0.000 C 
ATOM     15  O   UNL     1       0.170  10.830  22.572  0.00  0.00    +0.000 OA
ENDBRANCH   1  15
BRANCH   9  16
ATOM     16  O   UNL     1       2.359   8.124  17.676  0.00  0.00    +0.000 OA
ATOM     17  C   UNL     1       3.711   7.830  17.357  0.00  0.00    +0.000 C 
ENDBRANCH   9  16
BRANCH  10  18
ATOM     18  O   UNL     1       2.630   5.853  19.524  0.00  0.00    +0.000 OA
BRANCH  18  19
ATOM     19  C   UNL     1       1.872   4.920  18.724  0.00  0.00    +0.000 C 
ATOM     20  O   UNL     1       1.082   4.005  19.505  0.00  0.00    +0.000 OA
ATOM     21  C   UNL     1       1.802   3.041  20.271  0.00  0.00    +0.000 C 
ATOM     22  C   UNL     1       2.151   3.596  21.647  0.00  0.00    +0.000 C 
ATOM     23  C   UNL     1       2.934   2.338  19.487  0.00  0.00    +0.000 C 
ATOM     24  C   UNL     1       3.734   3.267  18.566  0.00  0.00    +0.000 C 
ATOM     25  C   UNL     1       2.796   4.162  17.754  0.00  0.00    +0.000 C 
BRANCH  23  26
ATOM     26  O   UNL     1       2.325   1.358  18.597  0.00  0.00    +0.000 OA
ATOM     27  H   UNL     1       1.472   1.088  18.985  0.00  0.00    +0.000 HD
ENDBRANCH  23  26
BRANCH  24  28
ATOM     28  O   UNL     1       4.527   2.464  17.672  0.00  0.00    +0.000 OA
ATOM     29  H   UNL     1       4.126   1.572  17.710  0.00  0.00    +0.000 HD
ENDBRANCH  24  28
BRANCH  25  30
ATOM     30  O   UNL     1       2.009   3.393  16.819  0.00  0.00    +0.000 OA
ATOM     31  H   UNL     1       1.479   2.757  17.342  0.00  0.00    +0.000 HD
ENDBRANCH  25  30
ENDBRANCH  18  19
ENDBRANCH  10  18
TORSDOF 7
ENDMDL
MODEL 4
REMARK VINA RESULT:      -7.5      2.059      7.719
REMARK  Name = 
REMARK  10 active torsions:
REMARK  status: ('A' for Active; 'I' for Inactive)
REMARK    1  A    between atoms: C_1  and  O_2
REMARK    2  A    between atoms: O_2  and  C_3
REMARK    3  A    between atoms: C_11  and  O_12
REMARK    4  A    between atoms: O_12  and  C_13
REMARK    5  A    between atoms: C_14  and  O_15
REMARK    6  A    between atoms: O_15  and  C_16
REMARK    7  A    between atoms: C_18  and  C_19
REMARK    8  A    between atoms: C_20  and  O_21
REMARK    9  A    between atoms: C_22  and  O_23
REMARK   10  A    between atoms: C_24  and  O_25
REMARK                            x       y       z     vdW  Elec       q    Type
REMARK                         _______ _______ _______ _____ _____    ______ ____
ROOT
ATOM      1  C   UNL     1       3.417   5.794  18.268  0.00  0.00    +0.000 A 
ATOM      2  C   UNL     1       3.333   4.709  19.149  0.00  0.00    +0.000 A 
ATOM      3  C   UNL     1       3.850   3.385  19.230  0.00  0.00    +0.000 A 
ATOM      4  C   UNL     1       3.318   2.837  20.365  0.00  0.00    +0.000 A 
ATOM      5  O   UNL     1       2.556   3.753  21.022  0.00  0.00    +0.000 OA
ATOM      6  C   UNL     1       2.573   4.900  20.289  0.00  0.00    +0.000 A 
ATOM      7  N   UNL     1       1.927   6.028  20.666  0.00  0.00    +0.000 NA
ATOM      8  C   UNL     1       2.007   7.081  19.823  0.00  0.00    +0.000 A 
ATOM      9  C   UNL     1       1.370   8.340  20.110  0.00  0.00    +0.000 A 
ATOM     10  C   UNL     1       1.441   9.437  19.202  0.00  0.00    +0.000 A 
ATOM     11  C   UNL     1       2.080   9.238  17.985  0.00  0.00    +0.000 A 
ATOM     12  C   UNL     1       2.729   8.046  17.703  0.00  0.00    +0.000 A 
ATOM     13  C   UNL     1       2.719   6.979  18.606  0.00  0.00    +0.000 A 
ENDROOT
BRANCH   1  15
ATOM     14  C   UNL     1       5.610   5.944  17.385  0.00  0.00    +0.000 C 
ATOM     15  O   UNL     1       4.214   5.830  17.135  0.00  0.00    +0.000 OA
ENDBRANCH   1  15
BRANCH   9  16
ATOM     16  O   UNL     1       0.748   8.353  21.342  0.00  0.00    +0.000 OA
ATOM     17  C   UNL     1       1.271   9.128  22.411  0.00  0.00    +0.000 C 
ENDBRANCH   9  16
BRANCH  10  18
ATOM     18  O   UNL     1       0.867  10.652  19.511  0.00  0.00    +0.000 OA
BRANCH  18  19
ATOM     19  C   UNL     1       0.551  11.572  18.443  0.00  0.00    +0.000 C 
ATOM     20  O   UNL     1       1.375  12.752  18.442  0.00  0.00    +0.000 OA
ATOM     21  C   UNL     1       1.182  13.661  19.524  0.00  0.00    +0.000 C 
ATOM     22  C   UNL     1       2.070  13.289  20.705  0.00  0.00    +0.000 C 
ATOM     23  C   UNL     1      -0.303  13.966  19.827  0.00  0.00    +0.000 C 
ATOM     24  C   UNL     1      -1.228  12.746  19.739  0.00  0.00    +0.000 C 
ATOM     25  C   UNL     1      -0.942  11.942  18.470  0.00  0.00    +0.000 C 
BRANCH  23  26
ATOM     26  O   UNL     1      -0.792  14.884  18.807  0.00  0.00    +0.000 OA
ATOM     27  H   UNL     1      -0.842  14.397  17.964  0.00  0.00    +0.000 HD
ENDBRANCH  23  26
BRANCH  24  28
ATOM     28  O   UNL     1      -2.594  13.200  19.725  0.00  0.00    +0.000 OA
ATOM     29  H   UNL     1      -2.674  13.734  18.908  0.00  0.00    +0.000 HD
ENDBRANCH  24  28
BRANCH  25  30
ATOM     30  O   UNL     1      -1.290  12.687  17.282  0.00  0.00    +0.000 OA
ATOM     31  H   UNL     1      -1.953  13.357  17.547  0.00  0.00    +0.000 HD
ENDBRANCH  25  30
ENDBRANCH  18  19
ENDBRANCH  10  18
TORSDOF 7
ENDMDL
MODEL 5
REMARK VINA RESULT:      -7.2      2.310      4.314
REMARK  Name = 
REMARK  10 active torsions:
REMARK  status: ('A' for Active; 'I' for Inactive)
REMARK    1  A    between atoms: C_1  and  O_2
REMARK    2  A    between atoms: O_2  and  C_3
REMARK    3  A    between atoms: C_11  and  O_12
REMARK    4  A    between atoms: O_12  and  C_13
REMARK    5  A    between atoms: C_14  and  O_15
REMARK    6  A    between atoms: O_15  and  C_16
REMARK    7  A    between atoms: C_18  and  C_19
REMARK    8  A    between atoms: C_20  and  O_21
REMARK    9  A    between atoms: C_22  and  O_23
REMARK   10  A    between atoms: C_24  and  O_25
REMARK                            x       y       z     vdW  Elec       q    Type
REMARK                         _______ _______ _______ _____ _____    ______ ____
ROOT
ATOM      1  C   UNL     1       0.587  10.530  21.394  0.00  0.00    +0.000 A 
ATOM      2  C   UNL     1       0.526  11.702  20.632  0.00  0.00    +0.000 A 
ATOM      3  C   UNL     1       0.162  13.064  20.833  0.00  0.00    +0.000 A 
ATOM      4  C   UNL     1       0.298  13.679  19.619  0.00  0.00    +0.000 A 
ATOM      5  O   UNL     1       0.780  12.804  18.695  0.00  0.00    +0.000 OA
ATOM      6  C   UNL     1       0.931  11.600  19.312  0.00  0.00    +0.000 A 
ATOM      7  N   UNL     1       1.411  10.502  18.684  0.00  0.00    +0.000 NA
ATOM      8  C   UNL     1       1.478   9.367  19.415  0.00  0.00    +0.000 A 
ATOM      9  C   UNL     1       1.975   8.132  18.867  0.00  0.00    +0.000 A 
ATOM     10  C   UNL     1       2.019   6.936  19.640  0.00  0.00    +0.000 A 
ATOM     11  C   UNL     1       1.493   6.968  20.925  0.00  0.00    +0.000 A 
ATOM     12  C   UNL     1       1.041   8.153  21.484  0.00  0.00    +0.000 A 
ATOM     13  C   UNL     1       1.044   9.349  20.761  0.00  0.00    +0.000 A 
ENDROOT
BRANCH   1  15
ATOM     14  C   UNL     1      -1.041  10.591  23.114  0.00  0.00    +0.000 C 
ATOM     15  O   UNL     1       0.328  10.460  22.754  0.00  0.00    +0.000 OA
ENDBRANCH   1  15
BRANCH   9  16
ATOM     16  O   UNL     1       2.421   8.268  17.568  0.00  0.00    +0.000 OA
ATOM     17  C   UNL     1       3.714   7.817  17.193  0.00  0.00    +0.000 C 
ENDBRANCH   9  16
BRANCH  10  18
ATOM     18  O   UNL     1       2.541   5.772  19.117  0.00  0.00    +0.000 OA
BRANCH  18  19
ATOM     19  C   UNL     1       2.666   4.612  19.969  0.00  0.00    +0.000 C 
ATOM     20  O   UNL     1       3.860   3.847  19.724  0.00  0.00    +0.000 OA
ATOM     21  C   UNL     1       3.927   3.160  18.476  0.00  0.00    +0.000 C 
ATOM     22  C   UNL     1       4.525   4.056  17.398  0.00  0.00    +0.000 C 
ATOM     23  C   UNL     1       2.636   2.389  18.116  0.00  0.00    +0.000 C 
ATOM     24  C   UNL     1       1.341   3.136  18.457  0.00  0.00    +0.000 C 
ATOM     25  C   UNL     1       1.412   3.726  19.866  0.00  0.00    +0.000 C 
BRANCH  23  26
ATOM     26  O   UNL     1       2.595   1.176  18.922  0.00  0.00    +0.000 OA
ATOM     27  H   UNL     1       2.258   0.454  18.360  0.00  0.00    +0.000 HD
ENDBRANCH  23  26
BRANCH  24  28
ATOM     28  O   UNL     1       0.239   2.213  18.376  0.00  0.00    +0.000 OA
ATOM     29  H   UNL     1       0.622   1.394  18.002  0.00  0.00    +0.000 HD
ENDBRANCH  24  28
BRANCH  25  30
ATOM     30  O   UNL     1       1.452   2.690  20.872  0.00  0.00    +0.000 OA
ATOM     31  H   UNL     1       0.579   2.684  21.314  0.00  0.00    +0.000 HD
ENDBRANCH  25  30
ENDBRANCH  18  19
ENDBRANCH  10  18
TORSDOF 7
ENDMDL
MODEL 6
REMARK VINA RESULT:      -7.2      1.891      7.915
REMARK  Name = 
REMARK  10 active torsions:
REMARK  status: ('A' for Active; 'I' for Inactive)
REMARK    1  A    between atoms: C_1  and  O_2
REMARK    2  A    between atoms: O_2  and  C_3
REMARK    3  A    between atoms: C_11  and  O_12
REMARK    4  A    between atoms: O_12  and  C_13
REMARK    5  A    between atoms: C_14  and  O_15
REMARK    6  A    between atoms: O_15  and  C_16
REMARK    7  A    between atoms: C_18  and  C_19
REMARK    8  A    between atoms: C_20  and  O_21
REMARK    9  A    between atoms: C_22  and  O_23
REMARK   10  A    between atoms: C_24  and  O_25
REMARK                            x       y       z     vdW  Elec       q    Type
REMARK                         _______ _______ _______ _____ _____    ______ ____
ROOT
ATOM      1  C   UNL     1       3.800   6.335  17.811  0.00  0.00    +0.000 A 
ATOM      2  C   UNL     1       3.998   5.160  18.543  0.00  0.00    +0.000 A 
ATOM      3  C   UNL     1       4.788   3.980  18.436  0.00  0.00    +0.000 A 
ATOM      4  C   UNL     1       4.450   3.195  19.504  0.00  0.00    +0.000 A 
ATOM      5  O   UNL     1       3.550   3.837  20.297  0.00  0.00    +0.000 OA
ATOM      6  C   UNL     1       3.281   5.040  19.721  0.00  0.00    +0.000 A 
ATOM      7  N   UNL     1       2.433   5.946  20.261  0.00  0.00    +0.000 NA
ATOM      8  C   UNL     1       2.240   7.086  19.561  0.00  0.00    +0.000 A 
ATOM      9  C   UNL     1       1.368   8.132  20.029  0.00  0.00    +0.000 A 
ATOM     10  C   UNL     1       1.153   9.320  19.271  0.00  0.00    +0.000 A 
ATOM     11  C   UNL     1       1.749   9.414  18.021  0.00  0.00    +0.000 A 
ATOM     12  C   UNL     1       2.619   8.436  17.566  0.00  0.00    +0.000 A 
ATOM     13  C   UNL     1       2.887   7.291  18.321  0.00  0.00    +0.000 A 
ENDROOT
BRANCH   1  15
ATOM     14  C   UNL     1       5.879   6.984  16.879  0.00  0.00    +0.000 C 
ATOM     15  O   UNL     1       4.506   6.682  16.669  0.00  0.00    +0.000 OA
ENDBRANCH   1  15
BRANCH   9  16
ATOM     16  O   UNL     1       0.828   7.859  21.270  0.00  0.00    +0.000 OA
ATOM     17  C   UNL     1       1.037   8.742  22.362  0.00  0.00    +0.000 C 
ENDBRANCH   9  16
BRANCH  10  18
ATOM     18  O   UNL     1       0.352  10.334  19.753  0.00  0.00    +0.000 OA
BRANCH  18  19
ATOM     19  C   UNL     1       0.393  11.627  19.112  0.00  0.00    +0.000 C 
ATOM     20  O   UNL     1       0.652  12.711  20.023  0.00  0.00    +0.000 OA
ATOM     21  C   UNL     1      -0.379  13.009  20.963  0.00  0.00    +0.000 C 
ATOM     22  C   UNL     1      -0.214  12.175  22.227  0.00  0.00    +0.000 C 
ATOM     23  C   UNL     1      -1.792  13.075  20.339  0.00  0.00    +0.000 C 
ATOM     24  C   UNL     1      -2.068  11.993  19.288  0.00  0.00    +0.000 C 
ATOM     25  C   UNL     1      -0.897  11.877  18.311  0.00  0.00    +0.000 C 
BRANCH  23  26
ATOM     26  O   UNL     1      -1.911  14.337  19.621  0.00  0.00    +0.000 OA
ATOM     27  H   UNL     1      -2.601  14.868  20.060  0.00  0.00    +0.000 HD
ENDBRANCH  23  26
BRANCH  24  28
ATOM     28  O   UNL     1      -3.265  12.341  18.567  0.00  0.00    +0.000 OA
ATOM     29  H   UNL     1      -3.300  11.712  17.817  0.00  0.00    +0.000 HD
ENDBRANCH  24  28
BRANCH  25  30
ATOM     30  O   UNL     1      -0.760  13.069  17.507  0.00  0.00    +0.000 OA
ATOM     31  H   UNL     1      -1.105  12.856  16.616  0.00  0.00    +0.000 HD
ENDBRANCH  25  30
ENDBRANCH  18  19
ENDBRANCH  10  18
TORSDOF 7
ENDMDL
MODEL 7
REMARK VINA RESULT:      -7.1      2.095      7.781
REMARK  Name = 
REMARK  10 active torsions:
REMARK  status: ('A' for Active; 'I' for Inactive)
REMARK    1  A    between atoms: C_1  and  O_2
REMARK    2  A    between atoms: O_2  and  C_3
REMARK    3  A    between atoms: C_11  and  O_12
REMARK    4  A    between atoms: O_12  and  C_13
REMARK    5  A    between atoms: C_14  and  O_15
REMARK    6  A    between atoms: O_15  and  C_16
REMARK    7  A    between atoms: C_18  and  C_19
REMARK    8  A    between atoms: C_20  and  O_21
REMARK    9  A    between atoms: C_22  and  O_23
REMARK   10  A    between atoms: C_24  and  O_25
REMARK                            x       y       z     vdW  Elec       q    Type
REMARK                         _______ _______ _______ _____ _____    ______ ____
ROOT
ATOM      1  C   UNL     1       3.531   6.347  17.943  0.00  0.00    +0.000 A 
ATOM      2  C   UNL     1       3.597   5.186  18.721  0.00  0.00    +0.000 A 
ATOM      3  C   UNL     1       4.255   3.924  18.665  0.00  0.00    +0.000 A 
ATOM      4  C   UNL     1       3.828   3.223  19.759  0.00  0.00    +0.000 A 
ATOM      5  O   UNL     1       2.999   3.988  20.520  0.00  0.00    +0.000 OA
ATOM      6  C   UNL     1       2.865   5.190  19.895  0.00  0.00    +0.000 A 
ATOM      7  N   UNL     1       2.118   6.203  20.394  0.00  0.00    +0.000 NA
ATOM      8  C   UNL     1       2.053   7.329  19.649  0.00  0.00    +0.000 A 
ATOM      9  C   UNL     1       1.297   8.480  20.069  0.00  0.00    +0.000 A 
ATOM     10  C   UNL     1       1.216   9.654  19.265  0.00  0.00    +0.000 A 
ATOM     11  C   UNL     1       1.825   9.635  18.017  0.00  0.00    +0.000 A 
ATOM     12  C   UNL     1       2.586   8.552  17.608  0.00  0.00    +0.000 A 
ATOM     13  C   UNL     1       2.725   7.414  18.408  0.00  0.00    +0.000 A 
ENDROOT
BRANCH   1  15
ATOM     14  C   UNL     1       5.662   6.806  17.014  0.00  0.00    +0.000 C 
ATOM     15  O   UNL     1       4.276   6.571  16.795  0.00  0.00    +0.000 OA
ENDBRANCH   1  15
BRANCH   9  16
ATOM     16  O   UNL     1       0.724   8.316  21.314  0.00  0.00    +0.000 OA
ATOM     17  C   UNL     1       1.231   9.012  22.443  0.00  0.00    +0.000 C 
ENDBRANCH   9  16
BRANCH  10  18
ATOM     18  O   UNL     1       0.528  10.767  19.701  0.00  0.00    +0.000 OA
BRANCH  18  19
ATOM     19  C   UNL     1       1.270  11.934  20.116  0.00  0.00    +0.000 C 
ATOM     20  O   UNL     1       1.028  12.309  21.485  0.00  0.00    +0.000 OA
ATOM     21  C   UNL     1      -0.274  12.807  21.786  0.00  0.00    +0.000 C 
ATOM     22  C   UNL     1      -1.218  11.668  22.144  0.00  0.00    +0.000 C 
ATOM     23  C   UNL     1      -0.789  13.859  20.776  0.00  0.00    +0.000 C 
ATOM     24  C   UNL     1      -0.461  13.541  19.312  0.00  0.00    +0.000 C 
ATOM     25  C   UNL     1       1.000  13.114  19.166  0.00  0.00    +0.000 C 
BRANCH  23  26
ATOM     26  O   UNL     1      -0.109  15.118  21.049  0.00  0.00    +0.000 OA
ATOM     27  H   UNL     1      -0.168  15.290  22.007  0.00  0.00    +0.000 HD
ENDBRANCH  23  26
BRANCH  24  28
ATOM     28  O   UNL     1      -0.702  14.717  18.516  0.00  0.00    +0.000 OA
ATOM     29  H   UNL     1      -0.853  14.381  17.609  0.00  0.00    +0.000 HD
ENDBRANCH  24  28
BRANCH  25  30
ATOM     30  O   UNL     1       1.901  14.204  19.460  0.00  0.00    +0.000 OA
ATOM     31  H   UNL     1       1.350  14.982  19.683  0.00  0.00    +0.000 HD
ENDBRANCH  25  30
ENDBRANCH  18  19
ENDBRANCH  10  18
TORSDOF 7
ENDMDL
MODEL 8
REMARK VINA RESULT:      -6.9      1.879      7.788
REMARK  Name = 
REMARK  10 active torsions:
REMARK  status: ('A' for Active; 'I' for Inactive)
REMARK    1  A    between atoms: C_1  and  O_2
REMARK    2  A    between atoms: O_2  and  C_3
REMARK    3  A    between atoms: C_11  and  O_12
REMARK    4  A    between atoms: O_12  and  C_13
REMARK    5  A    between atoms: C_14  and  O_15
REMARK    6  A    between atoms: O_15  and  C_16
REMARK    7  A    between atoms: C_18  and  C_19
REMARK    8  A    between atoms: C_20  and  O_21
REMARK    9  A    between atoms: C_22  and  O_23
REMARK   10  A    between atoms: C_24  and  O_25
REMARK                            x       y       z     vdW  Elec       q    Type
REMARK                         _______ _______ _______ _____ _____    ______ ____
ROOT
ATOM      1  C   UNL     1       3.332   6.401  18.168  0.00  0.00    +0.000 A 
ATOM      2  C   UNL     1       3.318   5.262  18.981  0.00  0.00    +0.000 A 
ATOM      3  C   UNL     1       3.938   3.980  18.999  0.00  0.00    +0.000 A 
ATOM      4  C   UNL     1       3.429   3.324  20.085  0.00  0.00    +0.000 A 
ATOM      5  O   UNL     1       2.582   4.136  20.775  0.00  0.00    +0.000 OA
ATOM      6  C   UNL     1       2.521   5.322  20.111  0.00  0.00    +0.000 A 
ATOM      7  N   UNL     1       1.778   6.371  20.537  0.00  0.00    +0.000 NA
ATOM      8  C   UNL     1       1.791   7.476  19.759  0.00  0.00    +0.000 A 
ATOM      9  C   UNL     1       1.048   8.661  20.103  0.00  0.00    +0.000 A 
ATOM     10  C   UNL     1       1.049   9.813  19.263  0.00  0.00    +0.000 A 
ATOM     11  C   UNL     1       1.728   9.739  18.053  0.00  0.00    +0.000 A 
ATOM     12  C   UNL     1       2.476   8.622  17.719  0.00  0.00    +0.000 A 
ATOM     13  C   UNL     1       2.534   7.505  18.557  0.00  0.00    +0.000 A 
ENDROOT
BRANCH   1  15
ATOM     14  C   UNL     1       5.538   6.664  17.345  0.00  0.00    +0.000 C 
ATOM     15  O   UNL     1       4.148   6.569  17.060  0.00  0.00    +0.000 OA
ENDBRANCH   1  15
BRANCH   9  16
ATOM     16  O   UNL     1       0.401   8.550  21.317  0.00  0.00    +0.000 OA
ATOM     17  C   UNL     1       0.830   9.308  22.439  0.00  0.00    +0.000 C 
ENDBRANCH   9  16
BRANCH  10  18
ATOM     18  O   UNL     1       0.372  10.957  19.627  0.00  0.00    +0.000 OA
BRANCH  18  19
ATOM     19  C   UNL     1      -0.254  11.760  18.602  0.00  0.00    +0.000 C 
ATOM     20  O   UNL     1      -0.895  12.943  19.114  0.00  0.00    +0.000 OA
ATOM     21  C   UNL     1      -2.057  12.737  19.915  0.00  0.00    +0.000 C 
ATOM     22  C   UNL     1      -1.677  12.557  21.379  0.00  0.00    +0.000 C 
ATOM     23  C   UNL     1      -3.058  11.723  19.316  0.00  0.00    +0.000 C 
ATOM     24  C   UNL     1      -2.403  10.495  18.673  0.00  0.00    +0.000 C 
ATOM     25  C   UNL     1      -1.237  10.913  17.775  0.00  0.00    +0.000 C 
BRANCH  23  26
ATOM     26  O   UNL     1      -3.773  12.381  18.230  0.00  0.00    +0.000 OA
ATOM     27  H   UNL     1      -3.824  13.333  18.438  0.00  0.00    +0.000 HD
ENDBRANCH  23  26
BRANCH  24  28
ATOM     28  O   UNL     1      -3.390   9.800  17.888  0.00  0.00    +0.000 OA
ATOM     29  H   UNL     1      -2.967   8.951  17.644  0.00  0.00    +0.000 HD
ENDBRANCH  24  28
BRANCH  25  30
ATOM     30  O   UNL     1      -1.694  11.663  16.629  0.00  0.00    +0.000 OA
ATOM     31  H   UNL     1      -1.959  11.012  15.946  0.00  0.00    +0.000 HD
ENDBRANCH  25  30
ENDBRANCH  18  19
ENDBRANCH  10  18
TORSDOF 7
ENDMDL
MODEL 9
REMARK VINA RESULT:      -6.8      1.855      2.843
REMARK  Name = 
REMARK  10 active torsions:
REMARK  status: ('A' for Active; 'I' for Inactive)
REMARK    1  A    between atoms: C_1  and  O_2
REMARK    2  A    between atoms: O_2  and  C_3
REMARK    3  A    between atoms: C_11  and  O_12
REMARK    4  A    between atoms: O_12  and  C_13
REMARK    5  A    between atoms: C_14  and  O_15
REMARK    6  A    between atoms: O_15  and  C_16
REMARK    7  A    between atoms: C_18  and  C_19
REMARK    8  A    between atoms: C_20  and  O_21
REMARK    9  A    between atoms: C_22  and  O_23
REMARK   10  A    between atoms: C_24  and  O_25
REMARK                            x       y       z     vdW  Elec       q    Type
REMARK                         _______ _______ _______ _____ _____    ______ ____
ROOT
ATOM      1  C   UNL     1      -1.093  11.404  18.831  0.00  0.00    +0.000 A 
ATOM      2  C   UNL     1      -1.733  11.933  19.958  0.00  0.00    +0.000 A 
ATOM      3  C   UNL     1      -2.727  12.914  20.232  0.00  0.00    +0.000 A 
ATOM      4  C   UNL     1      -2.852  12.961  21.593  0.00  0.00    +0.000 A 
ATOM      5  O   UNL     1      -2.047  12.031  22.176  0.00  0.00    +0.000 OA
ATOM      6  C   UNL     1      -1.371  11.395  21.180  0.00  0.00    +0.000 A 
ATOM      7  N   UNL     1      -0.492  10.391  21.408  0.00  0.00    +0.000 NA
ATOM      8  C   UNL     1       0.128   9.873  20.323  0.00  0.00    +0.000 A 
ATOM      9  C   UNL     1       1.080   8.798  20.429  0.00  0.00    +0.000 A 
ATOM     10  C   UNL     1       1.745   8.275  19.282  0.00  0.00    +0.000 A 
ATOM     11  C   UNL     1       1.509   8.883  18.056  0.00  0.00    +0.000 A 
ATOM     12  C   UNL     1       0.571   9.895  17.926  0.00  0.00    +0.000 A 
ATOM     13  C   UNL     1      -0.133  10.382  19.031  0.00  0.00    +0.000 A 
ENDROOT
BRANCH   1  15
ATOM     14  C   UNL     1      -2.626  11.206  17.036  0.00  0.00    +0.000 C 
ATOM     15  O   UNL     1      -1.399  11.737  17.521  0.00  0.00    +0.000 OA
ENDBRANCH   1  15
BRANCH   9  16
ATOM     16  O   UNL     1       1.224   8.339  21.722  0.00  0.00    +0.000 OA
ATOM     17  C   UNL     1       1.835   9.149  22.716  0.00  0.00    +0.000 C 
ENDBRANCH   9  16
BRANCH  10  18
ATOM     18  O   UNL     1       2.620   7.215  19.391  0.00  0.00    +0.000 OA
BRANCH  18  19
ATOM     19  C   UNL     1       2.885   6.399  18.228  0.00  0.00    +0.000 C 
ATOM     20  O   UNL     1       2.067   5.217  18.160  0.00  0.00    +0.000 OA
ATOM     21  C   UNL     1       2.319   4.215  19.143  0.00  0.00    +0.000 C 
ATOM     22  C   UNL     1       1.491   4.468  20.397  0.00  0.00    +0.000 C 
ATOM     23  C   UNL     1       3.819   3.897  19.341  0.00  0.00    +0.000 C 
ATOM     24  C   UNL     1       4.733   5.128  19.319  0.00  0.00    +0.000 C 
ATOM     25  C   UNL     1       4.380   6.042  18.146  0.00  0.00    +0.000 C 
BRANCH  23  26
ATOM     26  O   UNL     1       4.260   3.080  18.218  0.00  0.00    +0.000 OA
ATOM     27  H   UNL     1       3.482   2.887  17.664  0.00  0.00    +0.000 HD
ENDBRANCH  23  26
BRANCH  24  28
ATOM     28  O   UNL     1       6.099   4.690  19.195  0.00  0.00    +0.000 OA
ATOM     29  H   UNL     1       6.620   5.513  19.097  0.00  0.00    +0.000 HD
ENDBRANCH  24  28
BRANCH  25  30
ATOM     30  O   UNL     1       4.670   5.413  16.878  0.00  0.00    +0.000 OA
ATOM     31  H   UNL     1       5.509   4.921  16.987  0.00  0.00    +0.000 HD
ENDBRANCH  25  30
ENDBRANCH  18  19
ENDBRANCH  10  18
TORSDOF 7
ENDMDL
