MODEL 1
REMARK VINA RESULT:      -9.5      0.000      0.000
REMARK  Name = 
REMARK  7 active torsions:
REMARK  status: ('A' for Active; 'I' for Inactive)
REMARK    1  A    between atoms: C_1  and  O_2
REMARK    2  A    between atoms: O_2  and  C_3
REMARK    3  A    between atoms: C_8  and  C_9
REMARK    4  A    between atoms: C_9  and  C_10
REMARK    5  A    between atoms: N_14  and  C_15
REMARK    6  A    between atoms: C_15  and  C_16
REMARK    7  A    between atoms: N_22  and  C_23
REMARK                            x       y       z     vdW  Elec       q    Type
REMARK                         _______ _______ _______ _____ _____    ______ ____
ROOT
ATOM      1  C   UNL     1       0.438   9.685  20.716  0.00  0.00    +0.000 C 
ATOM      2  C   UNL     1      -0.241   8.916  21.857  0.00  0.00    +0.000 C 
ATOM      3  N   UNL     1       1.132  10.824  21.289  0.00  0.00    +0.000 N 
ATOM      4  C   UNL     1       0.407  11.986  21.163  0.00  0.00    +0.000 C 
ATOM      5  O   UNL     1       0.684  13.024  21.738  0.00  0.00    +0.000 OA
ATOM      6  N   UNL     1      -0.624  11.760  20.311  0.00  0.00    +0.000 N 
ATOM      7  C   UNL     1      -0.652  10.448  19.924  0.00  0.00    +0.000 C 
ATOM      8  O   UNL     1      -1.455   9.953  19.143  0.00  0.00    +0.000 OA
ATOM      9  H   UNL     1       1.872  10.763  21.975  0.00  0.00    +0.000 HD
ENDROOT
BRANCH   1  15
ATOM     10  C   UNL     1       4.163   5.058  17.819  0.00  0.00    +0.000 A 
ATOM     11  C   UNL     1       3.787   4.625  19.089  0.00  0.00    +0.000 A 
ATOM     12  C   UNL     1       2.995   5.441  19.902  0.00  0.00    +0.000 A 
ATOM     13  C   UNL     1       2.562   6.701  19.461  0.00  0.00    +0.000 A 
ATOM     14  C   UNL     1       1.771   7.532  20.281  0.00  0.00    +0.000 A 
ATOM     15  C   UNL     1       1.321   8.794  19.851  0.00  0.00    +0.000 A 
ATOM     16  C   UNL     1       1.701   9.206  18.562  0.00  0.00    +0.000 A 
ATOM     17  C   UNL     1       2.484   8.392  17.735  0.00  0.00    +0.000 A 
ATOM     18  C   UNL     1       2.925   7.136  18.173  0.00  0.00    +0.000 A 
ATOM     19  C   UNL     1       3.722   6.305  17.365  0.00  0.00    +0.000 A 
BRANCH  10  21
ATOM     20  C   UNL     1       6.164   4.991  16.537  0.00  0.00    +0.000 C 
ATOM     21  O   UNL     1       4.949   4.366  16.937  0.00  0.00    +0.000 OA
ENDBRANCH  10  21
ENDBRANCH   1  15
BRANCH   6  22
ATOM     22  C   UNL     1      -1.582  12.762  19.906  0.00  0.00    +0.000 C 
BRANCH  22  23
ATOM     23  C   UNL     1      -2.841  12.802  20.749  0.00  0.00    +0.000 A 
ATOM     24  N   UNL     1      -2.772  12.547  22.054  0.00  0.00    +0.000 NA
ATOM     25  C   UNL     1      -3.940  12.458  22.671  0.00  0.00    +0.000 A 
ATOM     26  N   UNL     1      -3.914  12.143  24.016  0.00  0.00    +0.000 N 
ATOM     27  N   UNL     1      -5.129  12.586  22.096  0.00  0.00    +0.000 NA
ATOM     28  C   UNL     1      -5.104  12.884  20.805  0.00  0.00    +0.000 A 
ATOM     29  N   UNL     1      -6.331  13.053  20.160  0.00  0.00    +0.000 N 
ATOM     30  N   UNL     1      -3.984  12.978  20.092  0.00  0.00    +0.000 NA
ATOM     31  H   UNL     1      -3.042  11.680  24.238  0.00  0.00    +0.000 HD
ATOM     32  H   UNL     1      -4.762  11.659  24.276  0.00  0.00    +0.000 HD
ATOM     33  H   UNL     1      -7.102  12.909  20.794  0.00  0.00    +0.000 HD
BRANCH  29  34
ATOM     34  C   UNL     1      -6.605  13.836  19.027  0.00  0.00    +0.000 A 
ATOM     35  C   UNL     1      -6.814  13.213  17.788  0.00  0.00    +0.000 A 
ATOM     36  C   UNL     1      -7.009  13.976  16.632  0.00  0.00    +0.000 A 
ATOM     37  C   UNL     1      -7.012  15.364  16.715  0.00  0.00    +0.000 A 
ATOM     38  F   UNL     1      -7.184  16.093  15.605  0.00  0.00    +0.000 F 
ATOM     39  C   UNL     1      -6.829  16.003  17.930  0.00  0.00    +0.000 A 
ATOM     40  C   UNL     1      -6.623  15.239  19.079  0.00  0.00    +0.000 A 
ENDBRANCH  29  34
ENDBRANCH  22  23
ENDBRANCH   6  22
TORSDOF 5
ENDMDL
MODEL 2
REMARK VINA RESULT:      -9.3      6.544     12.045
REMARK  Name = 
REMARK  7 active torsions:
REMARK  status: ('A' for Active; 'I' for Inactive)
REMARK    1  A    between atoms: C_1  and  O_2
REMARK    2  A    between atoms: O_2  and  C_3
REMARK    3  A    between atoms: C_8  and  C_9
REMARK    4  A    between atoms: C_9  and  C_10
REMARK    5  A    between atoms: N_14  and  C_15
REMARK    6  A    between atoms: C_15  and  C_16
REMARK    7  A    between atoms: N_22  and  C_23
REMARK                            x       y       z     vdW  Elec       q    Type
REMARK                         _______ _______ _______ _____ _____    ______ ____
ROOT
ATOM      1  C   UNL     1       2.175   5.023  19.698  0.00  0.00    +0.000 C 
ATOM      2  C   UNL     1       1.793   4.194  20.932  0.00  0.00    +0.000 C 
ATOM      3  N   UNL     1       1.574   4.403  18.532  0.00  0.00    +0.000 N 
ATOM      4  C   UNL     1       2.473   3.622  17.843  0.00  0.00    +0.000 C 
ATOM      5  O   UNL     1       2.158   2.847  16.956  0.00  0.00    +0.000 OA
ATOM      6  N   UNL     1       3.716   3.874  18.319  0.00  0.00    +0.000 N 
ATOM      7  C   UNL     1       3.663   4.751  19.369  0.00  0.00    +0.000 C 
ATOM      8  O   UNL     1       4.630   5.181  19.986  0.00  0.00    +0.000 OA
ATOM      9  H   UNL     1       0.581   4.268  18.398  0.00  0.00    +0.000 HD
ENDROOT
BRANCH   1  15
ATOM     10  C   UNL     1       1.076  11.528  19.300  0.00  0.00    +0.000 A 
ATOM     11  C   UNL     1       1.672  11.084  18.122  0.00  0.00    +0.000 A 
ATOM     12  C   UNL     1       2.007   9.735  17.971  0.00  0.00    +0.000 A 
ATOM     13  C   UNL     1       1.751   8.806  18.991  0.00  0.00    +0.000 A 
ATOM     14  C   UNL     1       2.096   7.446  18.848  0.00  0.00    +0.000 A 
ATOM     15  C   UNL     1       1.837   6.500  19.856  0.00  0.00    +0.000 A 
ATOM     16  C   UNL     1       1.223   6.967  21.032  0.00  0.00    +0.000 A 
ATOM     17  C   UNL     1       0.873   8.313  21.189  0.00  0.00    +0.000 A 
ATOM     18  C   UNL     1       1.134   9.246  20.177  0.00  0.00    +0.000 A 
ATOM     19  C   UNL     1       0.801  10.606  20.315  0.00  0.00    +0.000 A 
BRANCH  10  21
ATOM     20  C   UNL     1      -0.258  13.410  18.727  0.00  0.00    +0.000 C 
ATOM     21  O   UNL     1       0.719  12.820  19.579  0.00  0.00    +0.000 OA
ENDBRANCH  10  21
ENDBRANCH   1  15
BRANCH   6  22
ATOM     22  C   UNL     1       4.923   3.265  17.812  0.00  0.00    +0.000 C 
BRANCH  22  23
ATOM     23  C   UNL     1       5.878   4.230  17.138  0.00  0.00    +0.000 A 
ATOM     24  N   UNL     1       6.566   5.100  17.875  0.00  0.00    +0.000 NA
ATOM     25  C   UNL     1       7.255   5.997  17.186  0.00  0.00    +0.000 A 
ATOM     26  N   UNL     1       7.941   6.952  17.912  0.00  0.00    +0.000 N 
ATOM     27  N   UNL     1       7.293   6.092  15.862  0.00  0.00    +0.000 NA
ATOM     28  C   UNL     1       6.617   5.158  15.209  0.00  0.00    +0.000 A 
ATOM     29  N   UNL     1       6.646   5.200  13.813  0.00  0.00    +0.000 N 
ATOM     30  N   UNL     1       5.880   4.226  15.809  0.00  0.00    +0.000 NA
ATOM     31  H   UNL     1       7.527   7.039  18.831  0.00  0.00    +0.000 HD
ATOM     32  H   UNL     1       8.029   7.802  17.373  0.00  0.00    +0.000 HD
ATOM     33  H   UNL     1       7.197   5.978  13.481  0.00  0.00    +0.000 HD
BRANCH  29  34
ATOM     34  C   UNL     1       6.492   4.130  12.918  0.00  0.00    +0.000 A 
ATOM     35  C   UNL     1       5.212   3.617  12.665  0.00  0.00    +0.000 A 
ATOM     36  C   UNL     1       5.044   2.500  11.840  0.00  0.00    +0.000 A 
ATOM     37  C   UNL     1       6.154   1.905  11.251  0.00  0.00    +0.000 A 
ATOM     38  F   UNL     1       5.991   0.826  10.473  0.00  0.00    +0.000 F 
ATOM     39  C   UNL     1       7.426   2.405  11.467  0.00  0.00    +0.000 A 
ATOM     40  C   UNL     1       7.592   3.512  12.301  0.00  0.00    +0.000 A 
ENDBRANCH  29  34
ENDBRANCH  22  23
ENDBRANCH   6  22
TORSDOF 5
ENDMDL
MODEL 3
REMARK VINA RESULT:      -9.1      6.391     12.093
REMARK  Name = 
REMARK  7 active torsions:
REMARK  status: ('A' for Active; 'I' for Inactive)
REMARK    1  A    between atoms: C_1  and  O_2
REMARK    2  A    between atoms: O_2  and  C_3
REMARK    3  A    between atoms: C_8  and  C_9
REMARK    4  A    between atoms: C_9  and  C_10
REMARK    5  A    between atoms: N_14  and  C_15
REMARK    6  A    between atoms: C_15  and  C_16
REMARK    7  A    between atoms: N_22  and  C_23
REMARK                            x       y       z     vdW  Elec       q    Type
REMARK                         _______ _______ _______ _____ _____    ______ ____
ROOT
ATOM      1  C   UNL     1       2.191   5.086  19.622  0.00  0.00    +0.000 C 
ATOM      2  C   UNL     1       1.819   4.303  20.889  0.00  0.00    +0.000 C 
ATOM      3  N   UNL     1       1.595   4.411  18.483  0.00  0.00    +0.000 N 
ATOM      4  C   UNL     1       2.502   3.613  17.826  0.00  0.00    +0.000 C 
ATOM      5  O   UNL     1       2.195   2.799  16.972  0.00  0.00    +0.000 OA
ATOM      6  N   UNL     1       3.743   3.899  18.290  0.00  0.00    +0.000 N 
ATOM      7  C   UNL     1       3.681   4.817  19.302  0.00  0.00    +0.000 C 
ATOM      8  O   UNL     1       4.643   5.283  19.901  0.00  0.00    +0.000 OA
ATOM      9  H   UNL     1       0.604   4.260  18.357  0.00  0.00    +0.000 HD
ENDROOT
BRANCH   1  15
ATOM     10  C   UNL     1       0.330  11.248  21.124  0.00  0.00    +0.000 A 
ATOM     11  C   UNL     1       0.047  10.402  22.194  0.00  0.00    +0.000 A 
ATOM     12  C   UNL     1       0.347   9.039  22.110  0.00  0.00    +0.000 A 
ATOM     13  C   UNL     1       0.939   8.497  20.958  0.00  0.00    +0.000 A 
ATOM     14  C   UNL     1       1.235   7.122  20.864  0.00  0.00    +0.000 A 
ATOM     15  C   UNL     1       1.836   6.564  19.721  0.00  0.00    +0.000 A 
ATOM     16  C   UNL     1       2.126   7.437  18.657  0.00  0.00    +0.000 A 
ATOM     17  C   UNL     1       1.840   8.805  18.736  0.00  0.00    +0.000 A 
ATOM     18  C   UNL     1       1.243   9.349  19.881  0.00  0.00    +0.000 A 
ATOM     19  C   UNL     1       0.936  10.719  19.979  0.00  0.00    +0.000 A 
BRANCH  10  21
ATOM     20  C   UNL     1      -1.268  12.969  20.765  0.00  0.00    +0.000 C 
ATOM     21  O   UNL     1       0.069  12.590  21.073  0.00  0.00    +0.000 OA
ENDBRANCH  10  21
ENDBRANCH   1  15
BRANCH   6  22
ATOM     22  C   UNL     1       4.957   3.283  17.806  0.00  0.00    +0.000 C 
BRANCH  22  23
ATOM     23  C   UNL     1       5.914   4.237  17.121  0.00  0.00    +0.000 A 
ATOM     24  N   UNL     1       6.615   5.105  17.848  0.00  0.00    +0.000 NA
ATOM     25  C   UNL     1       7.307   5.993  17.150  0.00  0.00    +0.000 A 
ATOM     26  N   UNL     1       8.007   6.945  17.867  0.00  0.00    +0.000 N 
ATOM     27  N   UNL     1       7.336   6.081  15.826  0.00  0.00    +0.000 NA
ATOM     28  C   UNL     1       6.647   5.150  15.182  0.00  0.00    +0.000 A 
ATOM     29  N   UNL     1       6.666   5.186  13.786  0.00  0.00    +0.000 N 
ATOM     30  N   UNL     1       5.906   4.227  15.792  0.00  0.00    +0.000 NA
ATOM     31  H   UNL     1       7.600   7.039  18.789  0.00  0.00    +0.000 HD
ATOM     32  H   UNL     1       8.098   7.792  17.324  0.00  0.00    +0.000 HD
ATOM     33  H   UNL     1       7.220   5.958  13.447  0.00  0.00    +0.000 HD
BRANCH  29  34
ATOM     34  C   UNL     1       6.496   4.113  12.897  0.00  0.00    +0.000 A 
ATOM     35  C   UNL     1       5.208   3.621  12.643  0.00  0.00    +0.000 A 
ATOM     36  C   UNL     1       5.023   2.502  11.824  0.00  0.00    +0.000 A 
ATOM     37  C   UNL     1       6.124   1.884  11.242  0.00  0.00    +0.000 A 
ATOM     38  F   UNL     1       5.946   0.804  10.470  0.00  0.00    +0.000 F 
ATOM     39  C   UNL     1       7.405   2.364  11.459  0.00  0.00    +0.000 A 
ATOM     40  C   UNL     1       7.587   3.473  12.287  0.00  0.00    +0.000 A 
ENDBRANCH  29  34
ENDBRANCH  22  23
ENDBRANCH   6  22
TORSDOF 5
ENDMDL
MODEL 4
REMARK VINA RESULT:      -8.9      1.455      2.503
REMARK  Name = 
REMARK  7 active torsions:
REMARK  status: ('A' for Active; 'I' for Inactive)
REMARK    1  A    between atoms: C_1  and  O_2
REMARK    2  A    between atoms: O_2  and  C_3
REMARK    3  A    between atoms: C_8  and  C_9
REMARK    4  A    between atoms: C_9  and  C_10
REMARK    5  A    between atoms: N_14  and  C_15
REMARK    6  A    between atoms: C_15  and  C_16
REMARK    7  A    between atoms: N_22  and  C_23
REMARK                            x       y       z     vdW  Elec       q    Type
REMARK                         _______ _______ _______ _____ _____    ______ ____
ROOT
ATOM      1  C   UNL     1       0.975  10.696  18.867  0.00  0.00    +0.000 C 
ATOM      2  C   UNL     1       2.168  11.276  18.095  0.00  0.00    +0.000 C 
ATOM      3  N   UNL     1      -0.199  10.784  18.017  0.00  0.00    +0.000 N 
ATOM      4  C   UNL     1      -0.981  11.871  18.331  0.00  0.00    +0.000 C 
ATOM      5  O   UNL     1      -1.900  12.268  17.636  0.00  0.00    +0.000 OA
ATOM      6  N   UNL     1      -0.551  12.386  19.508  0.00  0.00    +0.000 N 
ATOM      7  C   UNL     1       0.555  11.715  19.954  0.00  0.00    +0.000 C 
ATOM      8  O   UNL     1       1.151  11.940  21.000  0.00  0.00    +0.000 OA
ATOM      9  H   UNL     1      -0.291  10.338  17.114  0.00  0.00    +0.000 HD
ENDROOT
BRANCH   1  15
ATOM     10  C   UNL     1       2.738   4.470  20.212  0.00  0.00    +0.000 A 
ATOM     11  C   UNL     1       3.179   4.813  18.936  0.00  0.00    +0.000 A 
ATOM     12  C   UNL     1       2.918   6.087  18.423  0.00  0.00    +0.000 A 
ATOM     13  C   UNL     1       2.216   7.042  19.175  0.00  0.00    +0.000 A 
ATOM     14  C   UNL     1       1.941   8.325  18.658  0.00  0.00    +0.000 A 
ATOM     15  C   UNL     1       1.247   9.296  19.403  0.00  0.00    +0.000 A 
ATOM     16  C   UNL     1       0.823   8.935  20.693  0.00  0.00    +0.000 A 
ATOM     17  C   UNL     1       1.089   7.665  21.221  0.00  0.00    +0.000 A 
ATOM     18  C   UNL     1       1.783   6.707  20.471  0.00  0.00    +0.000 A 
ATOM     19  C   UNL     1       2.054   5.421  20.976  0.00  0.00    +0.000 A 
BRANCH  10  21
ATOM     20  C   UNL     1       1.732   2.581  21.246  0.00  0.00    +0.000 C 
ATOM     21  O   UNL     1       2.912   3.256  20.820  0.00  0.00    +0.000 OA
ENDBRANCH  10  21
ENDBRANCH   1  15
BRANCH   6  22
ATOM     22  C   UNL     1      -1.157  13.515  20.175  0.00  0.00    +0.000 C 
BRANCH  22  23
ATOM     23  C   UNL     1      -2.429  13.188  20.931  0.00  0.00    +0.000 A 
ATOM     24  N   UNL     1      -2.361  12.806  22.205  0.00  0.00    +0.000 NA
ATOM     25  C   UNL     1      -3.507  12.400  22.731  0.00  0.00    +0.000 A 
ATOM     26  N   UNL     1      -3.470  11.944  24.035  0.00  0.00    +0.000 N 
ATOM     27  N   UNL     1      -4.669  12.337  22.094  0.00  0.00    +0.000 NA
ATOM     28  C   UNL     1      -4.655  12.780  20.845  0.00  0.00    +0.000 A 
ATOM     29  N   UNL     1      -5.861  12.757  20.140  0.00  0.00    +0.000 N 
ATOM     30  N   UNL     1      -3.553  13.191  20.221  0.00  0.00    +0.000 NA
ATOM     31  H   UNL     1      -2.528  11.655  24.265  0.00  0.00    +0.000 HD
ATOM     32  H   UNL     1      -4.202  11.264  24.187  0.00  0.00    +0.000 HD
ATOM     33  H   UNL     1      -6.608  12.380  20.704  0.00  0.00    +0.000 HD
BRANCH  29  34
ATOM     34  C   UNL     1      -6.251  13.588  19.079  0.00  0.00    +0.000 A 
ATOM     35  C   UNL     1      -6.413  13.045  17.796  0.00  0.00    +0.000 A 
ATOM     36  C   UNL     1      -6.722  13.869  16.709  0.00  0.00    +0.000 A 
ATOM     37  C   UNL     1      -6.889  15.236  16.904  0.00  0.00    +0.000 A 
ATOM     38  F   UNL     1      -7.170  16.024  15.859  0.00  0.00    +0.000 F 
ATOM     39  C   UNL     1      -6.755  15.793  18.165  0.00  0.00    +0.000 A 
ATOM     40  C   UNL     1      -6.434  14.971  19.245  0.00  0.00    +0.000 A 
ENDBRANCH  29  34
ENDBRANCH  22  23
ENDBRANCH   6  22
TORSDOF 5
ENDMDL
MODEL 5
REMARK VINA RESULT:      -8.8      6.282     11.720
REMARK  Name = 
REMARK  7 active torsions:
REMARK  status: ('A' for Active; 'I' for Inactive)
REMARK    1  A    between atoms: C_1  and  O_2
REMARK    2  A    between atoms: O_2  and  C_3
REMARK    3  A    between atoms: C_8  and  C_9
REMARK    4  A    between atoms: C_9  and  C_10
REMARK    5  A    between atoms: N_14  and  C_15
REMARK    6  A    between atoms: C_15  and  C_16
REMARK    7  A    between atoms: N_22  and  C_23
REMARK                            x       y       z     vdW  Elec       q    Type
REMARK                         _______ _______ _______ _____ _____    ______ ____
ROOT
ATOM      1  C   UNL     1       1.862   5.679  19.537  0.00  0.00    +0.000 C 
ATOM      2  C   UNL     1       1.196   5.144  20.812  0.00  0.00    +0.000 C 
ATOM      3  N   UNL     1       1.398   4.881  18.416  0.00  0.00    +0.000 N 
ATOM      4  C   UNL     1       2.311   3.916  18.060  0.00  0.00    +0.000 C 
ATOM      5  O   UNL     1       2.067   3.003  17.290  0.00  0.00    +0.000 OA
ATOM      6  N   UNL     1       3.479   4.170  18.699  0.00  0.00    +0.000 N 
ATOM      7  C   UNL     1       3.346   5.241  19.540  0.00  0.00    +0.000 C 
ATOM      8  O   UNL     1       4.238   5.718  20.232  0.00  0.00    +0.000 OA
ATOM      9  H   UNL     1       0.432   4.793  18.132  0.00  0.00    +0.000 HD
ENDROOT
BRANCH   1  15
ATOM     10  C   UNL     1       0.721  12.181  19.864  0.00  0.00    +0.000 A 
ATOM     11  C   UNL     1       0.438  11.596  21.097  0.00  0.00    +0.000 A 
ATOM     12  C   UNL     1       0.599  10.218  21.273  0.00  0.00    +0.000 A 
ATOM     13  C   UNL     1       1.047   9.401  20.224  0.00  0.00    +0.000 A 
ATOM     14  C   UNL     1       1.202   8.010  20.393  0.00  0.00    +0.000 A 
ATOM     15  C   UNL     1       1.659   7.178  19.354  0.00  0.00    +0.000 A 
ATOM     16  C   UNL     1       1.952   7.790  18.123  0.00  0.00    +0.000 A 
ATOM     17  C   UNL     1       1.805   9.170  17.940  0.00  0.00    +0.000 A 
ATOM     18  C   UNL     1       1.351   9.989  18.982  0.00  0.00    +0.000 A 
ATOM     19  C   UNL     1       1.185  11.377  18.818  0.00  0.00    +0.000 A 
BRANCH  10  21
ATOM     20  C   UNL     1      -0.265  13.828  18.463  0.00  0.00    +0.000 C 
ATOM     21  O   UNL     1       0.587  13.508  19.559  0.00  0.00    +0.000 OA
ENDBRANCH  10  21
ENDBRANCH   1  15
BRANCH   6  22
ATOM     22  C   UNL     1       4.683   3.387  18.541  0.00  0.00    +0.000 C 
BRANCH  22  23
ATOM     23  C   UNL     1       5.894   4.182  18.097  0.00  0.00    +0.000 A 
ATOM     24  N   UNL     1       6.736   4.667  19.007  0.00  0.00    +0.000 NA
ATOM     25  C   UNL     1       7.675   5.471  18.530  0.00  0.00    +0.000 A 
ATOM     26  N   UNL     1       8.538   6.038  19.449  0.00  0.00    +0.000 N 
ATOM     27  N   UNL     1       7.818   5.823  17.259  0.00  0.00    +0.000 NA
ATOM     28  C   UNL     1       6.966   5.258  16.416  0.00  0.00    +0.000 A 
ATOM     29  N   UNL     1       7.091   5.577  15.062  0.00  0.00    +0.000 N 
ATOM     30  N   UNL     1       5.977   4.451  16.798  0.00  0.00    +0.000 NA
ATOM     31  H   UNL     1       8.104   6.040  20.363  0.00  0.00    +0.000 HD
ATOM     32  H   UNL     1       8.876   6.927  19.106  0.00  0.00    +0.000 HD
ATOM     33  H   UNL     1       7.843   6.232  14.909  0.00  0.00    +0.000 HD
BRANCH  29  34
ATOM     34  C   UNL     1       6.722   4.795  13.957  0.00  0.00    +0.000 A 
ATOM     35  C   UNL     1       5.457   4.191  13.928  0.00  0.00    +0.000 A 
ATOM     36  C   UNL     1       5.098   3.343  12.875  0.00  0.00    +0.000 A 
ATOM     37  C   UNL     1       5.997   3.110  11.840  0.00  0.00    +0.000 A 
ATOM     38  F   UNL     1       5.657   2.286  10.840  0.00  0.00    +0.000 F 
ATOM     39  C   UNL     1       7.245   3.712  11.835  0.00  0.00    +0.000 A 
ATOM     40  C   UNL     1       7.604   4.547  12.893  0.00  0.00    +0.000 A 
ENDBRANCH  29  34
ENDBRANCH  22  23
ENDBRANCH   6  22
TORSDOF 5
ENDMDL
MODEL 6
REMARK VINA RESULT:      -8.7      5.243     10.591
REMARK  Name = 
REMARK  7 active torsions:
REMARK  status: ('A' for Active; 'I' for Inactive)
REMARK    1  A    between atoms: C_1  and  O_2
REMARK    2  A    between atoms: O_2  and  C_3
REMARK    3  A    between atoms: C_8  and  C_9
REMARK    4  A    between atoms: C_9  and  C_10
REMARK    5  A    between atoms: N_14  and  C_15
REMARK    6  A    between atoms: C_15  and  C_16
REMARK    7  A    between atoms: N_22  and  C_23
REMARK                            x       y       z     vdW  Elec       q    Type
REMARK                         _______ _______ _______ _____ _____    ______ ____
ROOT
ATOM      1  C   UNL     1       0.341  10.356  18.721  0.00  0.00    +0.000 C 
ATOM      2  C   UNL     1      -0.993   9.937  18.088  0.00  0.00    +0.000 C 
ATOM      3  N   UNL     1       1.411   9.692  18.000  0.00  0.00    +0.000 N 
ATOM      4  C   UNL     1       1.859   8.572  18.660  0.00  0.00    +0.000 C 
ATOM      5  O   UNL     1       2.603   7.744  18.162  0.00  0.00    +0.000 OA
ATOM      6  N   UNL     1       1.339   8.572  19.911  0.00  0.00    +0.000 N 
ATOM      7  C   UNL     1       0.487   9.629  20.080  0.00  0.00    +0.000 C 
ATOM      8  O   UNL     1      -0.115   9.901  21.112  0.00  0.00    +0.000 OA
ATOM      9  H   UNL     1       1.599   9.807  17.013  0.00  0.00    +0.000 HD
ENDROOT
BRANCH   1  15
ATOM     10  C   UNL     1       2.145  16.711  18.934  0.00  0.00    +0.000 A 
ATOM     11  C   UNL     1       3.278  15.909  18.807  0.00  0.00    +0.000 A 
ATOM     12  C   UNL     1       3.149  14.519  18.747  0.00  0.00    +0.000 A 
ATOM     13  C   UNL     1       1.890  13.903  18.808  0.00  0.00    +0.000 A 
ATOM     14  C   UNL     1       1.755  12.501  18.758  0.00  0.00    +0.000 A 
ATOM     15  C   UNL     1       0.499  11.869  18.809  0.00  0.00    +0.000 A 
ATOM     16  C   UNL     1      -0.632  12.696  18.923  0.00  0.00    +0.000 A 
ATOM     17  C   UNL     1      -0.515  14.091  18.973  0.00  0.00    +0.000 A 
ATOM     18  C   UNL     1       0.741  14.709  18.920  0.00  0.00    +0.000 A 
ATOM     19  C   UNL     1       0.884  16.108  18.978  0.00  0.00    +0.000 A 
BRANCH  10  21
ATOM     20  C   UNL     1       1.917  18.631  20.316  0.00  0.00    +0.000 C 
ATOM     21  O   UNL     1       2.137  18.077  19.023  0.00  0.00    +0.000 OA
ENDBRANCH  10  21
ENDBRANCH   1  15
BRANCH   6  22
ATOM     22  C   UNL     1       1.617   7.567  20.910  0.00  0.00    +0.000 C 
BRANCH  22  23
ATOM     23  C   UNL     1       1.919   6.192  20.349  0.00  0.00    +0.000 A 
ATOM     24  N   UNL     1       0.973   5.255  20.351  0.00  0.00    +0.000 NA
ATOM     25  C   UNL     1       1.376   4.049  19.980  0.00  0.00    +0.000 A 
ATOM     26  N   UNL     1       0.437   3.036  20.019  0.00  0.00    +0.000 N 
ATOM     27  N   UNL     1       2.615   3.722  19.636  0.00  0.00    +0.000 NA
ATOM     28  C   UNL     1       3.482   4.724  19.617  0.00  0.00    +0.000 A 
ATOM     29  N   UNL     1       4.794   4.434  19.237  0.00  0.00    +0.000 N 
ATOM     30  N   UNL     1       3.179   5.966  19.989  0.00  0.00    +0.000 NA
ATOM     31  H   UNL     1      -0.306   3.289  20.658  0.00  0.00    +0.000 HD
ATOM     32  H   UNL     1       0.891   2.147  20.180  0.00  0.00    +0.000 HD
ATOM     33  H   UNL     1       4.907   3.454  19.027  0.00  0.00    +0.000 HD
BRANCH  29  34
ATOM     34  C   UNL     1       5.728   5.300  18.647  0.00  0.00    +0.000 A 
ATOM     35  C   UNL     1       6.956   5.532  19.284  0.00  0.00    +0.000 A 
ATOM     36  C   UNL     1       7.868   6.452  18.756  0.00  0.00    +0.000 A 
ATOM     37  C   UNL     1       7.562   7.129  17.581  0.00  0.00    +0.000 A 
ATOM     38  F   UNL     1       8.431   8.021  17.086  0.00  0.00    +0.000 F 
ATOM     39  C   UNL     1       6.365   6.903  16.922  0.00  0.00    +0.000 A 
ATOM     40  C   UNL     1       5.453   5.994  17.457  0.00  0.00    +0.000 A 
ENDBRANCH  29  34
ENDBRANCH  22  23
ENDBRANCH   6  22
TORSDOF 5
ENDMDL
MODEL 7
REMARK VINA RESULT:      -8.7      5.661     10.853
REMARK  Name = 
REMARK  7 active torsions:
REMARK  status: ('A' for Active; 'I' for Inactive)
REMARK    1  A    between atoms: C_1  and  O_2
REMARK    2  A    between atoms: O_2  and  C_3
REMARK    3  A    between atoms: C_8  and  C_9
REMARK    4  A    between atoms: C_9  and  C_10
REMARK    5  A    between atoms: N_14  and  C_15
REMARK    6  A    between atoms: C_15  and  C_16
REMARK    7  A    between atoms: N_22  and  C_23
REMARK                            x       y       z     vdW  Elec       q    Type
REMARK                         _______ _______ _______ _____ _____    ______ ____
ROOT
ATOM      1  C   UNL     1       0.894   9.942  18.365  0.00  0.00    +0.000 C 
ATOM      2  C   UNL     1      -0.483   9.454  17.895  0.00  0.00    +0.000 C 
ATOM      3  N   UNL     1       1.896   9.406  17.461  0.00  0.00    +0.000 N 
ATOM      4  C   UNL     1       2.511   8.289  17.978  0.00  0.00    +0.000 C 
ATOM      5  O   UNL     1       3.233   7.552  17.331  0.00  0.00    +0.000 OA
ATOM      6  N   UNL     1       2.174   8.179  19.287  0.00  0.00    +0.000 N 
ATOM      7  C   UNL     1       1.282   9.155  19.640  0.00  0.00    +0.000 C 
ATOM      8  O   UNL     1       0.815   9.321  20.761  0.00  0.00    +0.000 OA
ATOM      9  H   UNL     1       1.933   9.588  16.468  0.00  0.00    +0.000 HD
ENDROOT
BRANCH   1  15
ATOM     10  C   UNL     1       2.248  16.402  18.714  0.00  0.00    +0.000 A 
ATOM     11  C   UNL     1       3.397  15.704  18.349  0.00  0.00    +0.000 A 
ATOM     12  C   UNL     1       3.360  14.313  18.215  0.00  0.00    +0.000 A 
ATOM     13  C   UNL     1       2.177  13.594  18.440  0.00  0.00    +0.000 A 
ATOM     14  C   UNL     1       2.137  12.190  18.316  0.00  0.00    +0.000 A 
ATOM     15  C   UNL     1       0.956  11.455  18.529  0.00  0.00    +0.000 A 
ATOM     16  C   UNL     1      -0.196  12.179  18.883  0.00  0.00    +0.000 A 
ATOM     17  C   UNL     1      -0.173  13.573  19.009  0.00  0.00    +0.000 A 
ATOM     18  C   UNL     1       1.008  14.295  18.793  0.00  0.00    +0.000 A 
ATOM     19  C   UNL     1       1.058  15.695  18.923  0.00  0.00    +0.000 A 
BRANCH  10  21
ATOM     20  C   UNL     1       0.905  18.359  18.582  0.00  0.00    +0.000 C 
ATOM     21  O   UNL     1       2.156  17.755  18.897  0.00  0.00    +0.000 OA
ENDBRANCH  10  21
ENDBRANCH   1  15
BRANCH   6  22
ATOM     22  C   UNL     1       2.661   7.146  20.170  0.00  0.00    +0.000 C 
BRANCH  22  23
ATOM     23  C   UNL     1       2.440   5.734  19.666  0.00  0.00    +0.000 A 
ATOM     24  N   UNL     1       1.353   5.062  20.039  0.00  0.00    +0.000 NA
ATOM     25  C   UNL     1       1.325   3.790  19.670  0.00  0.00    +0.000 A 
ATOM     26  N   UNL     1       0.239   3.043  20.083  0.00  0.00    +0.000 N 
ATOM     27  N   UNL     1       2.277   3.162  18.991  0.00  0.00    +0.000 NA
ATOM     28  C   UNL     1       3.301   3.918  18.621  0.00  0.00    +0.000 A 
ATOM     29  N   UNL     1       4.318   3.308  17.883  0.00  0.00    +0.000 N 
ATOM     30  N   UNL     1       3.430   5.200  18.957  0.00  0.00    +0.000 NA
ATOM     31  H   UNL     1      -0.182   3.477  20.894  0.00  0.00    +0.000 HD
ATOM     32  H   UNL     1       0.500   2.071  20.174  0.00  0.00    +0.000 HD
ATOM     33  H   UNL     1       4.126   2.329  17.736  0.00  0.00    +0.000 HD
BRANCH  29  34
ATOM     34  C   UNL     1       5.190   3.910  16.963  0.00  0.00    +0.000 A 
ATOM     35  C   UNL     1       4.805   4.031  15.620  0.00  0.00    +0.000 A 
ATOM     36  C   UNL     1       5.690   4.554  14.671  0.00  0.00    +0.000 A 
ATOM     37  C   UNL     1       6.955   4.975  15.065  0.00  0.00    +0.000 A 
ATOM     38  F   UNL     1       7.805   5.462  14.152  0.00  0.00    +0.000 F 
ATOM     39  C   UNL     1       7.351   4.886  16.389  0.00  0.00    +0.000 A 
ATOM     40  C   UNL     1       6.471   4.352  17.331  0.00  0.00    +0.000 A 
ENDBRANCH  29  34
ENDBRANCH  22  23
ENDBRANCH   6  22
TORSDOF 5
ENDMDL
MODEL 8
REMARK VINA RESULT:      -8.7      2.613      3.894
REMARK  Name = 
REMARK  7 active torsions:
REMARK  status: ('A' for Active; 'I' for Inactive)
REMARK    1  A    between atoms: C_1  and  O_2
REMARK    2  A    between atoms: O_2  and  C_3
REMARK    3  A    between atoms: C_8  and  C_9
REMARK    4  A    between atoms: C_9  and  C_10
REMARK    5  A    between atoms: N_14  and  C_15
REMARK    6  A    between atoms: C_15  and  C_16
REMARK    7  A    between atoms: N_22  and  C_23
REMARK                            x       y       z     vdW  Elec       q    Type
REMARK                         _______ _______ _______ _____ _____    ______ ____
ROOT
ATOM      1  C   UNL     1       0.430   9.660  20.144  0.00  0.00    +0.000 C 
ATOM      2  C   UNL     1      -0.366   9.008  21.283  0.00  0.00    +0.000 C 
ATOM      3  N   UNL     1       1.041  10.873  20.656  0.00  0.00    +0.000 N 
ATOM      4  C   UNL     1       0.322  11.995  20.316  0.00  0.00    +0.000 C 
ATOM      5  O   UNL     1       0.520  13.098  20.795  0.00  0.00    +0.000 OA
ATOM      6  N   UNL     1      -0.602  11.649  19.387  0.00  0.00    +0.000 N 
ATOM      7  C   UNL     1      -0.572  10.301  19.153  0.00  0.00    +0.000 C 
ATOM      8  O   UNL     1      -1.276   9.702  18.349  0.00  0.00    +0.000 OA
ATOM      9  H   UNL     1       1.700  10.907  21.422  0.00  0.00    +0.000 HD
ENDROOT
BRANCH   1  15
ATOM     10  C   UNL     1       4.468   4.800  18.204  0.00  0.00    +0.000 A 
ATOM     11  C   UNL     1       3.908   4.476  19.438  0.00  0.00    +0.000 A 
ATOM     12  C   UNL     1       3.019   5.358  20.058  0.00  0.00    +0.000 A 
ATOM     13  C   UNL     1       2.670   6.578  19.458  0.00  0.00    +0.000 A 
ATOM     14  C   UNL     1       1.782   7.476  20.084  0.00  0.00    +0.000 A 
ATOM     15  C   UNL     1       1.415   8.698  19.491  0.00  0.00    +0.000 A 
ATOM     16  C   UNL     1       1.980   9.000  18.240  0.00  0.00    +0.000 A 
ATOM     17  C   UNL     1       2.863   8.118  17.605  0.00  0.00    +0.000 A 
ATOM     18  C   UNL     1       3.220   6.903  18.204  0.00  0.00    +0.000 A 
ATOM     19  C   UNL     1       4.112   6.005  17.590  0.00  0.00    +0.000 A 
BRANCH  10  21
ATOM     20  C   UNL     1       5.401   4.229  16.094  0.00  0.00    +0.000 C 
ATOM     21  O   UNL     1       5.361   4.035  17.504  0.00  0.00    +0.000 OA
ENDBRANCH  10  21
ENDBRANCH   1  15
BRANCH   6  22
ATOM     22  C   UNL     1      -1.520  12.576  18.765  0.00  0.00    +0.000 C 
BRANCH  22  23
ATOM     23  C   UNL     1      -2.976  12.347  19.117  0.00  0.00    +0.000 A 
ATOM     24  N   UNL     1      -3.746  11.623  18.308  0.00  0.00    +0.000 NA
ATOM     25  C   UNL     1      -5.033  11.607  18.623  0.00  0.00    +0.000 A 
ATOM     26  N   UNL     1      -5.875  10.911  17.777  0.00  0.00    +0.000 N 
ATOM     27  N   UNL     1      -5.585  12.251  19.643  0.00  0.00    +0.000 NA
ATOM     28  C   UNL     1      -4.740  12.909  20.423  0.00  0.00    +0.000 A 
ATOM     29  N   UNL     1      -5.271  13.583  21.525  0.00  0.00    +0.000 N 
ATOM     30  N   UNL     1      -3.434  13.000  20.182  0.00  0.00    +0.000 NA
ATOM     31  H   UNL     1      -5.443  10.825  16.866  0.00  0.00    +0.000 HD
ATOM     32  H   UNL     1      -6.802  11.311  17.803  0.00  0.00    +0.000 HD
ATOM     33  H   UNL     1      -6.274  13.477  21.570  0.00  0.00    +0.000 HD
BRANCH  29  34
ATOM     34  C   UNL     1      -4.630  13.890  22.734  0.00  0.00    +0.000 A 
ATOM     35  C   UNL     1      -4.186  15.199  22.971  0.00  0.00    +0.000 A 
ATOM     36  C   UNL     1      -3.473  15.509  24.134  0.00  0.00    +0.000 A 
ATOM     37  C   UNL     1      -3.219  14.515  25.073  0.00  0.00    +0.000 A 
ATOM     38  F   UNL     1      -2.524  14.812  26.178  0.00  0.00    +0.000 F 
ATOM     39  C   UNL     1      -3.665  13.220  24.873  0.00  0.00    +0.000 A 
ATOM     40  C   UNL     1      -4.365  12.911  23.706  0.00  0.00    +0.000 A 
ENDBRANCH  29  34
ENDBRANCH  22  23
ENDBRANCH   6  22
TORSDOF 5
ENDMDL
MODEL 9
REMARK VINA RESULT:      -8.6      2.827      4.183
REMARK  Name = 
REMARK  7 active torsions:
REMARK  status: ('A' for Active; 'I' for Inactive)
REMARK    1  A    between atoms: C_1  and  O_2
REMARK    2  A    between atoms: O_2  and  C_3
REMARK    3  A    between atoms: C_8  and  C_9
REMARK    4  A    between atoms: C_9  and  C_10
REMARK    5  A    between atoms: N_14  and  C_15
REMARK    6  A    between atoms: C_15  and  C_16
REMARK    7  A    between atoms: N_22  and  C_23
REMARK                            x       y       z     vdW  Elec       q    Type
REMARK                         _______ _______ _______ _____ _____    ______ ____
ROOT
ATOM      1  C   UNL     1       0.407   9.627  20.517  0.00  0.00    +0.000 C 
ATOM      2  C   UNL     1      -0.470   8.905  21.549  0.00  0.00    +0.000 C 
ATOM      3  N   UNL     1       1.093  10.715  21.190  0.00  0.00    +0.000 N 
ATOM      4  C   UNL     1       0.473  11.924  20.980  0.00  0.00    +0.000 C 
ATOM      5  O   UNL     1       0.740  12.940  21.598  0.00  0.00    +0.000 OA
ATOM      6  N   UNL     1      -0.448  11.771  19.997  0.00  0.00    +0.000 N 
ATOM      7  C   UNL     1      -0.513  10.464  19.596  0.00  0.00    +0.000 C 
ATOM      8  O   UNL     1      -1.237  10.027  18.709  0.00  0.00    +0.000 OA
ATOM      9  H   UNL     1       1.730  10.601  21.967  0.00  0.00    +0.000 HD
ENDROOT
BRANCH   1  15
ATOM     10  C   UNL     1       4.224   4.785  18.137  0.00  0.00    +0.000 A 
ATOM     11  C   UNL     1       3.721   4.412  19.382  0.00  0.00    +0.000 A 
ATOM     12  C   UNL     1       2.885   5.282  20.089  0.00  0.00    +0.000 A 
ATOM     13  C   UNL     1       2.535   6.536  19.568  0.00  0.00    +0.000 A 
ATOM     14  C   UNL     1       1.702   7.421  20.282  0.00  0.00    +0.000 A 
ATOM     15  C   UNL     1       1.334   8.678  19.769  0.00  0.00    +0.000 A 
ATOM     16  C   UNL     1       1.842   9.030  18.506  0.00  0.00    +0.000 A 
ATOM     17  C   UNL     1       2.670   8.162  17.784  0.00  0.00    +0.000 A 
ATOM     18  C   UNL     1       3.028   6.912  18.304  0.00  0.00    +0.000 A 
ATOM     19  C   UNL     1       3.867   6.027  17.601  0.00  0.00    +0.000 A 
BRANCH  10  21
ATOM     20  C   UNL     1       5.147   4.400  15.981  0.00  0.00    +0.000 C 
ATOM     21  O   UNL     1       5.063   4.037  17.356  0.00  0.00    +0.000 OA
ENDBRANCH  10  21
ENDBRANCH   1  15
BRANCH   6  22
ATOM     22  C   UNL     1      -1.272  12.837  19.478  0.00  0.00    +0.000 C 
BRANCH  22  23
ATOM     23  C   UNL     1      -2.665  12.897  20.072  0.00  0.00    +0.000 A 
ATOM     24  N   UNL     1      -3.644  12.170  19.537  0.00  0.00    +0.000 NA
ATOM     25  C   UNL     1      -4.851  12.404  20.029  0.00  0.00    +0.000 A 
ATOM     26  N   UNL     1      -5.903  11.708  19.464  0.00  0.00    +0.000 N 
ATOM     27  N   UNL     1      -5.141  13.291  20.972  0.00  0.00    +0.000 NA
ATOM     28  C   UNL     1      -4.102  13.938  21.481  0.00  0.00    +0.000 A 
ATOM     29  N   UNL     1      -4.354  14.864  22.495  0.00  0.00    +0.000 N 
ATOM     30  N   UNL     1      -2.854  13.786  21.043  0.00  0.00    +0.000 NA
ATOM     31  H   UNL     1      -5.645  11.402  18.535  0.00  0.00    +0.000 HD
ATOM     32  H   UNL     1      -6.756  12.244  19.543  0.00  0.00    +0.000 HD
ATOM     33  H   UNL     1      -5.339  14.922  22.702  0.00  0.00    +0.000 HD
BRANCH  29  34
ATOM     34  C   UNL     1      -3.485  15.275  23.518  0.00  0.00    +0.000 A 
ATOM     35  C   UNL     1      -3.313  14.463  24.648  0.00  0.00    +0.000 A 
ATOM     36  C   UNL     1      -2.514  14.890  25.715  0.00  0.00    +0.000 A 
ATOM     37  C   UNL     1      -1.871  16.121  25.646  0.00  0.00    +0.000 A 
ATOM     38  F   UNL     1      -1.119  16.533  26.675  0.00  0.00    +0.000 F 
ATOM     39  C   UNL     1      -2.008  16.931  24.531  0.00  0.00    +0.000 A 
ATOM     40  C   UNL     1      -2.815  16.509  23.475  0.00  0.00    +0.000 A 
ENDBRANCH  29  34
ENDBRANCH  22  23
ENDBRANCH   6  22
TORSDOF 5
ENDMDL
