MODEL 1
REMARK VINA RESULT:      -7.8      0.000      0.000
REMARK  Name = 
REMARK  9 active torsions:
REMARK  status: ('A' for Active; 'I' for Inactive)
REMARK    1  A    between atoms: C_1  and  C_2
REMARK    2  A    between atoms: C_2  and  C_3
REMARK    3  A    between atoms: C_2  and  N_6
REMARK    4  A    between atoms: N_6  and  C_7
REMARK    5  A    between atoms: C_7  and  C_8
REMARK    6  A    between atoms: C_19  and  C_21
REMARK    7  A    between atoms: C_21  and  N_22
REMARK    8  A    between atoms: C_25  and  C_26
REMARK    9  A    between atoms: C_26  and  C_28
REMARK                            x       y       z     vdW  Elec       q    Type
REMARK                         _______ _______ _______ _____ _____    ______ ____
ROOT
ATOM      1  N   UNL     1       0.226   9.987  19.214  0.00  0.00    +0.000 N 
ATOM      2  C   UNL     1       1.355   9.288  18.759  0.00  0.00    +0.000 C 
ATOM      3  O   UNL     1       1.782   9.472  17.613  0.00  0.00    +0.000 OA
ENDROOT
BRANCH   1   5
ATOM      4  C   UNL     1      -0.631  12.112  18.156  0.00  0.00    +0.000 C 
ATOM      5  C   UNL     1      -0.663  10.571  18.181  0.00  0.00    +0.000 C 
BRANCH   5   6
ATOM      6  C   UNL     1      -2.095  10.099  18.292  0.00  0.00    +0.000 C 
ATOM      7  C   UNL     1      -2.962   9.681  17.127  0.00  0.00    +0.000 C 
ATOM      8  C   UNL     1      -3.190  11.010  17.792  0.00  0.00    +0.000 C 
ENDBRANCH   5   6
ENDBRANCH   1   5
BRANCH   1   9
ATOM      9  C   UNL     1      -0.333   9.841  20.573  0.00  0.00    +0.000 C 
BRANCH   9  10
ATOM     10  C   UNL     1      -0.433  11.154  21.364  0.00  0.00    +0.000 A 
ATOM     11  N   UNL     1       0.521  12.031  21.285  0.00  0.00    +0.000 NA
ATOM     12  C   UNL     1       0.349  13.219  21.946  0.00  0.00    +0.000 A 
ATOM     13  C   UNL     1      -0.701  13.509  22.731  0.00  0.00    +0.000 A 
ATOM     14  C   UNL     1      -1.712  12.457  22.918  0.00  0.00    +0.000 A 
ATOM     15  O   UNL     1      -2.647  12.574  23.702  0.00  0.00    +0.000 OA
ATOM     16  N   UNL     1      -1.543  11.341  22.146  0.00  0.00    +0.000 N 
ATOM     17  C   UNL     1      -0.936  14.854  23.343  0.00  0.00    +0.000 C 
ATOM     18  O   UNL     1       0.159  15.767  23.139  0.00  0.00    +0.000 OA
ATOM     19  C   UNL     1       0.706  15.669  21.821  0.00  0.00    +0.000 C 
ATOM     20  C   UNL     1       1.357  14.300  21.650  0.00  0.00    +0.000 C 
ATOM     21  H   UNL     1      -2.240  10.620  22.241  0.00  0.00    +0.000 HD
ENDBRANCH   9  10
ENDBRANCH   1   9
BRANCH   2  22
ATOM     22  C   UNL     1       2.100   8.294  19.678  0.00  0.00    +0.000 C 
BRANCH  22  23
ATOM     23  N   UNL     1       1.944   6.859  19.309  0.00  0.00    +0.000 NA
ATOM     24  C   UNL     1       2.549   6.556  18.014  0.00  0.00    +0.000 C 
ATOM     25  C   UNL     1       2.304   5.100  17.605  0.00  0.00    +0.000 C 
ATOM     26  C   UNL     1       2.830   4.122  18.656  0.00  0.00    +0.000 C 
ATOM     27  C   UNL     1       2.193   4.470  20.009  0.00  0.00    +0.000 C 
ATOM     28  C   UNL     1       2.369   5.948  20.380  0.00  0.00    +0.000 C 
BRANCH  26  29
ATOM     29  C   UNL     1       4.364   4.127  18.725  0.00  0.00    +0.000 C 
ATOM     30  O   UNL     1       4.988   3.890  19.758  0.00  0.00    +0.000 OA
BRANCH  29  31
ATOM     31  C   UNL     1       5.165   4.424  17.505  0.00  0.00    +0.000 A 
ATOM     32  C   UNL     1       6.135   5.438  17.580  0.00  0.00    +0.000 A 
ATOM     33  C   UNL     1       6.962   5.704  16.490  0.00  0.00    +0.000 A 
ATOM     34  C   UNL     1       6.823   4.952  15.330  0.00  0.00    +0.000 A 
ATOM     35  F   UNL     1       7.632   5.186  14.289  0.00  0.00    +0.000 F 
ATOM     36  C   UNL     1       5.864   3.947  15.238  0.00  0.00    +0.000 A 
ATOM     37  C   UNL     1       5.028   3.681  16.327  0.00  0.00    +0.000 A 
ENDBRANCH  29  31
ENDBRANCH  26  29
ENDBRANCH  22  23
ENDBRANCH   2  22
TORSDOF 8
ENDMDL
MODEL 2
REMARK VINA RESULT:      -7.8      0.913      1.789
REMARK  Name = 
REMARK  9 active torsions:
REMARK  status: ('A' for Active; 'I' for Inactive)
REMARK    1  A    between atoms: C_1  and  C_2
REMARK    2  A    between atoms: C_2  and  C_3
REMARK    3  A    between atoms: C_2  and  N_6
REMARK    4  A    between atoms: N_6  and  C_7
REMARK    5  A    between atoms: C_7  and  C_8
REMARK    6  A    between atoms: C_19  and  C_21
REMARK    7  A    between atoms: C_21  and  N_22
REMARK    8  A    between atoms: C_25  and  C_26
REMARK    9  A    between atoms: C_26  and  C_28
REMARK                            x       y       z     vdW  Elec       q    Type
REMARK                         _______ _______ _______ _____ _____    ______ ____
ROOT
ATOM      1  N   UNL     1       0.259   9.988  19.110  0.00  0.00    +0.000 N 
ATOM      2  C   UNL     1       1.365   9.273  18.626  0.00  0.00    +0.000 C 
ATOM      3  O   UNL     1       1.773   9.461  17.474  0.00  0.00    +0.000 OA
ENDROOT
BRANCH   1   5
ATOM      4  C   UNL     1      -0.663  12.140  18.167  0.00  0.00    +0.000 C 
ATOM      5  C   UNL     1      -0.638  10.600  18.100  0.00  0.00    +0.000 C 
BRANCH   5   6
ATOM      6  C   UNL     1      -2.053  10.072  18.162  0.00  0.00    +0.000 C 
ATOM      7  C   UNL     1      -2.936   9.816  16.963  0.00  0.00    +0.000 C 
ATOM      8  C   UNL     1      -3.185  11.015  17.835  0.00  0.00    +0.000 C 
ENDBRANCH   5   6
ENDBRANCH   1   5
BRANCH   1   9
ATOM      9  C   UNL     1      -0.276   9.839  20.477  0.00  0.00    +0.000 C 
BRANCH   9  10
ATOM     10  C   UNL     1      -0.581  11.165  21.190  0.00  0.00    +0.000 A 
ATOM     11  N   UNL     1      -1.794  11.435  21.564  0.00  0.00    +0.000 NA
ATOM     12  C   UNL     1      -2.000  12.594  22.265  0.00  0.00    +0.000 A 
ATOM     13  C   UNL     1      -1.051  13.507  22.525  0.00  0.00    +0.000 A 
ATOM     14  C   UNL     1       0.293  13.254  21.982  0.00  0.00    +0.000 A 
ATOM     15  O   UNL     1       1.201  14.073  22.061  0.00  0.00    +0.000 OA
ATOM     16  N   UNL     1       0.462  12.031  21.392  0.00  0.00    +0.000 N 
ATOM     17  C   UNL     1      -1.262  14.703  23.398  0.00  0.00    +0.000 C 
ATOM     18  O   UNL     1      -2.634  14.869  23.807  0.00  0.00    +0.000 OA
ATOM     19  C   UNL     1      -3.251  13.623  24.142  0.00  0.00    +0.000 C 
ATOM     20  C   UNL     1      -3.364  12.767  22.884  0.00  0.00    +0.000 C 
ATOM     21  H   UNL     1       1.383  11.829  21.037  0.00  0.00    +0.000 HD
ENDBRANCH   9  10
ENDBRANCH   1   9
BRANCH   2  22
ATOM     22  C   UNL     1       2.107   8.254  19.520  0.00  0.00    +0.000 C 
BRANCH  22  23
ATOM     23  N   UNL     1       1.721   6.832  19.307  0.00  0.00    +0.000 NA
ATOM     24  C   UNL     1       2.347   6.265  18.114  0.00  0.00    +0.000 C 
ATOM     25  C   UNL     1       1.873   4.832  17.855  0.00  0.00    +0.000 C 
ATOM     26  C   UNL     1       2.143   3.922  19.054  0.00  0.00    +0.000 C 
ATOM     27  C   UNL     1       1.490   4.545  20.296  0.00  0.00    +0.000 C 
ATOM     28  C   UNL     1       1.903   6.007  20.508  0.00  0.00    +0.000 C 
BRANCH  26  29
ATOM     29  C   UNL     1       3.645   3.676  19.258  0.00  0.00    +0.000 C 
ATOM     30  O   UNL     1       4.106   3.161  20.275  0.00  0.00    +0.000 OA
BRANCH  29  31
ATOM     31  C   UNL     1       4.615   4.060  18.195  0.00  0.00    +0.000 A 
ATOM     32  C   UNL     1       5.654   4.943  18.537  0.00  0.00    +0.000 A 
ATOM     33  C   UNL     1       6.632   5.275  17.599  0.00  0.00    +0.000 A 
ATOM     34  C   UNL     1       6.572   4.720  16.327  0.00  0.00    +0.000 A 
ATOM     35  F   UNL     1       7.523   5.016  15.432  0.00  0.00    +0.000 F 
ATOM     36  C   UNL     1       5.548   3.848  15.973  0.00  0.00    +0.000 A 
ATOM     37  C   UNL     1       4.562   3.516  16.907  0.00  0.00    +0.000 A 
ENDBRANCH  29  31
ENDBRANCH  26  29
ENDBRANCH  22  23
ENDBRANCH   2  22
TORSDOF 8
ENDMDL
MODEL 3
REMARK VINA RESULT:      -7.7      0.919      1.940
REMARK  Name = 
REMARK  9 active torsions:
REMARK  status: ('A' for Active; 'I' for Inactive)
REMARK    1  A    between atoms: C_1  and  C_2
REMARK    2  A    between atoms: C_2  and  C_3
REMARK    3  A    between atoms: C_2  and  N_6
REMARK    4  A    between atoms: N_6  and  C_7
REMARK    5  A    between atoms: C_7  and  C_8
REMARK    6  A    between atoms: C_19  and  C_21
REMARK    7  A    between atoms: C_21  and  N_22
REMARK    8  A    between atoms: C_25  and  C_26
REMARK    9  A    between atoms: C_26  and  C_28
REMARK                            x       y       z     vdW  Elec       q    Type
REMARK                         _______ _______ _______ _____ _____    ______ ____
ROOT
ATOM      1  N   UNL     1      -0.039  10.378  19.267  0.00  0.00    +0.000 N 
ATOM      2  C   UNL     1       1.136   9.704  18.899  0.00  0.00    +0.000 C 
ATOM      3  O   UNL     1       1.650   9.906  17.793  0.00  0.00    +0.000 OA
ENDROOT
BRANCH   1   5
ATOM      4  C   UNL     1      -0.948  12.491  18.227  0.00  0.00    +0.000 C 
ATOM      5  C   UNL     1      -0.853  10.953  18.168  0.00  0.00    +0.000 C 
BRANCH   5   6
ATOM      6  C   UNL     1      -2.243  10.366  18.087  0.00  0.00    +0.000 C 
ATOM      7  C   UNL     1      -2.867   9.786  16.839  0.00  0.00    +0.000 C 
ATOM      8  C   UNL     1      -3.303  11.136  17.336  0.00  0.00    +0.000 C 
ENDBRANCH   5   6
ENDBRANCH   1   5
BRANCH   1   9
ATOM      9  C   UNL     1      -0.703  10.210  20.574  0.00  0.00    +0.000 C 
BRANCH   9  10
ATOM     10  C   UNL     1      -0.909  11.518  21.354  0.00  0.00    +0.000 A 
ATOM     11  N   UNL     1      -2.085  11.818  21.813  0.00  0.00    +0.000 NA
ATOM     12  C   UNL     1      -2.202  12.954  22.570  0.00  0.00    +0.000 A 
ATOM     13  C   UNL     1      -1.202  13.819  22.805  0.00  0.00    +0.000 A 
ATOM     14  C   UNL     1       0.094  13.537  22.170  0.00  0.00    +0.000 A 
ATOM     15  O   UNL     1       1.038  14.317  22.224  0.00  0.00    +0.000 OA
ATOM     16  N   UNL     1       0.178  12.334  21.524  0.00  0.00    +0.000 N 
ATOM     17  C   UNL     1      -1.312  14.986  23.735  0.00  0.00    +0.000 C 
ATOM     18  O   UNL     1      -2.649  15.188  24.234  0.00  0.00    +0.000 OA
ATOM     19  C   UNL     1      -3.295  13.953  24.558  0.00  0.00    +0.000 C 
ATOM     20  C   UNL     1      -3.518  13.154  23.278  0.00  0.00    +0.000 C 
ATOM     21  H   UNL     1       1.067  12.112  21.105  0.00  0.00    +0.000 HD
ENDBRANCH   9  10
ENDBRANCH   1   9
BRANCH   2  22
ATOM     22  C   UNL     1       1.823   8.717  19.869  0.00  0.00    +0.000 C 
BRANCH  22  23
ATOM     23  N   UNL     1       1.764   7.287  19.457  0.00  0.00    +0.000 NA
ATOM     24  C   UNL     1       2.472   7.047  18.201  0.00  0.00    +0.000 C 
ATOM     25  C   UNL     1       2.328   5.593  17.742  0.00  0.00    +0.000 C 
ATOM     26  C   UNL     1       2.826   4.612  18.805  0.00  0.00    +0.000 C 
ATOM     27  C   UNL     1       2.079   4.893  20.115  0.00  0.00    +0.000 C 
ATOM     28  C   UNL     1       2.156   6.368  20.533  0.00  0.00    +0.000 C 
BRANCH  26  29
ATOM     29  C   UNL     1       4.349   4.688  18.983  0.00  0.00    +0.000 C 
ATOM     30  O   UNL     1       4.894   4.688  20.085  0.00  0.00    +0.000 OA
BRANCH  29  31
ATOM     31  C   UNL     1       5.238   4.759  17.790  0.00  0.00    +0.000 A 
ATOM     32  C   UNL     1       5.017   3.846  16.745  0.00  0.00    +0.000 A 
ATOM     33  C   UNL     1       5.771   3.919  15.574  0.00  0.00    +0.000 A 
ATOM     34  C   UNL     1       6.738   4.909  15.448  0.00  0.00    +0.000 A 
ATOM     35  F   UNL     1       7.447   4.999  14.316  0.00  0.00    +0.000 F 
ATOM     36  C   UNL     1       6.972   5.818  16.475  0.00  0.00    +0.000 A 
ATOM     37  C   UNL     1       6.222   5.745  17.653  0.00  0.00    +0.000 A 
ENDBRANCH  29  31
ENDBRANCH  26  29
ENDBRANCH  22  23
ENDBRANCH   2  22
TORSDOF 8
ENDMDL
MODEL 4
REMARK VINA RESULT:      -7.6      3.513     10.287
REMARK  Name = 
REMARK  9 active torsions:
REMARK  status: ('A' for Active; 'I' for Inactive)
REMARK    1  A    between atoms: C_1  and  C_2
REMARK    2  A    between atoms: C_2  and  C_3
REMARK    3  A    between atoms: C_2  and  N_6
REMARK    4  A    between atoms: N_6  and  C_7
REMARK    5  A    between atoms: C_7  and  C_8
REMARK    6  A    between atoms: C_19  and  C_21
REMARK    7  A    between atoms: C_21  and  N_22
REMARK    8  A    between atoms: C_25  and  C_26
REMARK    9  A    between atoms: C_26  and  C_28
REMARK                            x       y       z     vdW  Elec       q    Type
REMARK                         _______ _______ _______ _____ _____    ______ ____
ROOT
ATOM      1  N   UNL     1       1.921   6.437  19.740  0.00  0.00    +0.000 N 
ATOM      2  C   UNL     1       1.515   7.572  20.458  0.00  0.00    +0.000 C 
ATOM      3  O   UNL     1       1.173   7.472  21.642  0.00  0.00    +0.000 OA
ENDROOT
BRANCH   1   5
ATOM      4  C   UNL     1       2.480   4.566  21.340  0.00  0.00    +0.000 C 
ATOM      5  C   UNL     1       1.507   5.119  20.279  0.00  0.00    +0.000 C 
BRANCH   5   6
ATOM      6  C   UNL     1       1.290   4.078  19.205  0.00  0.00    +0.000 C 
ATOM      7  C   UNL     1       0.588   2.756  19.409  0.00  0.00    +0.000 C 
ATOM      8  C   UNL     1       2.085   2.797  19.278  0.00  0.00    +0.000 C 
ENDBRANCH   5   6
ENDBRANCH   1   5
BRANCH   1   9
ATOM      9  C   UNL     1       2.364   6.475  18.333  0.00  0.00    +0.000 C 
BRANCH   9  10
ATOM     10  C   UNL     1       3.763   5.889  18.090  0.00  0.00    +0.000 A 
ATOM     11  N   UNL     1       4.058   5.378  16.934  0.00  0.00    +0.000 NA
ATOM     12  C   UNL     1       5.342   4.940  16.741  0.00  0.00    +0.000 A 
ATOM     13  C   UNL     1       6.294   4.931  17.688  0.00  0.00    +0.000 A 
ATOM     14  C   UNL     1       5.911   5.390  19.032  0.00  0.00    +0.000 A 
ATOM     15  O   UNL     1       6.666   5.315  19.994  0.00  0.00    +0.000 OA
ATOM     16  N   UNL     1       4.653   5.919  19.131  0.00  0.00    +0.000 N 
ATOM     17  C   UNL     1       7.723   4.569  17.429  0.00  0.00    +0.000 C 
ATOM     18  O   UNL     1       7.947   4.073  16.095  0.00  0.00    +0.000 OA
ATOM     19  C   UNL     1       7.209   4.809  15.115  0.00  0.00    +0.000 C 
ATOM     20  C   UNL     1       5.717   4.569  15.329  0.00  0.00    +0.000 C 
ATOM     21  H   UNL     1       4.382   6.263  20.038  0.00  0.00    +0.000 HD
ENDBRANCH   9  10
ENDBRANCH   1   9
BRANCH   2  22
ATOM     22  C   UNL     1       1.503   8.969  19.798  0.00  0.00    +0.000 C 
BRANCH  22  23
ATOM     23  N   UNL     1       0.213   9.706  19.908  0.00  0.00    +0.000 NA
ATOM     24  C   UNL     1       0.287  10.805  20.868  0.00  0.00    +0.000 C 
ATOM     25  C   UNL     1      -1.069  11.497  21.039  0.00  0.00    +0.000 C 
ATOM     26  C   UNL     1      -1.609  12.019  19.706  0.00  0.00    +0.000 C 
ATOM     27  C   UNL     1      -1.663  10.851  18.712  0.00  0.00    +0.000 C 
ATOM     28  C   UNL     1      -0.326  10.108  18.601  0.00  0.00    +0.000 C 
BRANCH  26  29
ATOM     29  C   UNL     1      -0.774  13.191  19.171  0.00  0.00    +0.000 C 
ATOM     30  O   UNL     1      -0.369  13.249  18.012  0.00  0.00    +0.000 OA
BRANCH  29  31
ATOM     31  C   UNL     1      -0.425  14.328  20.068  0.00  0.00    +0.000 A 
ATOM     32  C   UNL     1      -1.471  15.126  20.562  0.00  0.00    +0.000 A 
ATOM     33  C   UNL     1      -1.206  16.156  21.464  0.00  0.00    +0.000 A 
ATOM     34  C   UNL     1       0.102  16.381  21.875  0.00  0.00    +0.000 A 
ATOM     35  F   UNL     1       0.359  17.353  22.760  0.00  0.00    +0.000 F 
ATOM     36  C   UNL     1       1.150  15.603  21.391  0.00  0.00    +0.000 A 
ATOM     37  C   UNL     1       0.889  14.574  20.482  0.00  0.00    +0.000 A 
ENDBRANCH  29  31
ENDBRANCH  26  29
ENDBRANCH  22  23
ENDBRANCH   2  22
TORSDOF 8
ENDMDL
MODEL 5
REMARK VINA RESULT:      -7.6      3.371     10.201
REMARK  Name = 
REMARK  9 active torsions:
REMARK  status: ('A' for Active; 'I' for Inactive)
REMARK    1  A    between atoms: C_1  and  C_2
REMARK    2  A    between atoms: C_2  and  C_3
REMARK    3  A    between atoms: C_2  and  N_6
REMARK    4  A    between atoms: N_6  and  C_7
REMARK    5  A    between atoms: C_7  and  C_8
REMARK    6  A    between atoms: C_19  and  C_21
REMARK    7  A    between atoms: C_21  and  N_22
REMARK    8  A    between atoms: C_25  and  C_26
REMARK    9  A    between atoms: C_26  and  C_28
REMARK                            x       y       z     vdW  Elec       q    Type
REMARK                         _______ _______ _______ _____ _____    ______ ____
ROOT
ATOM      1  N   UNL     1       1.937   6.310  19.832  0.00  0.00    +0.000 N 
ATOM      2  C   UNL     1       1.529   7.431  20.571  0.00  0.00    +0.000 C 
ATOM      3  O   UNL     1       1.212   7.313  21.760  0.00  0.00    +0.000 OA
ENDROOT
BRANCH   1   5
ATOM      4  C   UNL     1       2.494   4.475  21.474  0.00  0.00    +0.000 C 
ATOM      5  C   UNL     1       1.551   4.980  20.364  0.00  0.00    +0.000 C 
BRANCH   5   6
ATOM      6  C   UNL     1       1.426   3.923  19.291  0.00  0.00    +0.000 C 
ATOM      7  C   UNL     1       0.283   2.943  19.169  0.00  0.00    +0.000 C 
ATOM      8  C   UNL     1       1.616   2.478  19.683  0.00  0.00    +0.000 C 
ENDBRANCH   5   6
ENDBRANCH   1   5
BRANCH   1   9
ATOM      9  C   UNL     1       2.352   6.370  18.417  0.00  0.00    +0.000 C 
BRANCH   9  10
ATOM     10  C   UNL     1       3.757   5.814  18.142  0.00  0.00    +0.000 A 
ATOM     11  N   UNL     1       4.024   5.268  16.996  0.00  0.00    +0.000 NA
ATOM     12  C   UNL     1       5.313   4.859  16.771  0.00  0.00    +0.000 A 
ATOM     13  C   UNL     1       6.300   4.915  17.679  0.00  0.00    +0.000 A 
ATOM     14  C   UNL     1       5.954   5.415  19.019  0.00  0.00    +0.000 A 
ATOM     15  O   UNL     1       6.747   5.400  19.953  0.00  0.00    +0.000 OA
ATOM     16  N   UNL     1       4.686   5.911  19.146  0.00  0.00    +0.000 N 
ATOM     17  C   UNL     1       7.728   4.585  17.379  0.00  0.00    +0.000 C 
ATOM     18  O   UNL     1       7.917   4.044  16.057  0.00  0.00    +0.000 OA
ATOM     19  C   UNL     1       7.120   4.719  15.079  0.00  0.00    +0.000 C 
ATOM     20  C   UNL     1       5.645   4.445  15.360  0.00  0.00    +0.000 C 
ATOM     21  H   UNL     1       4.439   6.283  20.050  0.00  0.00    +0.000 HD
ENDBRANCH   9  10
ENDBRANCH   1   9
BRANCH   2  22
ATOM     22  C   UNL     1       1.486   8.835  19.927  0.00  0.00    +0.000 C 
BRANCH  22  23
ATOM     23  N   UNL     1       0.374   9.708  20.396  0.00  0.00    +0.000 NA
ATOM     24  C   UNL     1       0.656  10.308  21.698  0.00  0.00    +0.000 C 
ATOM     25  C   UNL     1      -0.531  11.129  22.210  0.00  0.00    +0.000 C 
ATOM     26  C   UNL     1      -0.929  12.224  21.219  0.00  0.00    +0.000 C 
ATOM     27  C   UNL     1      -1.206  11.573  19.857  0.00  0.00    +0.000 C 
ATOM     28  C   UNL     1      -0.048  10.684  19.383  0.00  0.00    +0.000 C 
BRANCH  26  29
ATOM     29  C   UNL     1       0.138  13.324  21.123  0.00  0.00    +0.000 C 
ATOM     30  O   UNL     1       1.175  13.309  21.783  0.00  0.00    +0.000 OA
BRANCH  29  31
ATOM     31  C   UNL     1      -0.056  14.473  20.195  0.00  0.00    +0.000 A 
ATOM     32  C   UNL     1      -1.179  15.296  20.388  0.00  0.00    +0.000 A 
ATOM     33  C   UNL     1      -1.367  16.429  19.595  0.00  0.00    +0.000 A 
ATOM     34  C   UNL     1      -0.430  16.738  18.618  0.00  0.00    +0.000 A 
ATOM     35  F   UNL     1      -0.592  17.838  17.871  0.00  0.00    +0.000 F 
ATOM     36  C   UNL     1       0.685  15.931  18.411  0.00  0.00    +0.000 A 
ATOM     37  C   UNL     1       0.874  14.792  19.199  0.00  0.00    +0.000 A 
ENDBRANCH  29  31
ENDBRANCH  26  29
ENDBRANCH  22  23
ENDBRANCH   2  22
TORSDOF 8
ENDMDL
MODEL 6
REMARK VINA RESULT:      -7.5      2.569      3.867
REMARK  Name = 
REMARK  9 active torsions:
REMARK  status: ('A' for Active; 'I' for Inactive)
REMARK    1  A    between atoms: C_1  and  C_2
REMARK    2  A    between atoms: C_2  and  C_3
REMARK    3  A    between atoms: C_2  and  N_6
REMARK    4  A    between atoms: N_6  and  C_7
REMARK    5  A    between atoms: C_7  and  C_8
REMARK    6  A    between atoms: C_19  and  C_21
REMARK    7  A    between atoms: C_21  and  N_22
REMARK    8  A    between atoms: C_25  and  C_26
REMARK    9  A    between atoms: C_26  and  C_28
REMARK                            x       y       z     vdW  Elec       q    Type
REMARK                         _______ _______ _______ _____ _____    ______ ____
ROOT
ATOM      1  N   UNL     1       0.016  11.457  19.985  0.00  0.00    +0.000 N 
ATOM      2  C   UNL     1       0.096  10.264  19.251  0.00  0.00    +0.000 C 
ATOM      3  O   UNL     1      -0.930   9.738  18.803  0.00  0.00    +0.000 OA
ENDROOT
BRANCH   1   5
ATOM      4  C   UNL     1      -2.067  12.865  19.763  0.00  0.00    +0.000 C 
ATOM      5  C   UNL     1      -1.304  11.797  20.571  0.00  0.00    +0.000 C 
BRANCH   5   6
ATOM      6  C   UNL     1      -1.220  12.225  22.018  0.00  0.00    +0.000 C 
ATOM      7  C   UNL     1      -1.484  11.327  23.204  0.00  0.00    +0.000 C 
ATOM      8  C   UNL     1      -2.504  12.355  22.801  0.00  0.00    +0.000 C 
ENDBRANCH   5   6
ENDBRANCH   1   5
BRANCH   1   9
ATOM      9  C   UNL     1       1.192  12.159  20.534  0.00  0.00    +0.000 C 
BRANCH   9  10
ATOM     10  C   UNL     1       1.670  13.352  19.693  0.00  0.00    +0.000 A 
ATOM     11  N   UNL     1       0.848  14.316  19.412  0.00  0.00    +0.000 NA
ATOM     12  C   UNL     1       1.343  15.395  18.727  0.00  0.00    +0.000 A 
ATOM     13  C   UNL     1       2.598  15.491  18.260  0.00  0.00    +0.000 A 
ATOM     14  C   UNL     1       3.484  14.335  18.470  0.00  0.00    +0.000 A 
ATOM     15  O   UNL     1       4.609  14.270  17.987  0.00  0.00    +0.000 OA
ATOM     16  N   UNL     1       2.970  13.341  19.256  0.00  0.00    +0.000 N 
ATOM     17  C   UNL     1       3.160  16.724  17.626  0.00  0.00    +0.000 C 
ATOM     18  O   UNL     1       2.171  17.753  17.419  0.00  0.00    +0.000 OA
ATOM     19  C   UNL     1       1.269  17.864  18.524  0.00  0.00    +0.000 C 
ATOM     20  C   UNL     1       0.433  16.592  18.618  0.00  0.00    +0.000 C 
ATOM     21  H   UNL     1       3.572  12.553  19.433  0.00  0.00    +0.000 HD
ENDBRANCH   9  10
ENDBRANCH   1   9
BRANCH   2  22
ATOM     22  C   UNL     1       1.459   9.593  18.967  0.00  0.00    +0.000 C 
BRANCH  22  23
ATOM     23  N   UNL     1       1.448   8.104  19.009  0.00  0.00    +0.000 NA
ATOM     24  C   UNL     1       1.954   7.516  17.772  0.00  0.00    +0.000 C 
ATOM     25  C   UNL     1       1.854   5.987  17.792  0.00  0.00    +0.000 C 
ATOM     26  C   UNL     1       2.601   5.388  18.986  0.00  0.00    +0.000 C 
ATOM     27  C   UNL     1       2.062   6.032  20.270  0.00  0.00    +0.000 C 
ATOM     28  C   UNL     1       2.088   7.565  20.217  0.00  0.00    +0.000 C 
BRANCH  26  29
ATOM     29  C   UNL     1       4.121   5.556  18.852  0.00  0.00    +0.000 C 
ATOM     30  O   UNL     1       4.843   5.878  19.793  0.00  0.00    +0.000 OA
BRANCH  29  31
ATOM     31  C   UNL     1       4.785   5.322  17.539  0.00  0.00    +0.000 A 
ATOM     32  C   UNL     1       4.862   4.003  17.063  0.00  0.00    +0.000 A 
ATOM     33  C   UNL     1       5.405   3.738  15.806  0.00  0.00    +0.000 A 
ATOM     34  C   UNL     1       5.863   4.793  15.027  0.00  0.00    +0.000 A 
ATOM     35  F   UNL     1       6.363   4.546  13.809  0.00  0.00    +0.000 F 
ATOM     36  C   UNL     1       5.798   6.105  15.486  0.00  0.00    +0.000 A 
ATOM     37  C   UNL     1       5.260   6.374  16.748  0.00  0.00    +0.000 A 
ENDBRANCH  29  31
ENDBRANCH  26  29
ENDBRANCH  22  23
ENDBRANCH   2  22
TORSDOF 8
ENDMDL
MODEL 7
REMARK VINA RESULT:      -7.3      3.570     10.120
REMARK  Name = 
REMARK  9 active torsions:
REMARK  status: ('A' for Active; 'I' for Inactive)
REMARK    1  A    between atoms: C_1  and  C_2
REMARK    2  A    between atoms: C_2  and  C_3
REMARK    3  A    between atoms: C_2  and  N_6
REMARK    4  A    between atoms: N_6  and  C_7
REMARK    5  A    between atoms: C_7  and  C_8
REMARK    6  A    between atoms: C_19  and  C_21
REMARK    7  A    between atoms: C_21  and  N_22
REMARK    8  A    between atoms: C_25  and  C_26
REMARK    9  A    between atoms: C_26  and  C_28
REMARK                            x       y       z     vdW  Elec       q    Type
REMARK                         _______ _______ _______ _____ _____    ______ ____
ROOT
ATOM      1  N   UNL     1       2.169   6.312  19.567  0.00  0.00    +0.000 N 
ATOM      2  C   UNL     1       1.914   7.564  20.148  0.00  0.00    +0.000 C 
ATOM      3  O   UNL     1       1.929   7.696  21.377  0.00  0.00    +0.000 OA
ENDROOT
BRANCH   1   5
ATOM      4  C   UNL     1       3.344   4.449  20.800  0.00  0.00    +0.000 C 
ATOM      5  C   UNL     1       2.005   5.123  20.439  0.00  0.00    +0.000 C 
BRANCH   5   6
ATOM      6  C   UNL     1       1.061   4.091  19.867  0.00  0.00    +0.000 C 
ATOM      7  C   UNL     1       0.673   2.800  20.549  0.00  0.00    +0.000 C 
ATOM      8  C   UNL     1       1.636   2.777  19.396  0.00  0.00    +0.000 C 
ENDBRANCH   5   6
ENDBRANCH   1   5
BRANCH   1   9
ATOM      9  C   UNL     1       2.191   6.075  18.111  0.00  0.00    +0.000 C 
BRANCH   9  10
ATOM     10  C   UNL     1       3.597   5.921  17.513  0.00  0.00    +0.000 A 
ATOM     11  N   UNL     1       3.914   4.836  16.876  0.00  0.00    +0.000 NA
ATOM     12  C   UNL     1       5.153   4.779  16.293  0.00  0.00    +0.000 A 
ATOM     13  C   UNL     1       6.090   5.734  16.400  0.00  0.00    +0.000 A 
ATOM     14  C   UNL     1       5.768   6.902  17.234  0.00  0.00    +0.000 A 
ATOM     15  O   UNL     1       6.589   7.774  17.492  0.00  0.00    +0.000 OA
ATOM     16  N   UNL     1       4.481   6.954  17.693  0.00  0.00    +0.000 N 
ATOM     17  C   UNL     1       7.388   5.715  15.655  0.00  0.00    +0.000 C 
ATOM     18  O   UNL     1       7.606   4.488  14.932  0.00  0.00    +0.000 OA
ATOM     19  C   UNL     1       6.413   4.016  14.299  0.00  0.00    +0.000 C 
ATOM     20  C   UNL     1       5.405   3.613  15.371  0.00  0.00    +0.000 C 
ATOM     21  H   UNL     1       4.234   7.760  18.245  0.00  0.00    +0.000 HD
ENDBRANCH   9  10
ENDBRANCH   1   9
BRANCH   2  22
ATOM     22  C   UNL     1       1.630   8.804  19.271  0.00  0.00    +0.000 C 
BRANCH  22  23
ATOM     23  N   UNL     1       1.033   9.962  19.994  0.00  0.00    +0.000 NA
ATOM     24  C   UNL     1       1.395  11.238  19.383  0.00  0.00    +0.000 C 
ATOM     25  C   UNL     1       0.850  12.423  20.186  0.00  0.00    +0.000 C 
ATOM     26  C   UNL     1      -0.669  12.347  20.345  0.00  0.00    +0.000 C 
ATOM     27  C   UNL     1      -1.026  10.993  20.974  0.00  0.00    +0.000 C 
ATOM     28  C   UNL     1      -0.412   9.810  20.215  0.00  0.00    +0.000 C 
BRANCH  26  29
ATOM     29  C   UNL     1      -1.395  12.570  19.011  0.00  0.00    +0.000 C 
ATOM     30  O   UNL     1      -0.910  13.216  18.085  0.00  0.00    +0.000 OA
BRANCH  29  31
ATOM     31  C   UNL     1      -2.748  11.986  18.791  0.00  0.00    +0.000 A 
ATOM     32  C   UNL     1      -3.818  12.494  19.548  0.00  0.00    +0.000 A 
ATOM     33  C   UNL     1      -5.117  12.036  19.328  0.00  0.00    +0.000 A 
ATOM     34  C   UNL     1      -5.343  11.078  18.348  0.00  0.00    +0.000 A 
ATOM     35  F   UNL     1      -6.592  10.653  18.115  0.00  0.00    +0.000 F 
ATOM     36  C   UNL     1      -4.294  10.562  17.593  0.00  0.00    +0.000 A 
ATOM     37  C   UNL     1      -2.990  11.014  17.814  0.00  0.00    +0.000 A 
ENDBRANCH  29  31
ENDBRANCH  26  29
ENDBRANCH  22  23
ENDBRANCH   2  22
TORSDOF 8
ENDMDL
MODEL 8
REMARK VINA RESULT:      -7.2      4.118      8.424
REMARK  Name = 
REMARK  9 active torsions:
REMARK  status: ('A' for Active; 'I' for Inactive)
REMARK    1  A    between atoms: C_1  and  C_2
REMARK    2  A    between atoms: C_2  and  C_3
REMARK    3  A    between atoms: C_2  and  N_6
REMARK    4  A    between atoms: N_6  and  C_7
REMARK    5  A    between atoms: C_7  and  C_8
REMARK    6  A    between atoms: C_19  and  C_21
REMARK    7  A    between atoms: C_21  and  N_22
REMARK    8  A    between atoms: C_25  and  C_26
REMARK    9  A    between atoms: C_26  and  C_28
REMARK                            x       y       z     vdW  Elec       q    Type
REMARK                         _______ _______ _______ _____ _____    ______ ____
ROOT
ATOM      1  N   UNL     1      -0.386  12.040  21.467  0.00  0.00    +0.000 N 
ATOM      2  C   UNL     1       0.409  13.194  21.387  0.00  0.00    +0.000 C 
ATOM      3  O   UNL     1       0.718  13.811  22.413  0.00  0.00    +0.000 OA
ENDROOT
BRANCH   1   5
ATOM      4  C   UNL     1      -1.124  10.425  23.261  0.00  0.00    +0.000 C 
ATOM      5  C   UNL     1      -1.184  11.861  22.705  0.00  0.00    +0.000 C 
BRANCH   5   6
ATOM      6  C   UNL     1      -2.628  12.279  22.547  0.00  0.00    +0.000 C 
ATOM      7  C   UNL     1      -3.198  13.608  22.986  0.00  0.00    +0.000 C 
ATOM      8  C   UNL     1      -3.487  12.369  23.786  0.00  0.00    +0.000 C 
ENDBRANCH   5   6
ENDBRANCH   1   5
BRANCH   1   9
ATOM      9  C   UNL     1      -0.780  11.235  20.295  0.00  0.00    +0.000 C 
BRANCH   9  10
ATOM     10  C   UNL     1       0.240  10.160  19.889  0.00  0.00    +0.000 A 
ATOM     11  N   UNL     1       0.537   9.206  20.716  0.00  0.00    +0.000 NA
ATOM     12  C   UNL     1       1.392   8.228  20.279  0.00  0.00    +0.000 A 
ATOM     13  C   UNL     1       2.003   8.229  19.083  0.00  0.00    +0.000 A 
ATOM     14  C   UNL     1       1.761   9.385  18.205  0.00  0.00    +0.000 A 
ATOM     15  O   UNL     1       2.356   9.543  17.145  0.00  0.00    +0.000 OA
ATOM     16  N   UNL     1       0.814  10.266  18.649  0.00  0.00    +0.000 N 
ATOM     17  C   UNL     1       2.832   7.095  18.570  0.00  0.00    +0.000 C 
ATOM     18  O   UNL     1       3.046   6.061  19.552  0.00  0.00    +0.000 OA
ATOM     19  C   UNL     1       1.868   5.796  20.319  0.00  0.00    +0.000 C 
ATOM     20  C   UNL     1       1.536   7.019  21.168  0.00  0.00    +0.000 C 
ATOM     21  H   UNL     1       0.616  11.051  18.048  0.00  0.00    +0.000 HD
ENDBRANCH   9  10
ENDBRANCH   1   9
BRANCH   2  22
ATOM     22  C   UNL     1       0.932  13.706  20.026  0.00  0.00    +0.000 C 
BRANCH  22  23
ATOM     23  N   UNL     1       1.948  14.792  20.111  0.00  0.00    +0.000 NA
ATOM     24  C   UNL     1       3.282  14.274  20.409  0.00  0.00    +0.000 C 
ATOM     25  C   UNL     1       4.300  15.405  20.584  0.00  0.00    +0.000 C 
ATOM     26  C   UNL     1       4.365  16.302  19.346  0.00  0.00    +0.000 C 
ATOM     27  C   UNL     1       2.953  16.821  19.045  0.00  0.00    +0.000 C 
ATOM     28  C   UNL     1       1.918  15.692  18.951  0.00  0.00    +0.000 C 
BRANCH  26  29
ATOM     29  C   UNL     1       4.978  15.572  18.143  0.00  0.00    +0.000 C 
ATOM     30  O   UNL     1       4.341  15.308  17.125  0.00  0.00    +0.000 OA
BRANCH  29  31
ATOM     31  C   UNL     1       6.407  15.154  18.172  0.00  0.00    +0.000 A 
ATOM     32  C   UNL     1       6.730  13.868  17.705  0.00  0.00    +0.000 A 
ATOM     33  C   UNL     1       8.061  13.456  17.641  0.00  0.00    +0.000 A 
ATOM     34  C   UNL     1       9.065  14.331  18.037  0.00  0.00    +0.000 A 
ATOM     35  F   UNL     1      10.345  13.949  17.954  0.00  0.00    +0.000 F 
ATOM     36  C   UNL     1       8.761  15.605  18.506  0.00  0.00    +0.000 A 
ATOM     37  C   UNL     1       7.428  16.021  18.578  0.00  0.00    +0.000 A 
ENDBRANCH  29  31
ENDBRANCH  26  29
ENDBRANCH  22  23
ENDBRANCH   2  22
TORSDOF 8
ENDMDL
MODEL 9
REMARK VINA RESULT:      -7.2      2.959      4.542
REMARK  Name = 
REMARK  9 active torsions:
REMARK  status: ('A' for Active; 'I' for Inactive)
REMARK    1  A    between atoms: C_1  and  C_2
REMARK    2  A    between atoms: C_2  and  C_3
REMARK    3  A    between atoms: C_2  and  N_6
REMARK    4  A    between atoms: N_6  and  C_7
REMARK    5  A    between atoms: C_7  and  C_8
REMARK    6  A    between atoms: C_19  and  C_21
REMARK    7  A    between atoms: C_21  and  N_22
REMARK    8  A    between atoms: C_25  and  C_26
REMARK    9  A    between atoms: C_26  and  C_28
REMARK                            x       y       z     vdW  Elec       q    Type
REMARK                         _______ _______ _______ _____ _____    ______ ____
ROOT
ATOM      1  N   UNL     1       0.908   9.375  20.078  0.00  0.00    +0.000 N 
ATOM      2  C   UNL     1       1.471   8.090  20.037  0.00  0.00    +0.000 C 
ATOM      3  O   UNL     1       1.541   7.407  21.065  0.00  0.00    +0.000 OA
ENDROOT
BRANCH   1   5
ATOM      4  C   UNL     1       1.959   9.599  22.362  0.00  0.00    +0.000 C 
ATOM      5  C   UNL     1       0.829  10.030  21.406  0.00  0.00    +0.000 C 
BRANCH   5   6
ATOM      6  C   UNL     1      -0.506   9.836  22.087  0.00  0.00    +0.000 C 
ATOM      7  C   UNL     1      -1.155  10.831  23.022  0.00  0.00    +0.000 C 
ATOM      8  C   UNL     1      -0.521   9.586  23.576  0.00  0.00    +0.000 C 
ENDBRANCH   5   6
ENDBRANCH   1   5
BRANCH   1   9
ATOM      9  C   UNL     1       0.767  10.245  18.894  0.00  0.00    +0.000 C 
BRANCH   9  10
ATOM     10  C   UNL     1      -0.679  10.437  18.414  0.00  0.00    +0.000 A 
ATOM     11  N   UNL     1      -1.555  10.980  19.202  0.00  0.00    +0.000 NA
ATOM     12  C   UNL     1      -2.811  11.202  18.700  0.00  0.00    +0.000 A 
ATOM     13  C   UNL     1      -3.221  10.827  17.478  0.00  0.00    +0.000 A 
ATOM     14  C   UNL     1      -2.258  10.094  16.641  0.00  0.00    +0.000 A 
ATOM     15  O   UNL     1      -2.563   9.607  15.559  0.00  0.00    +0.000 OA
ATOM     16  N   UNL     1      -0.992  10.004  17.151  0.00  0.00    +0.000 N 
ATOM     17  C   UNL     1      -4.552  11.188  16.898  0.00  0.00    +0.000 C 
ATOM     18  O   UNL     1      -5.421  11.844  17.843  0.00  0.00    +0.000 OA
ATOM     19  C   UNL     1      -4.718  12.786  18.657  0.00  0.00    +0.000 C 
ATOM     20  C   UNL     1      -3.733  12.039  19.551  0.00  0.00    +0.000 C 
ATOM     21  H   UNL     1      -0.312   9.528  16.580  0.00  0.00    +0.000 HD
ENDBRANCH   9  10
ENDBRANCH   1   9
BRANCH   2  22
ATOM     22  C   UNL     1       1.996   7.494  18.711  0.00  0.00    +0.000 C 
BRANCH  22  23
ATOM     23  N   UNL     1       2.435   6.073  18.792  0.00  0.00    +0.000 NA
ATOM     24  C   UNL     1       2.299   5.382  17.511  0.00  0.00    +0.000 C 
ATOM     25  C   UNL     1       2.668   3.900  17.629  0.00  0.00    +0.000 C 
ATOM     26  C   UNL     1       4.090   3.713  18.160  0.00  0.00    +0.000 C 
ATOM     27  C   UNL     1       4.213   4.458  19.496  0.00  0.00    +0.000 C 
ATOM     28  C   UNL     1       3.766   5.923  19.397  0.00  0.00    +0.000 C 
BRANCH  26  29
ATOM     29  C   UNL     1       5.145   4.173  17.145  0.00  0.00    +0.000 C 
ATOM     30  O   UNL     1       5.191   3.753  15.991  0.00  0.00    +0.000 OA
BRANCH  29  31
ATOM     31  C   UNL     1       6.172   5.177  17.540  0.00  0.00    +0.000 A 
ATOM     32  C   UNL     1       6.116   6.449  16.946  0.00  0.00    +0.000 A 
ATOM     33  C   UNL     1       7.007   7.449  17.337  0.00  0.00    +0.000 A 
ATOM     34  C   UNL     1       7.946   7.177  18.324  0.00  0.00    +0.000 A 
ATOM     35  F   UNL     1       8.786   8.141  18.721  0.00  0.00    +0.000 F 
ATOM     36  C   UNL     1       8.017   5.921  18.919  0.00  0.00    +0.000 A 
ATOM     37  C   UNL     1       7.130   4.914  18.527  0.00  0.00    +0.000 A 
ENDBRANCH  29  31
ENDBRANCH  26  29
ENDBRANCH  22  23
ENDBRANCH   2  22
TORSDOF 8
ENDMDL
