MODEL 1
REMARK VINA RESULT:      -7.8      0.000      0.000
REMARK  Name = 
REMARK  10 active torsions:
REMARK  status: ('A' for Active; 'I' for Inactive)
REMARK    1  A    between atoms: C_1  and  C_2
REMARK    2  A    between atoms: C_2  and  N_3
REMARK    3  A    between atoms: C_2  and  C_19
REMARK    4  A    between atoms: N_3  and  C_4
REMARK    5  A    between atoms: C_4  and  C_5
REMARK    6  A    between atoms: C_9  and  O_10
REMARK    7  A    between atoms: O_10  and  C_11
REMARK    8  A    between atoms: C_11  and  C_12
REMARK    9  A    between atoms: C_19  and  O_20
REMARK   10  A    between atoms: C_19  and  C_21
REMARK                            x       y       z     vdW  Elec       q    Type
REMARK                         _______ _______ _______ _____ _____    ______ ____
ROOT
ATOM      1  C   UNL     1       3.482   6.530  17.639  0.00  0.00    +0.000 C 
ENDROOT
BRANCH   1   2
ATOM      2  C   UNL     1       2.584   7.393  18.508  0.00  0.00    +0.000 A 
ATOM      3  C   UNL     1       2.279   6.957  19.803  0.00  0.00    +0.000 A 
ATOM      4  C   UNL     1       1.526   7.752  20.663  0.00  0.00    +0.000 A 
ATOM      5  C   UNL     1       1.045   8.996  20.241  0.00  0.00    +0.000 A 
ATOM      6  C   UNL     1       1.295   9.456  18.931  0.00  0.00    +0.000 A 
ATOM      7  C   UNL     1       2.052   8.635  18.069  0.00  0.00    +0.000 A 
BRANCH   6   8
ATOM      8  O   UNL     1       0.844  10.673  18.475  0.00  0.00    +0.000 OA
BRANCH   8   9
ATOM      9  C   UNL     1      -0.113  11.526  19.039  0.00  0.00    +0.000 C 
BRANCH   9  10
ATOM     10  C   UNL     1      -1.496  11.215  18.492  0.00  0.00    +0.000 A 
ATOM     11  C   UNL     1      -2.613  11.956  18.921  0.00  0.00    +0.000 A 
ATOM     12  C   UNL     1      -3.905  11.604  18.487  0.00  0.00    +0.000 A 
ATOM     13  C   UNL     1      -4.089  10.507  17.639  0.00  0.00    +0.000 A 
ATOM     14  C   UNL     1      -2.982   9.790  17.179  0.00  0.00    +0.000 A 
ATOM     15  C   UNL     1      -1.690  10.158  17.579  0.00  0.00    +0.000 A 
ENDBRANCH   9  10
ENDBRANCH   8   9
ENDBRANCH   6   8
ENDBRANCH   1   2
BRANCH   1  16
ATOM     16  N   UNL     1       4.381   5.649  18.419  0.00  0.00    +0.000 NA
ATOM     17  H   UNL     1       5.178   6.227  18.780  0.00  0.00    +0.000 HD
BRANCH  16  19
ATOM     18  C   UNL     1       4.747   4.391  16.267  0.00  0.00    +0.000 C 
ATOM     19  C   UNL     1       4.954   4.424  17.784  0.00  0.00    +0.000 C 
BRANCH  19  20
ATOM     20  C   UNL     1       4.469   3.118  18.435  0.00  0.00    +0.000 C 
BRANCH  20  21
ATOM     21  C   UNL     1       3.084   3.219  19.032  0.00  0.00    +0.000 A 
ATOM     22  C   UNL     1       1.875   3.225  18.288  0.00  0.00    +0.000 A 
ATOM     23  C   UNL     1       0.655   3.360  18.936  0.00  0.00    +0.000 A 
ATOM     24  C   UNL     1       0.632   3.534  20.310  0.00  0.00    +0.000 A 
ATOM     25  C   UNL     1       1.821   3.531  21.044  0.00  0.00    +0.000 A 
ATOM     26  C   UNL     1       3.031   3.348  20.417  0.00  0.00    +0.000 A 
ENDBRANCH  20  21
BRANCH  20  27
ATOM     27  O   UNL     1       5.387   2.695  19.423  0.00  0.00    +0.000 OA
ATOM     28  H   UNL     1       4.884   2.358  20.211  0.00  0.00    +0.000 HD
ENDBRANCH  20  27
ENDBRANCH  19  20
ENDBRANCH  16  19
ENDBRANCH   1  16
TORSDOF 9
ENDMDL
MODEL 2
REMARK VINA RESULT:      -7.5      2.689      5.789
REMARK  Name = 
REMARK  10 active torsions:
REMARK  status: ('A' for Active; 'I' for Inactive)
REMARK    1  A    between atoms: C_1  and  C_2
REMARK    2  A    between atoms: C_2  and  N_3
REMARK    3  A    between atoms: C_2  and  C_19
REMARK    4  A    between atoms: N_3  and  C_4
REMARK    5  A    between atoms: C_4  and  C_5
REMARK    6  A    between atoms: C_9  and  O_10
REMARK    7  A    between atoms: O_10  and  C_11
REMARK    8  A    between atoms: C_11  and  C_12
REMARK    9  A    between atoms: C_19  and  O_20
REMARK   10  A    between atoms: C_19  and  C_21
REMARK                            x       y       z     vdW  Elec       q    Type
REMARK                         _______ _______ _______ _____ _____    ______ ____
ROOT
ATOM      1  C   UNL     1       4.132   3.378  17.263  0.00  0.00    +0.000 C 
ENDROOT
BRANCH   1   2
ATOM      2  C   UNL     1       3.027   3.407  18.303  0.00  0.00    +0.000 A 
ATOM      3  C   UNL     1       2.447   2.197  18.703  0.00  0.00    +0.000 A 
ATOM      4  C   UNL     1       1.486   2.168  19.710  0.00  0.00    +0.000 A 
ATOM      5  C   UNL     1       1.070   3.351  20.329  0.00  0.00    +0.000 A 
ATOM      6  C   UNL     1       1.598   4.596  19.929  0.00  0.00    +0.000 A 
ATOM      7  C   UNL     1       2.565   4.610  18.900  0.00  0.00    +0.000 A 
BRANCH   6   8
ATOM      8  O   UNL     1       1.221   5.783  20.512  0.00  0.00    +0.000 OA
BRANCH   8   9
ATOM      9  C   UNL     1       2.009   6.893  20.839  0.00  0.00    +0.000 C 
BRANCH   9  10
ATOM     10  C   UNL     1       1.658   8.079  19.958  0.00  0.00    +0.000 A 
ATOM     11  C   UNL     1       2.135   8.148  18.635  0.00  0.00    +0.000 A 
ATOM     12  C   UNL     1       1.888   9.293  17.853  0.00  0.00    +0.000 A 
ATOM     13  C   UNL     1       1.181  10.374  18.388  0.00  0.00    +0.000 A 
ATOM     14  C   UNL     1       0.671  10.297  19.686  0.00  0.00    +0.000 A 
ATOM     15  C   UNL     1       0.883   9.146  20.459  0.00  0.00    +0.000 A 
ENDBRANCH   9  10
ENDBRANCH   8   9
ENDBRANCH   6   8
ENDBRANCH   1   2
BRANCH   1  16
ATOM     16  N   UNL     1       5.471   3.675  17.823  0.00  0.00    +0.000 NA
ATOM     17  H   UNL     1       5.345   4.223  18.708  0.00  0.00    +0.000 HD
BRANCH  16  19
ATOM     18  C   UNL     1       7.448   5.235  17.818  0.00  0.00    +0.000 C 
ATOM     19  C   UNL     1       6.486   4.384  16.986  0.00  0.00    +0.000 C 
BRANCH  19  20
ATOM     20  C   UNL     1       5.864   5.209  15.846  0.00  0.00    +0.000 C 
BRANCH  20  21
ATOM     21  C   UNL     1       6.354   4.809  14.474  0.00  0.00    +0.000 A 
ATOM     22  C   UNL     1       7.475   5.374  13.813  0.00  0.00    +0.000 A 
ATOM     23  C   UNL     1       7.817   4.959  12.534  0.00  0.00    +0.000 A 
ATOM     24  C   UNL     1       7.026   4.020  11.892  0.00  0.00    +0.000 A 
ATOM     25  C   UNL     1       5.920   3.465  12.539  0.00  0.00    +0.000 A 
ATOM     26  C   UNL     1       5.602   3.833  13.825  0.00  0.00    +0.000 A 
ENDBRANCH  20  21
BRANCH  20  27
ATOM     27  O   UNL     1       6.098   6.586  16.057  0.00  0.00    +0.000 OA
ATOM     28  H   UNL     1       5.341   6.969  16.575  0.00  0.00    +0.000 HD
ENDBRANCH  20  27
ENDBRANCH  19  20
ENDBRANCH  16  19
ENDBRANCH   1  16
TORSDOF 9
ENDMDL
MODEL 3
REMARK VINA RESULT:      -7.4      2.728      5.759
REMARK  Name = 
REMARK  10 active torsions:
REMARK  status: ('A' for Active; 'I' for Inactive)
REMARK    1  A    between atoms: C_1  and  C_2
REMARK    2  A    between atoms: C_2  and  N_3
REMARK    3  A    between atoms: C_2  and  C_19
REMARK    4  A    between atoms: N_3  and  C_4
REMARK    5  A    between atoms: C_4  and  C_5
REMARK    6  A    between atoms: C_9  and  O_10
REMARK    7  A    between atoms: O_10  and  C_11
REMARK    8  A    between atoms: C_11  and  C_12
REMARK    9  A    between atoms: C_19  and  O_20
REMARK   10  A    between atoms: C_19  and  C_21
REMARK                            x       y       z     vdW  Elec       q    Type
REMARK                         _______ _______ _______ _____ _____    ______ ____
ROOT
ATOM      1  C   UNL     1       4.527   3.041  17.423  0.00  0.00    +0.000 C 
ENDROOT
BRANCH   1   2
ATOM      2  C   UNL     1       3.248   3.148  18.233  0.00  0.00    +0.000 A 
ATOM      3  C   UNL     1       2.428   2.020  18.351  0.00  0.00    +0.000 A 
ATOM      4  C   UNL     1       1.287   2.049  19.148  0.00  0.00    +0.000 A 
ATOM      5  C   UNL     1       0.929   3.215  19.833  0.00  0.00    +0.000 A 
ATOM      6  C   UNL     1       1.704   4.387  19.711  0.00  0.00    +0.000 A 
ATOM      7  C   UNL     1       2.853   4.344  18.892  0.00  0.00    +0.000 A 
BRANCH   6   8
ATOM      8  O   UNL     1       1.393   5.554  20.369  0.00  0.00    +0.000 OA
BRANCH   8   9
ATOM      9  C   UNL     1       2.219   6.644  20.668  0.00  0.00    +0.000 C 
BRANCH   9  10
ATOM     10  C   UNL     1       1.791   7.873  19.884  0.00  0.00    +0.000 A 
ATOM     11  C   UNL     1       2.148   8.012  18.530  0.00  0.00    +0.000 A 
ATOM     12  C   UNL     1       1.832   9.194  17.833  0.00  0.00    +0.000 A 
ATOM     13  C   UNL     1       1.177  10.243  18.485  0.00  0.00    +0.000 A 
ATOM     14  C   UNL     1       0.786  10.097  19.818  0.00  0.00    +0.000 A 
ATOM     15  C   UNL     1       1.065   8.909  20.507  0.00  0.00    +0.000 A 
ENDBRANCH   9  10
ENDBRANCH   8   9
ENDBRANCH   6   8
ENDBRANCH   1   2
BRANCH   1  16
ATOM     16  N   UNL     1       5.662   3.782  18.019  0.00  0.00    +0.000 NA
ATOM     17  H   UNL     1       5.297   4.366  18.810  0.00  0.00    +0.000 HD
BRANCH  16  19
ATOM     18  C   UNL     1       7.331   5.668  17.966  0.00  0.00    +0.000 C 
ATOM     19  C   UNL     1       6.513   4.657  17.158  0.00  0.00    +0.000 C 
BRANCH  19  20
ATOM     20  C   UNL     1       5.725   5.356  16.037  0.00  0.00    +0.000 C 
BRANCH  20  21
ATOM     21  C   UNL     1       6.081   4.866  14.652  0.00  0.00    +0.000 A 
ATOM     22  C   UNL     1       5.288   3.984  13.872  0.00  0.00    +0.000 A 
ATOM     23  C   UNL     1       5.729   3.566  12.624  0.00  0.00    +0.000 A 
ATOM     24  C   UNL     1       6.968   3.983  12.167  0.00  0.00    +0.000 A 
ATOM     25  C   UNL     1       7.751   4.848  12.935  0.00  0.00    +0.000 A 
ATOM     26  C   UNL     1       7.302   5.308  14.150  0.00  0.00    +0.000 A 
ENDBRANCH  20  21
BRANCH  20  27
ATOM     27  O   UNL     1       5.907   6.755  16.112  0.00  0.00    +0.000 OA
ATOM     28  H   UNL     1       6.614   7.026  15.467  0.00  0.00    +0.000 HD
ENDBRANCH  20  27
ENDBRANCH  19  20
ENDBRANCH  16  19
ENDBRANCH   1  16
TORSDOF 9
ENDMDL
MODEL 4
REMARK VINA RESULT:      -7.3      5.071      7.473
REMARK  Name = 
REMARK  10 active torsions:
REMARK  status: ('A' for Active; 'I' for Inactive)
REMARK    1  A    between atoms: C_1  and  C_2
REMARK    2  A    between atoms: C_2  and  N_3
REMARK    3  A    between atoms: C_2  and  C_19
REMARK    4  A    between atoms: N_3  and  C_4
REMARK    5  A    between atoms: C_4  and  C_5
REMARK    6  A    between atoms: C_9  and  O_10
REMARK    7  A    between atoms: O_10  and  C_11
REMARK    8  A    between atoms: C_11  and  C_12
REMARK    9  A    between atoms: C_19  and  O_20
REMARK   10  A    between atoms: C_19  and  C_21
REMARK                            x       y       z     vdW  Elec       q    Type
REMARK                         _______ _______ _______ _____ _____    ______ ____
ROOT
ATOM      1  C   UNL     1       4.998   6.008  16.348  0.00  0.00    +0.000 C 
ENDROOT
BRANCH   1   2
ATOM      2  C   UNL     1       6.142   6.379  17.275  0.00  0.00    +0.000 A 
ATOM      3  C   UNL     1       6.584   5.435  18.210  0.00  0.00    +0.000 A 
ATOM      4  C   UNL     1       7.680   5.702  19.026  0.00  0.00    +0.000 A 
ATOM      5  C   UNL     1       8.350   6.926  18.937  0.00  0.00    +0.000 A 
ATOM      6  C   UNL     1       7.914   7.921  18.038  0.00  0.00    +0.000 A 
ATOM      7  C   UNL     1       6.795   7.639  17.224  0.00  0.00    +0.000 A 
BRANCH   6   8
ATOM      8  O   UNL     1       8.543   9.137  17.915  0.00  0.00    +0.000 OA
BRANCH   8   9
ATOM      9  C   UNL     1       8.976  10.011  18.920  0.00  0.00    +0.000 C 
BRANCH   9  10
ATOM     10  C   UNL     1       9.552  11.280  18.317  0.00  0.00    +0.000 A 
ATOM     11  C   UNL     1      10.885  11.312  17.867  0.00  0.00    +0.000 A 
ATOM     12  C   UNL     1      11.445  12.516  17.397  0.00  0.00    +0.000 A 
ATOM     13  C   UNL     1      10.686  13.690  17.388  0.00  0.00    +0.000 A 
ATOM     14  C   UNL     1       9.350  13.658  17.796  0.00  0.00    +0.000 A 
ATOM     15  C   UNL     1       8.776  12.455  18.232  0.00  0.00    +0.000 A 
ENDBRANCH   9  10
ENDBRANCH   8   9
ENDBRANCH   6   8
ENDBRANCH   1   2
BRANCH   1  16
ATOM     16  N   UNL     1       4.580   4.592  16.470  0.00  0.00    +0.000 NA
ATOM     17  H   UNL     1       4.655   4.144  15.525  0.00  0.00    +0.000 HD
BRANCH  16  19
ATOM     18  C   UNL     1       2.717   5.325  17.999  0.00  0.00    +0.000 C 
ATOM     19  C   UNL     1       3.235   4.260  17.028  0.00  0.00    +0.000 C 
BRANCH  19  20
ATOM     20  C   UNL     1       3.168   2.859  17.659  0.00  0.00    +0.000 C 
BRANCH  20  21
ATOM     21  C   UNL     1       2.492   2.836  19.011  0.00  0.00    +0.000 A 
ATOM     22  C   UNL     1       1.102   3.026  19.229  0.00  0.00    +0.000 A 
ATOM     23  C   UNL     1       0.589   3.023  20.518  0.00  0.00    +0.000 A 
ATOM     24  C   UNL     1       1.453   2.879  21.592  0.00  0.00    +0.000 A 
ATOM     25  C   UNL     1       2.821   2.695  21.379  0.00  0.00    +0.000 A 
ATOM     26  C   UNL     1       3.332   2.646  20.104  0.00  0.00    +0.000 A 
ENDBRANCH  20  21
BRANCH  20  27
ATOM     27  O   UNL     1       4.465   2.309  17.763  0.00  0.00    +0.000 OA
ATOM     28  H   UNL     1       5.134   3.009  17.535  0.00  0.00    +0.000 HD
ENDBRANCH  20  27
ENDBRANCH  19  20
ENDBRANCH  16  19
ENDBRANCH   1  16
TORSDOF 9
ENDMDL
MODEL 5
REMARK VINA RESULT:      -7.3      2.649      5.197
REMARK  Name = 
REMARK  10 active torsions:
REMARK  status: ('A' for Active; 'I' for Inactive)
REMARK    1  A    between atoms: C_1  and  C_2
REMARK    2  A    between atoms: C_2  and  N_3
REMARK    3  A    between atoms: C_2  and  C_19
REMARK    4  A    between atoms: N_3  and  C_4
REMARK    5  A    between atoms: C_4  and  C_5
REMARK    6  A    between atoms: C_9  and  O_10
REMARK    7  A    between atoms: O_10  and  C_11
REMARK    8  A    between atoms: C_11  and  C_12
REMARK    9  A    between atoms: C_19  and  O_20
REMARK   10  A    between atoms: C_19  and  C_21
REMARK                            x       y       z     vdW  Elec       q    Type
REMARK                         _______ _______ _______ _____ _____    ______ ____
ROOT
ATOM      1  C   UNL     1       5.950   4.391  19.000  0.00  0.00    +0.000 C 
ENDROOT
BRANCH   1   2
ATOM      2  C   UNL     1       4.524   4.724  18.600  0.00  0.00    +0.000 A 
ATOM      3  C   UNL     1       3.739   3.726  18.010  0.00  0.00    +0.000 A 
ATOM      4  C   UNL     1       2.402   3.963  17.699  0.00  0.00    +0.000 A 
ATOM      5  C   UNL     1       1.824   5.210  17.956  0.00  0.00    +0.000 A 
ATOM      6  C   UNL     1       2.589   6.256  18.512  0.00  0.00    +0.000 A 
ATOM      7  C   UNL     1       3.945   6.004  18.813  0.00  0.00    +0.000 A 
BRANCH   6   8
ATOM      8  O   UNL     1       2.061   7.497  18.784  0.00  0.00    +0.000 OA
BRANCH   8   9
ATOM      9  C   UNL     1       1.853   8.575  17.915  0.00  0.00    +0.000 C 
BRANCH   9  10
ATOM     10  C   UNL     1       0.812   9.526  18.480  0.00  0.00    +0.000 A 
ATOM     11  C   UNL     1       0.954  10.045  19.781  0.00  0.00    +0.000 A 
ATOM     12  C   UNL     1      -0.060  10.848  20.337  0.00  0.00    +0.000 A 
ATOM     13  C   UNL     1      -1.221  11.123  19.608  0.00  0.00    +0.000 A 
ATOM     14  C   UNL     1      -1.352  10.644  18.303  0.00  0.00    +0.000 A 
ATOM     15  C   UNL     1      -0.331   9.873  17.730  0.00  0.00    +0.000 A 
ENDBRANCH   9  10
ENDBRANCH   8   9
ENDBRANCH   6   8
ENDBRANCH   1   2
BRANCH   1  16
ATOM     16  N   UNL     1       6.846   4.165  17.843  0.00  0.00    +0.000 NA
ATOM     17  H   UNL     1       7.766   3.812  18.201  0.00  0.00    +0.000 HD
BRANCH  16  19
ATOM     18  C   UNL     1       7.410   6.608  17.600  0.00  0.00    +0.000 C 
ATOM     19  C   UNL     1       7.124   5.282  16.890  0.00  0.00    +0.000 C 
BRANCH  19  20
ATOM     20  C   UNL     1       6.033   5.453  15.819  0.00  0.00    +0.000 C 
BRANCH  20  21
ATOM     21  C   UNL     1       6.430   4.919  14.462  0.00  0.00    +0.000 A 
ATOM     22  C   UNL     1       7.526   5.387  13.691  0.00  0.00    +0.000 A 
ATOM     23  C   UNL     1       7.779   4.850  12.437  0.00  0.00    +0.000 A 
ATOM     24  C   UNL     1       6.926   3.886  11.927  0.00  0.00    +0.000 A 
ATOM     25  C   UNL     1       5.844   3.426  12.682  0.00  0.00    +0.000 A 
ATOM     26  C   UNL     1       5.614   3.916  13.946  0.00  0.00    +0.000 A 
ENDBRANCH  20  21
BRANCH  20  27
ATOM     27  O   UNL     1       5.666   6.813  15.711  0.00  0.00    +0.000 OA
ATOM     28  H   UNL     1       5.674   7.225  16.616  0.00  0.00    +0.000 HD
ENDBRANCH  20  27
ENDBRANCH  19  20
ENDBRANCH  16  19
ENDBRANCH   1  16
TORSDOF 9
ENDMDL
MODEL 6
REMARK VINA RESULT:      -7.3      1.193      3.127
REMARK  Name = 
REMARK  10 active torsions:
REMARK  status: ('A' for Active; 'I' for Inactive)
REMARK    1  A    between atoms: C_1  and  C_2
REMARK    2  A    between atoms: C_2  and  N_3
REMARK    3  A    between atoms: C_2  and  C_19
REMARK    4  A    between atoms: N_3  and  C_4
REMARK    5  A    between atoms: C_4  and  C_5
REMARK    6  A    between atoms: C_9  and  O_10
REMARK    7  A    between atoms: O_10  and  C_11
REMARK    8  A    between atoms: C_11  and  C_12
REMARK    9  A    between atoms: C_19  and  O_20
REMARK   10  A    between atoms: C_19  and  C_21
REMARK                            x       y       z     vdW  Elec       q    Type
REMARK                         _______ _______ _______ _____ _____    ______ ____
ROOT
ATOM      1  C   UNL     1       1.803   6.278  20.999  0.00  0.00    +0.000 C 
ENDROOT
BRANCH   1   2
ATOM      2  C   UNL     1       1.945   7.299  19.885  0.00  0.00    +0.000 A 
ATOM      3  C   UNL     1       2.828   7.030  18.833  0.00  0.00    +0.000 A 
ATOM      4  C   UNL     1       2.932   7.900  17.750  0.00  0.00    +0.000 A 
ATOM      5  C   UNL     1       2.165   9.069  17.703  0.00  0.00    +0.000 A 
ATOM      6  C   UNL     1       1.292   9.399  18.760  0.00  0.00    +0.000 A 
ATOM      7  C   UNL     1       1.205   8.511  19.855  0.00  0.00    +0.000 A 
BRANCH   6   8
ATOM      8  O   UNL     1       0.517  10.535  18.754  0.00  0.00    +0.000 OA
BRANCH   8   9
ATOM      9  C   UNL     1      -0.734  10.751  19.346  0.00  0.00    +0.000 C 
BRANCH   9  10
ATOM     10  C   UNL     1      -1.835  10.716  18.300  0.00  0.00    +0.000 A 
ATOM     11  C   UNL     1      -1.700   9.911  17.153  0.00  0.00    +0.000 A 
ATOM     12  C   UNL     1      -2.677   9.954  16.140  0.00  0.00    +0.000 A 
ATOM     13  C   UNL     1      -3.779  10.807  16.258  0.00  0.00    +0.000 A 
ATOM     14  C   UNL     1      -3.939  11.580  17.411  0.00  0.00    +0.000 A 
ATOM     15  C   UNL     1      -2.988  11.515  18.439  0.00  0.00    +0.000 A 
ENDBRANCH   9  10
ENDBRANCH   8   9
ENDBRANCH   6   8
ENDBRANCH   1   2
BRANCH   1  16
ATOM     16  N   UNL     1       2.700   5.110  20.841  0.00  0.00    +0.000 NA
ATOM     17  H   UNL     1       3.630   5.451  20.497  0.00  0.00    +0.000 HD
BRANCH  16  19
ATOM     18  C   UNL     1       1.194   3.103  20.616  0.00  0.00    +0.000 C 
ATOM     19  C   UNL     1       2.283   3.966  19.974  0.00  0.00    +0.000 C 
BRANCH  19  20
ATOM     20  C   UNL     1       3.464   3.102  19.500  0.00  0.00    +0.000 C 
BRANCH  20  21
ATOM     21  C   UNL     1       4.300   3.758  18.425  0.00  0.00    +0.000 A 
ATOM     22  C   UNL     1       3.978   3.783  17.044  0.00  0.00    +0.000 A 
ATOM     23  C   UNL     1       4.838   4.383  16.135  0.00  0.00    +0.000 A 
ATOM     24  C   UNL     1       6.034   4.917  16.583  0.00  0.00    +0.000 A 
ATOM     25  C   UNL     1       6.355   4.892  17.943  0.00  0.00    +0.000 A 
ATOM     26  C   UNL     1       5.487   4.344  18.857  0.00  0.00    +0.000 A 
ENDBRANCH  20  21
BRANCH  20  27
ATOM     27  O   UNL     1       2.999   1.848  19.046  0.00  0.00    +0.000 OA
ATOM     28  H   UNL     1       3.724   1.396  18.537  0.00  0.00    +0.000 HD
ENDBRANCH  20  27
ENDBRANCH  19  20
ENDBRANCH  16  19
ENDBRANCH   1  16
TORSDOF 9
ENDMDL
MODEL 7
REMARK VINA RESULT:      -7.3      2.569      5.143
REMARK  Name = 
REMARK  10 active torsions:
REMARK  status: ('A' for Active; 'I' for Inactive)
REMARK    1  A    between atoms: C_1  and  C_2
REMARK    2  A    between atoms: C_2  and  N_3
REMARK    3  A    between atoms: C_2  and  C_19
REMARK    4  A    between atoms: N_3  and  C_4
REMARK    5  A    between atoms: C_4  and  C_5
REMARK    6  A    between atoms: C_9  and  O_10
REMARK    7  A    between atoms: O_10  and  C_11
REMARK    8  A    between atoms: C_11  and  C_12
REMARK    9  A    between atoms: C_19  and  O_20
REMARK   10  A    between atoms: C_19  and  C_21
REMARK                            x       y       z     vdW  Elec       q    Type
REMARK                         _______ _______ _______ _____ _____    ______ ____
ROOT
ATOM      1  C   UNL     1       5.177   3.552  19.000  0.00  0.00    +0.000 C 
ENDROOT
BRANCH   1   2
ATOM      2  C   UNL     1       3.861   4.087  19.533  0.00  0.00    +0.000 A 
ATOM      3  C   UNL     1       2.942   3.187  20.087  0.00  0.00    +0.000 A 
ATOM      4  C   UNL     1       1.757   3.641  20.660  0.00  0.00    +0.000 A 
ATOM      5  C   UNL     1       1.455   5.007  20.675  0.00  0.00    +0.000 A 
ATOM      6  C   UNL     1       2.332   5.945  20.093  0.00  0.00    +0.000 A 
ATOM      7  C   UNL     1       3.526   5.467  19.508  0.00  0.00    +0.000 A 
BRANCH   6   8
ATOM      8  O   UNL     1       2.077   7.296  20.088  0.00  0.00    +0.000 OA
BRANCH   8   9
ATOM      9  C   UNL     1       2.078   8.189  19.010  0.00  0.00    +0.000 C 
BRANCH   9  10
ATOM     10  C   UNL     1       1.010   9.253  19.193  0.00  0.00    +0.000 A 
ATOM     11  C   UNL     1       0.686   9.720  20.481  0.00  0.00    +0.000 A 
ATOM     12  C   UNL     1      -0.370  10.635  20.657  0.00  0.00    +0.000 A 
ATOM     13  C   UNL     1      -1.114  11.073  19.557  0.00  0.00    +0.000 A 
ATOM     14  C   UNL     1      -0.773  10.644  18.272  0.00  0.00    +0.000 A 
ATOM     15  C   UNL     1       0.299   9.761  18.086  0.00  0.00    +0.000 A 
ENDBRANCH   9  10
ENDBRANCH   8   9
ENDBRANCH   6   8
ENDBRANCH   1   2
BRANCH   1  16
ATOM     16  N   UNL     1       5.387   3.839  17.562  0.00  0.00    +0.000 NA
ATOM     17  H   UNL     1       5.213   2.957  17.020  0.00  0.00    +0.000 HD
BRANCH  16  19
ATOM     18  C   UNL     1       7.547   4.933  18.255  0.00  0.00    +0.000 C 
ATOM     19  C   UNL     1       6.688   4.410  17.100  0.00  0.00    +0.000 C 
BRANCH  19  20
ATOM     20  C   UNL     1       6.529   5.477  16.004  0.00  0.00    +0.000 C 
BRANCH  20  21
ATOM     21  C   UNL     1       6.545   4.910  14.603  0.00  0.00    +0.000 A 
ATOM     22  C   UNL     1       5.608   3.975  14.092  0.00  0.00    +0.000 A 
ATOM     23  C   UNL     1       5.738   3.490  12.798  0.00  0.00    +0.000 A 
ATOM     24  C   UNL     1       6.816   3.893  12.027  0.00  0.00    +0.000 A 
ATOM     25  C   UNL     1       7.741   4.811  12.529  0.00  0.00    +0.000 A 
ATOM     26  C   UNL     1       7.594   5.336  13.791  0.00  0.00    +0.000 A 
ENDBRANCH  20  21
BRANCH  20  27
ATOM     27  O   UNL     1       7.531   6.463  16.134  0.00  0.00    +0.000 OA
ATOM     28  H   UNL     1       7.642   6.689  17.096  0.00  0.00    +0.000 HD
ENDBRANCH  20  27
ENDBRANCH  19  20
ENDBRANCH  16  19
ENDBRANCH   1  16
TORSDOF 9
ENDMDL
MODEL 8
REMARK VINA RESULT:      -7.3      1.150      1.565
REMARK  Name = 
REMARK  10 active torsions:
REMARK  status: ('A' for Active; 'I' for Inactive)
REMARK    1  A    between atoms: C_1  and  C_2
REMARK    2  A    between atoms: C_2  and  N_3
REMARK    3  A    between atoms: C_2  and  C_19
REMARK    4  A    between atoms: N_3  and  C_4
REMARK    5  A    between atoms: C_4  and  C_5
REMARK    6  A    between atoms: C_9  and  O_10
REMARK    7  A    between atoms: O_10  and  C_11
REMARK    8  A    between atoms: C_11  and  C_12
REMARK    9  A    between atoms: C_19  and  O_20
REMARK   10  A    between atoms: C_19  and  C_21
REMARK                            x       y       z     vdW  Elec       q    Type
REMARK                         _______ _______ _______ _____ _____    ______ ____
ROOT
ATOM      1  C   UNL     1       3.176   7.808  17.611  0.00  0.00    +0.000 C 
ENDROOT
BRANCH   1   2
ATOM      2  C   UNL     1       2.178   8.341  18.623  0.00  0.00    +0.000 A 
ATOM      3  C   UNL     1       2.087   7.717  19.873  0.00  0.00    +0.000 A 
ATOM      4  C   UNL     1       1.243   8.220  20.859  0.00  0.00    +0.000 A 
ATOM      5  C   UNL     1       0.456   9.349  20.612  0.00  0.00    +0.000 A 
ATOM      6  C   UNL     1       0.487   9.986  19.354  0.00  0.00    +0.000 A 
ATOM      7  C   UNL     1       1.341   9.458  18.361  0.00  0.00    +0.000 A 
BRANCH   6   8
ATOM      8  O   UNL     1      -0.267  11.100  19.068  0.00  0.00    +0.000 OA
BRANCH   8   9
ATOM      9  C   UNL     1      -1.619  11.342  19.339  0.00  0.00    +0.000 C 
BRANCH   9  10
ATOM     10  C   UNL     1      -2.470  11.063  18.112  0.00  0.00    +0.000 A 
ATOM     11  C   UNL     1      -1.918  10.401  16.999  0.00  0.00    +0.000 A 
ATOM     12  C   UNL     1      -2.680  10.230  15.828  0.00  0.00    +0.000 A 
ATOM     13  C   UNL     1      -3.984  10.729  15.755  0.00  0.00    +0.000 A 
ATOM     14  C   UNL     1      -4.552  11.353  16.869  0.00  0.00    +0.000 A 
ATOM     15  C   UNL     1      -3.811  11.495  18.050  0.00  0.00    +0.000 A 
ENDBRANCH   9  10
ENDBRANCH   8   9
ENDBRANCH   6   8
ENDBRANCH   1   2
BRANCH   1  16
ATOM     16  N   UNL     1       3.178   6.330  17.511  0.00  0.00    +0.000 NA
ATOM     17  H   UNL     1       2.506   5.951  18.222  0.00  0.00    +0.000 HD
BRANCH  16  19
ATOM     18  C   UNL     1       4.849   4.833  16.367  0.00  0.00    +0.000 C 
ATOM     19  C   UNL     1       4.461   5.578  17.647  0.00  0.00    +0.000 C 
BRANCH  19  20
ATOM     20  C   UNL     1       4.488   4.636  18.863  0.00  0.00    +0.000 C 
BRANCH  20  21
ATOM     21  C   UNL     1       3.162   3.965  19.136  0.00  0.00    +0.000 A 
ATOM     22  C   UNL     1       2.540   3.013  18.286  0.00  0.00    +0.000 A 
ATOM     23  C   UNL     1       1.300   2.485  18.616  0.00  0.00    +0.000 A 
ATOM     24  C   UNL     1       0.655   2.929  19.759  0.00  0.00    +0.000 A 
ATOM     25  C   UNL     1       1.264   3.868  20.595  0.00  0.00    +0.000 A 
ATOM     26  C   UNL     1       2.514   4.360  20.304  0.00  0.00    +0.000 A 
ENDBRANCH  20  21
BRANCH  20  27
ATOM     27  O   UNL     1       4.917   5.336  20.012  0.00  0.00    +0.000 OA
ATOM     28  H   UNL     1       5.375   6.173  19.731  0.00  0.00    +0.000 HD
ENDBRANCH  20  27
ENDBRANCH  19  20
ENDBRANCH  16  19
ENDBRANCH   1  16
TORSDOF 9
ENDMDL
MODEL 9
REMARK VINA RESULT:      -7.2      2.305      3.967
REMARK  Name = 
REMARK  10 active torsions:
REMARK  status: ('A' for Active; 'I' for Inactive)
REMARK    1  A    between atoms: C_1  and  C_2
REMARK    2  A    between atoms: C_2  and  N_3
REMARK    3  A    between atoms: C_2  and  C_19
REMARK    4  A    between atoms: N_3  and  C_4
REMARK    5  A    between atoms: C_4  and  C_5
REMARK    6  A    between atoms: C_9  and  O_10
REMARK    7  A    between atoms: O_10  and  C_11
REMARK    8  A    between atoms: C_11  and  C_12
REMARK    9  A    between atoms: C_19  and  O_20
REMARK   10  A    between atoms: C_19  and  C_21
REMARK                            x       y       z     vdW  Elec       q    Type
REMARK                         _______ _______ _______ _____ _____    ______ ____
ROOT
ATOM      1  C   UNL     1       1.887   5.945  20.600  0.00  0.00    +0.000 C 
ENDROOT
BRANCH   1   2
ATOM      2  C   UNL     1       1.975   7.158  19.692  0.00  0.00    +0.000 A 
ATOM      3  C   UNL     1       2.751   7.076  18.529  0.00  0.00    +0.000 A 
ATOM      4  C   UNL     1       2.797   8.136  17.628  0.00  0.00    +0.000 A 
ATOM      5  C   UNL     1       2.081   9.311  17.877  0.00  0.00    +0.000 A 
ATOM      6  C   UNL     1       1.319   9.453  19.055  0.00  0.00    +0.000 A 
ATOM      7  C   UNL     1       1.289   8.373  19.964  0.00  0.00    +0.000 A 
BRANCH   6   8
ATOM      8  O   UNL     1       0.597  10.589  19.339  0.00  0.00    +0.000 OA
BRANCH   8   9
ATOM      9  C   UNL     1       0.924  11.649  20.194  0.00  0.00    +0.000 C 
BRANCH   9  10
ATOM     10  C   UNL     1      -0.130  11.809  21.276  0.00  0.00    +0.000 A 
ATOM     11  C   UNL     1      -0.326  10.795  22.233  0.00  0.00    +0.000 A 
ATOM     12  C   UNL     1      -1.367  10.904  23.175  0.00  0.00    +0.000 A 
ATOM     13  C   UNL     1      -2.223  12.009  23.157  0.00  0.00    +0.000 A 
ATOM     14  C   UNL     1      -2.011  13.037  22.235  0.00  0.00    +0.000 A 
ATOM     15  C   UNL     1      -0.954  12.953  21.317  0.00  0.00    +0.000 A 
ENDBRANCH   9  10
ENDBRANCH   8   9
ENDBRANCH   6   8
ENDBRANCH   1   2
BRANCH   1  16
ATOM     16  N   UNL     1       3.130   5.139  20.623  0.00  0.00    +0.000 NA
ATOM     17  H   UNL     1       3.887   5.687  20.147  0.00  0.00    +0.000 HD
BRANCH  16  19
ATOM     18  C   UNL     1       2.572   2.714  21.015  0.00  0.00    +0.000 C 
ATOM     19  C   UNL     1       3.131   3.760  20.047  0.00  0.00    +0.000 C 
BRANCH  19  20
ATOM     20  C   UNL     1       4.504   3.331  19.503  0.00  0.00    +0.000 C 
BRANCH  20  21
ATOM     21  C   UNL     1       5.080   4.292  18.489  0.00  0.00    +0.000 A 
ATOM     22  C   UNL     1       6.082   5.260  18.762  0.00  0.00    +0.000 A 
ATOM     23  C   UNL     1       6.514   6.120  17.762  0.00  0.00    +0.000 A 
ATOM     24  C   UNL     1       5.926   6.055  16.510  0.00  0.00    +0.000 A 
ATOM     25  C   UNL     1       4.938   5.105  16.240  0.00  0.00    +0.000 A 
ATOM     26  C   UNL     1       4.539   4.215  17.209  0.00  0.00    +0.000 A 
ENDBRANCH  20  21
BRANCH  20  27
ATOM     27  O   UNL     1       4.424   2.035  18.945  0.00  0.00    +0.000 OA
ATOM     28  H   UNL     1       3.662   2.003  18.307  0.00  0.00    +0.000 HD
ENDBRANCH  20  27
ENDBRANCH  19  20
ENDBRANCH  16  19
ENDBRANCH   1  16
TORSDOF 9
ENDMDL
