MODEL 1
REMARK VINA RESULT:      -8.1      0.000      0.000
REMARK  Name = 
REMARK  4 active torsions:
REMARK  status: ('A' for Active; 'I' for Inactive)
REMARK    1  A    between atoms: C_6  and  C_7
REMARK    2  A    between atoms: C_7  and  C_8
REMARK    3  A    between atoms: C_8  and  O_9
REMARK    4  A    between atoms: C_15  and  C_16
REMARK                            x       y       z     vdW  Elec       q    Type
REMARK                         _______ _______ _______ _____ _____    ______ ____
ROOT
ATOM      1  O   UNL     1       0.712   8.615  21.816  0.00  0.00    +0.000 OA
ATOM      2  C   UNL     1       0.998   8.696  20.623  0.00  0.00    +0.000 C 
ATOM      3  N   UNL     1       0.610   9.717  19.797  0.00  0.00    +0.000 N 
ATOM      4  C   UNL     1      -0.088  10.802  20.231  0.00  0.00    +0.000 A 
ATOM      5  N   UNL     1      -0.401  11.167  21.443  0.00  0.00    +0.000 NA
ATOM      6  C   UNL     1      -1.168  12.322  21.401  0.00  0.00    +0.000 A 
ATOM      7  C   UNL     1      -1.385  12.821  20.130  0.00  0.00    +0.000 A 
ATOM      8  S   UNL     1      -0.616  11.822  18.968  0.00  0.00    +0.000 S 
ATOM      9  N   UNL     1       1.740   7.692  19.986  0.00  0.00    +0.000 N 
ATOM     10  C   UNL     1       2.376   7.808  18.673  0.00  0.00    +0.000 C 
ATOM     11  C   UNL     1       2.183   6.524  17.871  0.00  0.00    +0.000 C 
ATOM     12  C   UNL     1       2.652   5.275  18.634  0.00  0.00    +0.000 C 
ATOM     13  C   UNL     1       2.065   5.249  20.055  0.00  0.00    +0.000 C 
ATOM     14  C   UNL     1       2.231   6.576  20.793  0.00  0.00    +0.000 C 
ATOM     15  H   UNL     1       0.653   9.622  18.803  0.00  0.00    +0.000 HD
ENDROOT
BRANCH  12  16
ATOM     16  C   UNL     1       4.146   5.090  18.624  0.00  0.00    +0.000 A 
ATOM     17  N   UNL     1       4.866   5.140  19.754  0.00  0.00    +0.000 NA
ATOM     18  O   UNL     1       6.182   4.955  19.383  0.00  0.00    +0.000 OA
ATOM     19  C   UNL     1       6.256   4.793  18.038  0.00  0.00    +0.000 A 
ATOM     20  C   UNL     1       7.416   4.588  17.301  0.00  0.00    +0.000 A 
ATOM     21  C   UNL     1       7.247   4.452  15.920  0.00  0.00    +0.000 A 
ATOM     22  C   UNL     1       5.978   4.521  15.345  0.00  0.00    +0.000 A 
ATOM     23  F   UNL     1       5.856   4.383  14.019  0.00  0.00    +0.000 F 
ATOM     24  C   UNL     1       4.826   4.731  16.110  0.00  0.00    +0.000 A 
ATOM     25  C   UNL     1       4.982   4.870  17.498  0.00  0.00    +0.000 A 
ENDBRANCH  12  16
BRANCH   6  26
ATOM     26  C   UNL     1      -1.655  12.918  22.686  0.00  0.00    +0.000 C 
BRANCH  26  27
ATOM     27  C   UNL     1      -2.748  12.098  23.371  0.00  0.00    +0.000 C 
BRANCH  27  28
ATOM     28  O   UNL     1      -4.008  12.290  22.731  0.00  0.00    +0.000 OA
ATOM     29  H   UNL     1      -4.599  12.617  23.445  0.00  0.00    +0.000 HD
ENDBRANCH  27  28
ENDBRANCH  26  27
ENDBRANCH   6  26
TORSDOF 4
ENDMDL
MODEL 2
REMARK VINA RESULT:      -8.0      1.026      1.123
REMARK  Name = 
REMARK  4 active torsions:
REMARK  status: ('A' for Active; 'I' for Inactive)
REMARK    1  A    between atoms: C_6  and  C_7
REMARK    2  A    between atoms: C_7  and  C_8
REMARK    3  A    between atoms: C_8  and  O_9
REMARK    4  A    between atoms: C_15  and  C_16
REMARK                            x       y       z     vdW  Elec       q    Type
REMARK                         _______ _______ _______ _____ _____    ______ ____
ROOT
ATOM      1  O   UNL     1       0.739   8.768  21.696  0.00  0.00    +0.000 OA
ATOM      2  C   UNL     1       1.017   8.797  20.499  0.00  0.00    +0.000 C 
ATOM      3  N   UNL     1       0.622   9.782  19.632  0.00  0.00    +0.000 N 
ATOM      4  C   UNL     1      -0.076  10.884  20.023  0.00  0.00    +0.000 A 
ATOM      5  N   UNL     1      -0.381  11.300  21.221  0.00  0.00    +0.000 NA
ATOM      6  C   UNL     1      -1.150  12.451  21.134  0.00  0.00    +0.000 A 
ATOM      7  C   UNL     1      -1.376  12.895  19.844  0.00  0.00    +0.000 A 
ATOM      8  S   UNL     1      -0.613  11.848  18.721  0.00  0.00    +0.000 S 
ATOM      9  N   UNL     1       1.756   7.768  19.901  0.00  0.00    +0.000 N 
ATOM     10  C   UNL     1       2.384   7.828  18.580  0.00  0.00    +0.000 C 
ATOM     11  C   UNL     1       2.187   6.510  17.836  0.00  0.00    +0.000 C 
ATOM     12  C   UNL     1       2.663   5.297  18.649  0.00  0.00    +0.000 C 
ATOM     13  C   UNL     1       2.085   5.331  20.073  0.00  0.00    +0.000 C 
ATOM     14  C   UNL     1       2.255   6.689  20.752  0.00  0.00    +0.000 C 
ATOM     15  H   UNL     1       0.659   9.644  18.642  0.00  0.00    +0.000 HD
ENDROOT
BRANCH  12  16
ATOM     16  C   UNL     1       4.157   5.113  18.636  0.00  0.00    +0.000 A 
ATOM     17  N   UNL     1       4.882   5.194  19.761  0.00  0.00    +0.000 NA
ATOM     18  O   UNL     1       6.196   5.001  19.390  0.00  0.00    +0.000 OA
ATOM     19  C   UNL     1       6.265   4.804  18.049  0.00  0.00    +0.000 A 
ATOM     20  C   UNL     1       7.422   4.580  17.313  0.00  0.00    +0.000 A 
ATOM     21  C   UNL     1       7.246   4.407  15.936  0.00  0.00    +0.000 A 
ATOM     22  C   UNL     1       5.975   4.459  15.366  0.00  0.00    +0.000 A 
ATOM     23  F   UNL     1       5.847   4.285  14.044  0.00  0.00    +0.000 F 
ATOM     24  C   UNL     1       4.827   4.688  16.130  0.00  0.00    +0.000 A 
ATOM     25  C   UNL     1       4.988   4.864  17.512  0.00  0.00    +0.000 A 
ENDBRANCH  12  16
BRANCH   6  26
ATOM     26  C   UNL     1      -1.629  13.101  22.395  0.00  0.00    +0.000 C 
BRANCH  26  27
ATOM     27  C   UNL     1      -0.717  14.220  22.898  0.00  0.00    +0.000 C 
BRANCH  27  28
ATOM     28  O   UNL     1       0.617  14.041  22.429  0.00  0.00    +0.000 OA
ATOM     29  H   UNL     1       0.514  13.777  21.488  0.00  0.00    +0.000 HD
ENDBRANCH  27  28
ENDBRANCH  26  27
ENDBRANCH   6  26
TORSDOF 4
ENDMDL
MODEL 3
REMARK VINA RESULT:      -7.9      4.126     10.243
REMARK  Name = 
REMARK  4 active torsions:
REMARK  status: ('A' for Active; 'I' for Inactive)
REMARK    1  A    between atoms: C_6  and  C_7
REMARK    2  A    between atoms: C_7  and  C_8
REMARK    3  A    between atoms: C_8  and  O_9
REMARK    4  A    between atoms: C_15  and  C_16
REMARK                            x       y       z     vdW  Elec       q    Type
REMARK                         _______ _______ _______ _____ _____    ______ ____
ROOT
ATOM      1  O   UNL     1       2.282   8.805  17.302  0.00  0.00    +0.000 OA
ATOM      2  C   UNL     1       2.087   8.479  18.471  0.00  0.00    +0.000 C 
ATOM      3  N   UNL     1       2.613   7.362  19.066  0.00  0.00    +0.000 N 
ATOM      4  C   UNL     1       3.474   6.517  18.435  0.00  0.00    +0.000 A 
ATOM      5  N   UNL     1       4.062   6.631  17.277  0.00  0.00    +0.000 NA
ATOM      6  C   UNL     1       4.817   5.496  17.021  0.00  0.00    +0.000 A 
ATOM      7  C   UNL     1       4.799   4.555  18.034  0.00  0.00    +0.000 A 
ATOM      8  S   UNL     1       3.817   5.103  19.327  0.00  0.00    +0.000 S 
ATOM      9  N   UNL     1       1.251   9.234  19.304  0.00  0.00    +0.000 N 
ATOM     10  C   UNL     1       1.170   9.115  20.761  0.00  0.00    +0.000 C 
ATOM     11  C   UNL     1      -0.283   9.192  21.222  0.00  0.00    +0.000 C 
ATOM     12  C   UNL     1      -1.002  10.446  20.701  0.00  0.00    +0.000 C 
ATOM     13  C   UNL     1      -0.791  10.610  19.187  0.00  0.00    +0.000 C 
ATOM     14  C   UNL     1       0.672  10.466  18.770  0.00  0.00    +0.000 C 
ATOM     15  H   UNL     1       2.239   7.010  19.923  0.00  0.00    +0.000 HD
ENDROOT
BRANCH  12  16
ATOM     16  C   UNL     1      -0.663  11.695  21.470  0.00  0.00    +0.000 A 
ATOM     17  N   UNL     1       0.550  12.260  21.388  0.00  0.00    +0.000 NA
ATOM     18  O   UNL     1       0.523  13.358  22.224  0.00  0.00    +0.000 OA
ATOM     19  C   UNL     1      -0.699  13.456  22.806  0.00  0.00    +0.000 A 
ATOM     20  C   UNL     1      -1.099  14.432  23.710  0.00  0.00    +0.000 A 
ATOM     21  C   UNL     1      -2.411  14.326  24.182  0.00  0.00    +0.000 A 
ATOM     22  C   UNL     1      -3.245  13.296  23.750  0.00  0.00    +0.000 A 
ATOM     23  F   UNL     1      -4.497  13.231  24.222  0.00  0.00    +0.000 F 
ATOM     24  C   UNL     1      -2.816  12.325  22.840  0.00  0.00    +0.000 A 
ATOM     25  C   UNL     1      -1.502  12.417  22.359  0.00  0.00    +0.000 A 
ENDBRANCH  12  16
BRANCH   6  26
ATOM     26  C   UNL     1       5.574   5.402  15.732  0.00  0.00    +0.000 C 
BRANCH  26  27
ATOM     27  C   UNL     1       6.552   4.229  15.676  0.00  0.00    +0.000 C 
BRANCH  27  28
ATOM     28  O   UNL     1       7.818   4.592  16.223  0.00  0.00    +0.000 OA
ATOM     29  H   UNL     1       7.648   5.436  16.697  0.00  0.00    +0.000 HD
ENDBRANCH  27  28
ENDBRANCH  26  27
ENDBRANCH   6  26
TORSDOF 4
ENDMDL
MODEL 4
REMARK VINA RESULT:      -7.8      3.985     10.146
REMARK  Name = 
REMARK  4 active torsions:
REMARK  status: ('A' for Active; 'I' for Inactive)
REMARK    1  A    between atoms: C_6  and  C_7
REMARK    2  A    between atoms: C_7  and  C_8
REMARK    3  A    between atoms: C_8  and  O_9
REMARK    4  A    between atoms: C_15  and  C_16
REMARK                            x       y       z     vdW  Elec       q    Type
REMARK                         _______ _______ _______ _____ _____    ______ ____
ROOT
ATOM      1  O   UNL     1       1.238   6.623  20.895  0.00  0.00    +0.000 OA
ATOM      2  C   UNL     1       1.451   7.630  20.223  0.00  0.00    +0.000 C 
ATOM      3  N   UNL     1       2.307   7.689  19.155  0.00  0.00    +0.000 N 
ATOM      4  C   UNL     1       2.975   6.603  18.676  0.00  0.00    +0.000 A 
ATOM      5  N   UNL     1       2.862   5.343  18.993  0.00  0.00    +0.000 NA
ATOM      6  C   UNL     1       3.787   4.597  18.278  0.00  0.00    +0.000 A 
ATOM      7  C   UNL     1       4.562   5.331  17.399  0.00  0.00    +0.000 A 
ATOM      8  S   UNL     1       4.124   6.987  17.474  0.00  0.00    +0.000 S 
ATOM      9  N   UNL     1       0.836   8.851  20.534  0.00  0.00    +0.000 N 
ATOM     10  C   UNL     1       0.784  10.024  19.659  0.00  0.00    +0.000 C 
ATOM     11  C   UNL     1       1.026  11.299  20.462  0.00  0.00    +0.000 C 
ATOM     12  C   UNL     1       0.079  11.429  21.664  0.00  0.00    +0.000 C 
ATOM     13  C   UNL     1       0.062  10.134  22.492  0.00  0.00    +0.000 C 
ATOM     14  C   UNL     1      -0.124   8.882  21.636  0.00  0.00    +0.000 C 
ATOM     15  H   UNL     1       2.630   8.565  18.800  0.00  0.00    +0.000 HD
ENDROOT
BRANCH  12  16
ATOM     16  C   UNL     1      -1.304  11.894  21.292  0.00  0.00    +0.000 A 
ATOM     17  N   UNL     1      -1.648  12.114  20.015  0.00  0.00    +0.000 NA
ATOM     18  O   UNL     1      -2.958  12.545  20.036  0.00  0.00    +0.000 OA
ATOM     19  C   UNL     1      -3.403  12.584  21.318  0.00  0.00    +0.000 A 
ATOM     20  C   UNL     1      -4.672  12.972  21.732  0.00  0.00    +0.000 A 
ATOM     21  C   UNL     1      -4.901  12.935  23.111  0.00  0.00    +0.000 A 
ATOM     22  C   UNL     1      -3.899  12.527  23.992  0.00  0.00    +0.000 A 
ATOM     23  F   UNL     1      -4.159  12.502  25.305  0.00  0.00    +0.000 F 
ATOM     24  C   UNL     1      -2.631  12.143  23.547  0.00  0.00    +0.000 A 
ATOM     25  C   UNL     1      -2.386  12.176  22.166  0.00  0.00    +0.000 A 
ENDBRANCH  12  16
BRANCH   6  26
ATOM     26  C   UNL     1       3.847   3.115  18.492  0.00  0.00    +0.000 C 
BRANCH  26  27
ATOM     27  C   UNL     1       4.055   2.712  19.952  0.00  0.00    +0.000 C 
BRANCH  27  28
ATOM     28  O   UNL     1       5.165   1.826  20.084  0.00  0.00    +0.000 OA
ATOM     29  H   UNL     1       5.593   1.835  19.199  0.00  0.00    +0.000 HD
ENDBRANCH  27  28
ENDBRANCH  26  27
ENDBRANCH   6  26
TORSDOF 4
ENDMDL
MODEL 5
REMARK VINA RESULT:      -7.6      3.792      9.673
REMARK  Name = 
REMARK  4 active torsions:
REMARK  status: ('A' for Active; 'I' for Inactive)
REMARK    1  A    between atoms: C_6  and  C_7
REMARK    2  A    between atoms: C_7  and  C_8
REMARK    3  A    between atoms: C_8  and  O_9
REMARK    4  A    between atoms: C_15  and  C_16
REMARK                            x       y       z     vdW  Elec       q    Type
REMARK                         _______ _______ _______ _____ _____    ______ ____
ROOT
ATOM      1  O   UNL     1       2.622   8.460  17.267  0.00  0.00    +0.000 OA
ATOM      2  C   UNL     1       2.213   8.249  18.407  0.00  0.00    +0.000 C 
ATOM      3  N   UNL     1       2.456   7.106  19.122  0.00  0.00    +0.000 N 
ATOM      4  C   UNL     1       3.242   6.093  18.663  0.00  0.00    +0.000 A 
ATOM      5  N   UNL     1       3.998   6.033  17.602  0.00  0.00    +0.000 NA
ATOM      6  C   UNL     1       4.579   4.778  17.512  0.00  0.00    +0.000 A 
ATOM      7  C   UNL     1       4.262   3.921  18.551  0.00  0.00    +0.000 A 
ATOM      8  S   UNL     1       3.215   4.706  19.658  0.00  0.00    +0.000 S 
ATOM      9  N   UNL     1       1.408   9.182  19.072  0.00  0.00    +0.000 N 
ATOM     10  C   UNL     1       1.104   9.177  20.504  0.00  0.00    +0.000 C 
ATOM     11  C   UNL     1      -0.365   9.516  20.739  0.00  0.00    +0.000 C 
ATOM     12  C   UNL     1      -0.783  10.831  20.063  0.00  0.00    +0.000 C 
ATOM     13  C   UNL     1      -0.338  10.856  18.592  0.00  0.00    +0.000 C 
ATOM     14  C   UNL     1       1.124  10.452  18.405  0.00  0.00    +0.000 C 
ATOM     15  H   UNL     1       1.912   6.876  19.928  0.00  0.00    +0.000 HD
ENDROOT
BRANCH  12  16
ATOM     16  C   UNL     1      -0.351  12.058  20.818  0.00  0.00    +0.000 A 
ATOM     17  N   UNL     1      -0.000  11.998  22.112  0.00  0.00    +0.000 NA
ATOM     18  O   UNL     1       0.314  13.287  22.488  0.00  0.00    +0.000 OA
ATOM     19  C   UNL     1       0.156  14.122  21.429  0.00  0.00    +0.000 A 
ATOM     20  C   UNL     1       0.375  15.494  21.428  0.00  0.00    +0.000 A 
ATOM     21  C   UNL     1       0.141  16.148  20.216  0.00  0.00    +0.000 A 
ATOM     22  C   UNL     1      -0.283  15.441  19.091  0.00  0.00    +0.000 A 
ATOM     23  F   UNL     1      -0.493  16.103  17.946  0.00  0.00    +0.000 F 
ATOM     24  C   UNL     1      -0.498  14.059  19.120  0.00  0.00    +0.000 A 
ATOM     25  C   UNL     1      -0.268  13.389  20.331  0.00  0.00    +0.000 A 
ENDBRANCH  12  16
BRANCH   6  26
ATOM     26  C   UNL     1       5.483   4.477  16.356  0.00  0.00    +0.000 C 
BRANCH  26  27
ATOM     27  C   UNL     1       6.960   4.742  16.643  0.00  0.00    +0.000 C 
BRANCH  27  28
ATOM     28  O   UNL     1       7.444   5.836  15.866  0.00  0.00    +0.000 OA
ATOM     29  H   UNL     1       7.952   5.415  15.138  0.00  0.00    +0.000 HD
ENDBRANCH  27  28
ENDBRANCH  26  27
ENDBRANCH   6  26
TORSDOF 4
ENDMDL
MODEL 6
REMARK VINA RESULT:      -7.5      3.355      9.092
REMARK  Name = 
REMARK  4 active torsions:
REMARK  status: ('A' for Active; 'I' for Inactive)
REMARK    1  A    between atoms: C_6  and  C_7
REMARK    2  A    between atoms: C_7  and  C_8
REMARK    3  A    between atoms: C_8  and  O_9
REMARK    4  A    between atoms: C_15  and  C_16
REMARK                            x       y       z     vdW  Elec       q    Type
REMARK                         _______ _______ _______ _____ _____    ______ ____
ROOT
ATOM      1  O   UNL     1       1.619   6.803  20.871  0.00  0.00    +0.000 OA
ATOM      2  C   UNL     1       1.751   7.602  19.947  0.00  0.00    +0.000 C 
ATOM      3  N   UNL     1       2.572   7.415  18.867  0.00  0.00    +0.000 N 
ATOM      4  C   UNL     1       3.292   6.277  18.666  0.00  0.00    +0.000 A 
ATOM      5  N   UNL     1       3.266   5.144  19.313  0.00  0.00    +0.000 NA
ATOM      6  C   UNL     1       4.214   4.282  18.784  0.00  0.00    +0.000 A 
ATOM      7  C   UNL     1       4.919   4.792  17.709  0.00  0.00    +0.000 A 
ATOM      8  S   UNL     1       4.383   6.382  17.358  0.00  0.00    +0.000 S 
ATOM      9  N   UNL     1       1.072   8.828  19.946  0.00  0.00    +0.000 N 
ATOM     10  C   UNL     1       0.923   9.718  18.793  0.00  0.00    +0.000 C 
ATOM     11  C   UNL     1       1.110  11.173  19.215  0.00  0.00    +0.000 C 
ATOM     12  C   UNL     1       0.189  11.573  20.378  0.00  0.00    +0.000 C 
ATOM     13  C   UNL     1       0.275  10.549  21.521  0.00  0.00    +0.000 C 
ATOM     14  C   UNL     1       0.141   9.105  21.040  0.00  0.00    +0.000 C 
ATOM     15  H   UNL     1       2.832   8.179  18.277  0.00  0.00    +0.000 HD
ENDROOT
BRANCH  12  16
ATOM     16  C   UNL     1      -1.229  11.848  19.955  0.00  0.00    +0.000 A 
ATOM     17  N   UNL     1      -2.028  12.657  20.666  0.00  0.00    +0.000 NA
ATOM     18  O   UNL     1      -3.244  12.669  20.016  0.00  0.00    +0.000 OA
ATOM     19  C   UNL     1      -3.181  11.872  18.919  0.00  0.00    +0.000 A 
ATOM     20  C   UNL     1      -4.215  11.633  18.022  0.00  0.00    +0.000 A 
ATOM     21  C   UNL     1      -3.916  10.769  16.964  0.00  0.00    +0.000 A 
ATOM     22  C   UNL     1      -2.649  10.199  16.842  0.00  0.00    +0.000 A 
ATOM     23  F   UNL     1      -2.401   9.379  15.813  0.00  0.00    +0.000 F 
ATOM     24  C   UNL     1      -1.628  10.455  17.761  0.00  0.00    +0.000 A 
ATOM     25  C   UNL     1      -1.913  11.320  18.828  0.00  0.00    +0.000 A 
ENDBRANCH  12  16
BRANCH   6  26
ATOM     26  C   UNL     1       4.370   2.918  19.384  0.00  0.00    +0.000 C 
BRANCH  26  27
ATOM     27  C   UNL     1       3.606   1.825  18.638  0.00  0.00    +0.000 C 
BRANCH  27  28
ATOM     28  O   UNL     1       4.375   0.627  18.559  0.00  0.00    +0.000 OA
ATOM     29  H   UNL     1       3.707  -0.089  18.479  0.00  0.00    +0.000 HD
ENDBRANCH  27  28
ENDBRANCH  26  27
ENDBRANCH   6  26
TORSDOF 4
ENDMDL
MODEL 7
REMARK VINA RESULT:      -7.4      4.044      9.872
REMARK  Name = 
REMARK  4 active torsions:
REMARK  status: ('A' for Active; 'I' for Inactive)
REMARK    1  A    between atoms: C_6  and  C_7
REMARK    2  A    between atoms: C_7  and  C_8
REMARK    3  A    between atoms: C_8  and  O_9
REMARK    4  A    between atoms: C_15  and  C_16
REMARK                            x       y       z     vdW  Elec       q    Type
REMARK                         _______ _______ _______ _____ _____    ______ ____
ROOT
ATOM      1  O   UNL     1       1.683   6.653  20.804  0.00  0.00    +0.000 OA
ATOM      2  C   UNL     1       1.839   7.492  19.919  0.00  0.00    +0.000 C 
ATOM      3  N   UNL     1       2.645   7.328  18.824  0.00  0.00    +0.000 N 
ATOM      4  C   UNL     1       3.320   6.175  18.561  0.00  0.00    +0.000 A 
ATOM      5  N   UNL     1       3.255   5.013  19.150  0.00  0.00    +0.000 NA
ATOM      6  C   UNL     1       4.167   4.143  18.571  0.00  0.00    +0.000 A 
ATOM      7  C   UNL     1       4.883   4.680  17.516  0.00  0.00    +0.000 A 
ATOM      8  S   UNL     1       4.405   6.304  17.249  0.00  0.00    +0.000 S 
ATOM      9  N   UNL     1       1.207   8.741  19.985  0.00  0.00    +0.000 N 
ATOM     10  C   UNL     1       1.084   9.692  18.879  0.00  0.00    +0.000 C 
ATOM     11  C   UNL     1       1.328  11.115  19.371  0.00  0.00    +0.000 C 
ATOM     12  C   UNL     1       0.431  11.491  20.561  0.00  0.00    +0.000 C 
ATOM     13  C   UNL     1       0.486  10.409  21.651  0.00  0.00    +0.000 C 
ATOM     14  C   UNL     1       0.295   8.997  21.099  0.00  0.00    +0.000 C 
ATOM     15  H   UNL     1       2.929   8.110  18.270  0.00  0.00    +0.000 HD
ENDROOT
BRANCH  12  16
ATOM     16  C   UNL     1      -0.978  11.840  20.164  0.00  0.00    +0.000 A 
ATOM     17  N   UNL     1      -1.349  11.902  18.877  0.00  0.00    +0.000 NA
ATOM     18  O   UNL     1      -2.680  12.263  18.874  0.00  0.00    +0.000 OA
ATOM     19  C   UNL     1      -3.111  12.420  20.151  0.00  0.00    +0.000 A 
ATOM     20  C   UNL     1      -4.393  12.784  20.543  0.00  0.00    +0.000 A 
ATOM     21  C   UNL     1      -4.604  12.887  21.921  0.00  0.00    +0.000 A 
ATOM     22  C   UNL     1      -3.572  12.630  22.824  0.00  0.00    +0.000 A 
ATOM     23  F   UNL     1      -3.815  12.736  24.136  0.00  0.00    +0.000 F 
ATOM     24  C   UNL     1      -2.290  12.267  22.402  0.00  0.00    +0.000 A 
ATOM     25  C   UNL     1      -2.064  12.160  21.021  0.00  0.00    +0.000 A 
ENDBRANCH  12  16
BRANCH   6  26
ATOM     26  C   UNL     1       4.276   2.747  19.101  0.00  0.00    +0.000 C 
BRANCH  26  27
ATOM     27  C   UNL     1       3.336   1.753  18.420  0.00  0.00    +0.000 C 
BRANCH  27  28
ATOM     28  O   UNL     1       2.157   2.404  17.951  0.00  0.00    +0.000 OA
ATOM     29  H   UNL     1       1.695   1.721  17.415  0.00  0.00    +0.000 HD
ENDBRANCH  27  28
ENDBRANCH  26  27
ENDBRANCH   6  26
TORSDOF 4
ENDMDL
MODEL 8
REMARK VINA RESULT:      -7.3      4.063     10.537
REMARK  Name = 
REMARK  4 active torsions:
REMARK  status: ('A' for Active; 'I' for Inactive)
REMARK    1  A    between atoms: C_6  and  C_7
REMARK    2  A    between atoms: C_7  and  C_8
REMARK    3  A    between atoms: C_8  and  O_9
REMARK    4  A    between atoms: C_15  and  C_16
REMARK                            x       y       z     vdW  Elec       q    Type
REMARK                         _______ _______ _______ _____ _____    ______ ____
ROOT
ATOM      1  O   UNL     1       1.154   8.280  21.668  0.00  0.00    +0.000 OA
ATOM      2  C   UNL     1       0.899   8.970  20.683  0.00  0.00    +0.000 C 
ATOM      3  N   UNL     1       1.413   8.760  19.431  0.00  0.00    +0.000 N 
ATOM      4  C   UNL     1       2.223   7.709  19.124  0.00  0.00    +0.000 A 
ATOM      5  N   UNL     1       2.554   6.670  19.840  0.00  0.00    +0.000 NA
ATOM      6  C   UNL     1       3.447   5.880  19.132  0.00  0.00    +0.000 A 
ATOM      7  C   UNL     1       3.740   6.341  17.862  0.00  0.00    +0.000 A 
ATOM      8  S   UNL     1       2.883   7.793  17.553  0.00  0.00    +0.000 S 
ATOM      9  N   UNL     1       0.060  10.088  20.779  0.00  0.00    +0.000 N 
ATOM     10  C   UNL     1      -0.538  10.803  19.650  0.00  0.00    +0.000 C 
ATOM     11  C   UNL     1      -0.477  12.310  19.881  0.00  0.00    +0.000 C 
ATOM     12  C   UNL     1      -1.096  12.727  21.224  0.00  0.00    +0.000 C 
ATOM     13  C   UNL     1      -0.540  11.871  22.373  0.00  0.00    +0.000 C 
ATOM     14  C   UNL     1      -0.568  10.374  22.069  0.00  0.00    +0.000 C 
ATOM     15  H   UNL     1       1.376   9.473  18.731  0.00  0.00    +0.000 HD
ENDROOT
BRANCH  12  16
ATOM     16  C   UNL     1      -2.601  12.762  21.207  0.00  0.00    +0.000 A 
ATOM     17  N   UNL     1      -3.286  12.875  20.059  0.00  0.00    +0.000 NA
ATOM     18  O   UNL     1      -4.621  12.898  20.406  0.00  0.00    +0.000 OA
ATOM     19  C   UNL     1      -4.742  12.798  21.754  0.00  0.00    +0.000 A 
ATOM     20  C   UNL     1      -5.933  12.791  22.470  0.00  0.00    +0.000 A 
ATOM     21  C   UNL     1      -5.810  12.683  23.858  0.00  0.00    +0.000 A 
ATOM     22  C   UNL     1      -4.555  12.587  24.459  0.00  0.00    +0.000 A 
ATOM     23  F   UNL     1      -4.479  12.482  25.792  0.00  0.00    +0.000 F 
ATOM     24  C   UNL     1      -3.372  12.599  23.714  0.00  0.00    +0.000 A 
ATOM     25  C   UNL     1      -3.480  12.708  22.320  0.00  0.00    +0.000 A 
ENDBRANCH  12  16
BRANCH   6  26
ATOM     26  C   UNL     1       3.976   4.632  19.770  0.00  0.00    +0.000 C 
BRANCH  26  27
ATOM     27  C   UNL     1       4.365   3.545  18.769  0.00  0.00    +0.000 C 
BRANCH  27  28
ATOM     28  O   UNL     1       5.158   2.537  19.391  0.00  0.00    +0.000 OA
ATOM     29  H   UNL     1       6.061   2.923  19.431  0.00  0.00    +0.000 HD
ENDBRANCH  27  28
ENDBRANCH  26  27
ENDBRANCH   6  26
TORSDOF 4
ENDMDL
MODEL 9
REMARK VINA RESULT:      -7.3      4.008     10.021
REMARK  Name = 
REMARK  4 active torsions:
REMARK  status: ('A' for Active; 'I' for Inactive)
REMARK    1  A    between atoms: C_6  and  C_7
REMARK    2  A    between atoms: C_7  and  C_8
REMARK    3  A    between atoms: C_8  and  O_9
REMARK    4  A    between atoms: C_15  and  C_16
REMARK                            x       y       z     vdW  Elec       q    Type
REMARK                         _______ _______ _______ _____ _____    ______ ____
ROOT
ATOM      1  O   UNL     1       2.863   8.154  17.481  0.00  0.00    +0.000 OA
ATOM      2  C   UNL     1       2.392   7.932  18.595  0.00  0.00    +0.000 C 
ATOM      3  N   UNL     1       2.589   6.780  19.309  0.00  0.00    +0.000 N 
ATOM      4  C   UNL     1       3.393   5.767  18.882  0.00  0.00    +0.000 A 
ATOM      5  N   UNL     1       4.204   5.715  17.862  0.00  0.00    +0.000 NA
ATOM      6  C   UNL     1       4.782   4.457  17.788  0.00  0.00    +0.000 A 
ATOM      7  C   UNL     1       4.405   3.591  18.799  0.00  0.00    +0.000 A 
ATOM      8  S   UNL     1       3.305   4.370  19.858  0.00  0.00    +0.000 S 
ATOM      9  N   UNL     1       1.557   8.864  19.227  0.00  0.00    +0.000 N 
ATOM     10  C   UNL     1       1.178   8.844  20.641  0.00  0.00    +0.000 C 
ATOM     11  C   UNL     1      -0.300   9.190  20.801  0.00  0.00    +0.000 C 
ATOM     12  C   UNL     1      -0.674  10.515  20.118  0.00  0.00    +0.000 C 
ATOM     13  C   UNL     1      -0.150  10.553  18.674  0.00  0.00    +0.000 C 
ATOM     14  C   UNL     1       1.317  10.143  18.560  0.00  0.00    +0.000 C 
ATOM     15  H   UNL     1       2.001   6.545  20.083  0.00  0.00    +0.000 HD
ENDROOT
BRANCH  12  16
ATOM     16  C   UNL     1      -0.275  11.731  20.910  0.00  0.00    +0.000 A 
ATOM     17  N   UNL     1       1.011  12.073  21.068  0.00  0.00    +0.000 NA
ATOM     18  O   UNL     1       1.017  13.208  21.852  0.00  0.00    +0.000 OA
ATOM     19  C   UNL     1      -0.258  13.550  22.166  0.00  0.00    +0.000 A 
ATOM     20  C   UNL     1      -0.647  14.634  22.943  0.00  0.00    +0.000 A 
ATOM     21  C   UNL     1      -2.024  14.785  23.135  0.00  0.00    +0.000 A 
ATOM     22  C   UNL     1      -2.928  13.888  22.565  0.00  0.00    +0.000 A 
ATOM     23  F   UNL     1      -4.239  14.069  22.768  0.00  0.00    +0.000 F 
ATOM     24  C   UNL     1      -2.509  12.805  21.788  0.00  0.00    +0.000 A 
ATOM     25  C   UNL     1      -1.130  12.640  21.588  0.00  0.00    +0.000 A 
ENDBRANCH  12  16
BRANCH   6  26
ATOM     26  C   UNL     1       5.745   4.163  16.679  0.00  0.00    +0.000 C 
BRANCH  26  27
ATOM     27  C   UNL     1       7.196   4.505  17.015  0.00  0.00    +0.000 C 
BRANCH  27  28
ATOM     28  O   UNL     1       7.344   4.799  18.402  0.00  0.00    +0.000 OA
ATOM     29  H   UNL     1       7.702   5.714  18.423  0.00  0.00    +0.000 HD
ENDBRANCH  27  28
ENDBRANCH  26  27
ENDBRANCH   6  26
TORSDOF 4
ENDMDL
