MODEL 1
REMARK VINA RESULT:      -8.1      0.000      0.000
REMARK  Name = 
REMARK  8 active torsions:
REMARK  status: ('A' for Active; 'I' for Inactive)
REMARK    1  A    between atoms: C_1  and  O_2
REMARK    2  A    between atoms: O_2  and  C_3
REMARK    3  A    between atoms: C_7  and  C_8
REMARK    4  A    between atoms: C_8  and  N_9
REMARK    5  A    between atoms: C_15  and  C_16
REMARK    6  A    between atoms: C_19  and  C_20
REMARK    7  A    between atoms: C_25  and  O_26
REMARK    8  A    between atoms: O_26  and  C_27
REMARK                            x       y       z     vdW  Elec       q    Type
REMARK                         _______ _______ _______ _____ _____    ______ ____
ROOT
ATOM      1  N   UNL     1      -1.545  11.861  20.285  0.00  0.00    +0.000 NA
ATOM      2  C   UNL     1      -1.052  10.497  20.708  0.00  0.00    +0.000 C 
ATOM      3  C   UNL     1      -0.053  10.536  21.882  0.00  0.00    +0.000 C 
ATOM      4  N   UNL     1       1.185  11.292  21.572  0.00  0.00    +0.000 NA
ATOM      5  C   UNL     1       1.016  12.245  20.450  0.00  0.00    +0.000 C 
ATOM      6  C   UNL     1      -0.203  11.948  19.551  0.00  0.00    +0.000 C 
ATOM      7  C   UNL     1      -0.358  10.397  19.260  0.00  0.00    +0.000 C 
ATOM      8  H   UNL     1       1.890  10.610  21.278  0.00  0.00    +0.000 HD
ENDROOT
BRANCH   7   9
ATOM      9  C   UNL     1       0.981   9.432  19.089  0.00  0.00    +0.000 A 
ATOM     10  C   UNL     1       1.811   9.566  17.969  0.00  0.00    +0.000 A 
ATOM     11  C   UNL     1       2.675   8.544  17.545  0.00  0.00    +0.000 A 
ATOM     12  C   UNL     1       2.910   7.382  18.300  0.00  0.00    +0.000 A 
ATOM     13  C   UNL     1       2.311   7.387  19.567  0.00  0.00    +0.000 A 
ATOM     14  C   UNL     1       1.337   8.362  19.936  0.00  0.00    +0.000 A 
BRANCH  12  15
ATOM     15  C   UNL     1       3.715   6.253  17.713  0.00  0.00    +0.000 A 
ATOM     16  C   UNL     1       4.791   6.579  16.844  0.00  0.00    +0.000 A 
ATOM     17  C   UNL     1       5.549   5.626  16.150  0.00  0.00    +0.000 A 
ATOM     18  C   UNL     1       5.276   4.288  16.323  0.00  0.00    +0.000 A 
ATOM     19  C   UNL     1       4.255   3.905  17.200  0.00  0.00    +0.000 A 
ATOM     20  C   UNL     1       3.480   4.870  17.880  0.00  0.00    +0.000 A 
BRANCH  20  21
ATOM     21  O   UNL     1       2.594   4.297  18.764  0.00  0.00    +0.000 OA
ATOM     22  C   UNL     1       1.406   3.761  18.193  0.00  0.00    +0.000 C 
ENDBRANCH  20  21
ENDBRANCH  12  15
ENDBRANCH   7   9
BRANCH   1  23
ATOM     23  C   UNL     1      -1.678  12.877  21.365  0.00  0.00    +0.000 C 
BRANCH  23  28
ATOM     24  C   UNL     1      -5.348  13.318  22.514  0.00  0.00    +0.000 A 
ATOM     25  C   UNL     1      -5.260  12.935  23.854  0.00  0.00    +0.000 A 
ATOM     26  C   UNL     1      -4.039  12.537  24.382  0.00  0.00    +0.000 A 
ATOM     27  C   UNL     1      -2.898  12.514  23.564  0.00  0.00    +0.000 A 
ATOM     28  C   UNL     1      -2.960  12.894  22.203  0.00  0.00    +0.000 A 
ATOM     29  C   UNL     1      -4.194  13.311  21.703  0.00  0.00    +0.000 A 
BRANCH  24  31
ATOM     30  C   UNL     1      -7.585  12.672  22.111  0.00  0.00    +0.000 C 
ATOM     31  O   UNL     1      -6.599  13.699  22.104  0.00  0.00    +0.000 OA
ENDBRANCH  24  31
ENDBRANCH  23  28
ENDBRANCH   1  23
TORSDOF 6
ENDMDL
MODEL 2
REMARK VINA RESULT:      -8.1      1.071      1.175
REMARK  Name = 
REMARK  8 active torsions:
REMARK  status: ('A' for Active; 'I' for Inactive)
REMARK    1  A    between atoms: C_1  and  O_2
REMARK    2  A    between atoms: O_2  and  C_3
REMARK    3  A    between atoms: C_7  and  C_8
REMARK    4  A    between atoms: C_8  and  N_9
REMARK    5  A    between atoms: C_15  and  C_16
REMARK    6  A    between atoms: C_19  and  C_20
REMARK    7  A    between atoms: C_25  and  O_26
REMARK    8  A    between atoms: O_26  and  C_27
REMARK                            x       y       z     vdW  Elec       q    Type
REMARK                         _______ _______ _______ _____ _____    ______ ____
ROOT
ATOM      1  N   UNL     1      -1.752  12.166  20.347  0.00  0.00    +0.000 NA
ATOM      2  C   UNL     1      -1.047  11.000  21.002  0.00  0.00    +0.000 C 
ATOM      3  C   UNL     1       0.183  11.410  21.836  0.00  0.00    +0.000 C 
ATOM      4  N   UNL     1       1.240  12.073  21.035  0.00  0.00    +0.000 NA
ATOM      5  C   UNL     1       0.731  12.648  19.768  0.00  0.00    +0.000 C 
ATOM      6  C   UNL     1      -0.626  12.068  19.314  0.00  0.00    +0.000 C 
ATOM      7  C   UNL     1      -0.692  10.496  19.515  0.00  0.00    +0.000 C 
ATOM      8  H   UNL     1       1.922  11.353  20.781  0.00  0.00    +0.000 HD
ENDROOT
BRANCH   7   9
ATOM      9  C   UNL     1       0.660   9.560  19.300  0.00  0.00    +0.000 A 
ATOM     10  C   UNL     1       1.395   9.641  18.110  0.00  0.00    +0.000 A 
ATOM     11  C   UNL     1       2.255   8.617  17.684  0.00  0.00    +0.000 A 
ATOM     12  C   UNL     1       2.588   7.515  18.491  0.00  0.00    +0.000 A 
ATOM     13  C   UNL     1       2.090   7.588  19.799  0.00  0.00    +0.000 A 
ATOM     14  C   UNL     1       1.117   8.559  20.182  0.00  0.00    +0.000 A 
BRANCH  12  15
ATOM     15  C   UNL     1       3.380   6.372  17.915  0.00  0.00    +0.000 A 
ATOM     16  C   UNL     1       4.639   6.662  17.323  0.00  0.00    +0.000 A 
ATOM     17  C   UNL     1       5.426   5.711  16.660  0.00  0.00    +0.000 A 
ATOM     18  C   UNL     1       4.992   4.407  16.585  0.00  0.00    +0.000 A 
ATOM     19  C   UNL     1       3.779   4.053  17.188  0.00  0.00    +0.000 A 
ATOM     20  C   UNL     1       2.980   5.020  17.836  0.00  0.00    +0.000 A 
BRANCH  20  21
ATOM     21  O   UNL     1       1.879   4.461  18.445  0.00  0.00    +0.000 OA
ATOM     22  C   UNL     1       2.141   3.673  19.600  0.00  0.00    +0.000 C 
ENDBRANCH  20  21
ENDBRANCH  12  15
ENDBRANCH   7   9
BRANCH   1  23
ATOM     23  C   UNL     1      -1.735  13.451  21.099  0.00  0.00    +0.000 C 
BRANCH  23  28
ATOM     24  C   UNL     1      -4.863  13.130  23.355  0.00  0.00    +0.000 A 
ATOM     25  C   UNL     1      -5.034  14.452  23.770  0.00  0.00    +0.000 A 
ATOM     26  C   UNL     1      -4.155  15.434  23.335  0.00  0.00    +0.000 A 
ATOM     27  C   UNL     1      -3.092  15.093  22.484  0.00  0.00    +0.000 A 
ATOM     28  C   UNL     1      -2.894  13.761  22.050  0.00  0.00    +0.000 A 
ATOM     29  C   UNL     1      -3.805  12.798  22.484  0.00  0.00    +0.000 A 
BRANCH  24  31
ATOM     30  C   UNL     1      -7.107  12.772  24.006  0.00  0.00    +0.000 C 
ATOM     31  O   UNL     1      -5.794  12.248  23.840  0.00  0.00    +0.000 OA
ENDBRANCH  24  31
ENDBRANCH  23  28
ENDBRANCH   1  23
TORSDOF 6
ENDMDL
MODEL 3
REMARK VINA RESULT:      -8.0      1.385      1.938
REMARK  Name = 
REMARK  8 active torsions:
REMARK  status: ('A' for Active; 'I' for Inactive)
REMARK    1  A    between atoms: C_1  and  O_2
REMARK    2  A    between atoms: O_2  and  C_3
REMARK    3  A    between atoms: C_7  and  C_8
REMARK    4  A    between atoms: C_8  and  N_9
REMARK    5  A    between atoms: C_15  and  C_16
REMARK    6  A    between atoms: C_19  and  C_20
REMARK    7  A    between atoms: C_25  and  O_26
REMARK    8  A    between atoms: O_26  and  C_27
REMARK                            x       y       z     vdW  Elec       q    Type
REMARK                         _______ _______ _______ _____ _____    ______ ____
ROOT
ATOM      1  N   UNL     1      -1.601  12.139  20.192  0.00  0.00    +0.000 NA
ATOM      2  C   UNL     1      -0.976  10.921  20.832  0.00  0.00    +0.000 C 
ATOM      3  C   UNL     1       0.212  11.248  21.758  0.00  0.00    +0.000 C 
ATOM      4  N   UNL     1       1.338  11.909  21.055  0.00  0.00    +0.000 NA
ATOM      5  C   UNL     1       0.928  12.560  19.788  0.00  0.00    +0.000 C 
ATOM      6  C   UNL     1      -0.416  12.049  19.225  0.00  0.00    +0.000 C 
ATOM      7  C   UNL     1      -0.546  10.473  19.347  0.00  0.00    +0.000 C 
ATOM      8  H   UNL     1       2.011  11.179  20.808  0.00  0.00    +0.000 HD
ENDROOT
BRANCH   7   9
ATOM      9  C   UNL     1       0.786   9.500  19.170  0.00  0.00    +0.000 A 
ATOM     10  C   UNL     1       1.524   9.521  17.979  0.00  0.00    +0.000 A 
ATOM     11  C   UNL     1       2.363   8.464  17.593  0.00  0.00    +0.000 A 
ATOM     12  C   UNL     1       2.670   7.386  18.441  0.00  0.00    +0.000 A 
ATOM     13  C   UNL     1       2.173   7.519  19.745  0.00  0.00    +0.000 A 
ATOM     14  C   UNL     1       1.220   8.523  20.090  0.00  0.00    +0.000 A 
BRANCH  12  15
ATOM     15  C   UNL     1       3.439   6.205  17.910  0.00  0.00    +0.000 A 
ATOM     16  C   UNL     1       4.634   6.457  17.183  0.00  0.00    +0.000 A 
ATOM     17  C   UNL     1       5.384   5.459  16.548  0.00  0.00    +0.000 A 
ATOM     18  C   UNL     1       4.979   4.146  16.638  0.00  0.00    +0.000 A 
ATOM     19  C   UNL     1       3.832   3.833  17.378  0.00  0.00    +0.000 A 
ATOM     20  C   UNL     1       3.068   4.845  17.999  0.00  0.00    +0.000 A 
BRANCH  20  21
ATOM     21  O   UNL     1       2.038   4.331  18.753  0.00  0.00    +0.000 OA
ATOM     22  C   UNL     1       1.521   3.077  18.324  0.00  0.00    +0.000 C 
ENDBRANCH  20  21
ENDBRANCH  12  15
ENDBRANCH   7   9
BRANCH   1  23
ATOM     23  C   UNL     1      -1.589  13.388  21.003  0.00  0.00    +0.000 C 
BRANCH  23  28
ATOM     24  C   UNL     1      -3.145  14.154  24.464  0.00  0.00    +0.000 A 
ATOM     25  C   UNL     1      -4.431  13.637  24.303  0.00  0.00    +0.000 A 
ATOM     26  C   UNL     1      -4.797  13.052  23.098  0.00  0.00    +0.000 A 
ATOM     27  C   UNL     1      -3.873  12.989  22.043  0.00  0.00    +0.000 A 
ATOM     28  C   UNL     1      -2.564  13.509  22.178  0.00  0.00    +0.000 A 
ATOM     29  C   UNL     1      -2.216  14.071  23.406  0.00  0.00    +0.000 A 
BRANCH  24  31
ATOM     30  C   UNL     1      -1.794  15.603  25.753  0.00  0.00    +0.000 C 
ATOM     31  O   UNL     1      -2.893  14.700  25.695  0.00  0.00    +0.000 OA
ENDBRANCH  24  31
ENDBRANCH  23  28
ENDBRANCH   1  23
TORSDOF 6
ENDMDL
MODEL 4
REMARK VINA RESULT:      -8.0      3.659     11.220
REMARK  Name = 
REMARK  8 active torsions:
REMARK  status: ('A' for Active; 'I' for Inactive)
REMARK    1  A    between atoms: C_1  and  O_2
REMARK    2  A    between atoms: O_2  and  C_3
REMARK    3  A    between atoms: C_7  and  C_8
REMARK    4  A    between atoms: C_8  and  N_9
REMARK    5  A    between atoms: C_15  and  C_16
REMARK    6  A    between atoms: C_19  and  C_20
REMARK    7  A    between atoms: C_25  and  O_26
REMARK    8  A    between atoms: O_26  and  C_27
REMARK                            x       y       z     vdW  Elec       q    Type
REMARK                         _______ _______ _______ _____ _____    ______ ____
ROOT
ATOM      1  N   UNL     1       4.907   4.276  16.827  0.00  0.00    +0.000 NA
ATOM      2  C   UNL     1       4.168   5.512  16.367  0.00  0.00    +0.000 C 
ATOM      3  C   UNL     1       5.083   6.732  16.141  0.00  0.00    +0.000 C 
ATOM      4  N   UNL     1       5.794   7.167  17.368  0.00  0.00    +0.000 NA
ATOM      5  C   UNL     1       5.888   6.099  18.392  0.00  0.00    +0.000 C 
ATOM      6  C   UNL     1       4.872   4.953  18.200  0.00  0.00    +0.000 C 
ATOM      7  C   UNL     1       3.437   5.498  17.801  0.00  0.00    +0.000 C 
ATOM      8  H   UNL     1       5.246   7.926  17.782  0.00  0.00    +0.000 HD
ENDROOT
BRANCH   7   9
ATOM      9  C   UNL     1       2.877   6.932  18.416  0.00  0.00    +0.000 A 
ATOM     10  C   UNL     1       2.483   7.021  19.758  0.00  0.00    +0.000 A 
ATOM     11  C   UNL     1       1.624   8.028  20.227  0.00  0.00    +0.000 A 
ATOM     12  C   UNL     1       1.234   9.125  19.439  0.00  0.00    +0.000 A 
ATOM     13  C   UNL     1       1.873   9.196  18.193  0.00  0.00    +0.000 A 
ATOM     14  C   UNL     1       2.638   8.109  17.675  0.00  0.00    +0.000 A 
BRANCH  12  15
ATOM     15  C   UNL     1       0.183  10.078  19.943  0.00  0.00    +0.000 A 
ATOM     16  C   UNL     1      -0.780  10.563  19.016  0.00  0.00    +0.000 A 
ATOM     17  C   UNL     1      -1.743  11.531  19.329  0.00  0.00    +0.000 A 
ATOM     18  C   UNL     1      -1.802  12.040  20.607  0.00  0.00    +0.000 A 
ATOM     19  C   UNL     1      -0.906  11.568  21.574  0.00  0.00    +0.000 A 
ATOM     20  C   UNL     1       0.077  10.608  21.248  0.00  0.00    +0.000 A 
BRANCH  20  21
ATOM     21  O   UNL     1       0.795  10.203  22.350  0.00  0.00    +0.000 OA
ATOM     22  C   UNL     1       0.079   9.433  23.309  0.00  0.00    +0.000 C 
ENDBRANCH  20  21
ENDBRANCH  12  15
ENDBRANCH   7   9
BRANCH   1  23
ATOM     23  C   UNL     1       6.291   4.105  16.304  0.00  0.00    +0.000 C 
BRANCH  23  28
ATOM     24  C   UNL     1       6.050   3.358  12.514  0.00  0.00    +0.000 A 
ATOM     25  C   UNL     1       7.034   4.208  12.007  0.00  0.00    +0.000 A 
ATOM     26  C   UNL     1       7.764   5.014  12.870  0.00  0.00    +0.000 A 
ATOM     27  C   UNL     1       7.505   4.976  14.249  0.00  0.00    +0.000 A 
ATOM     28  C   UNL     1       6.512   4.126  14.789  0.00  0.00    +0.000 A 
ATOM     29  C   UNL     1       5.808   3.311  13.903  0.00  0.00    +0.000 A 
BRANCH  24  31
ATOM     30  C   UNL     1       4.126   3.094  11.168  0.00  0.00    +0.000 C 
ATOM     31  O   UNL     1       5.399   2.604  11.573  0.00  0.00    +0.000 OA
ENDBRANCH  24  31
ENDBRANCH  23  28
ENDBRANCH   1  23
TORSDOF 6
ENDMDL
MODEL 5
REMARK VINA RESULT:      -7.8      1.267      2.062
REMARK  Name = 
REMARK  8 active torsions:
REMARK  status: ('A' for Active; 'I' for Inactive)
REMARK    1  A    between atoms: C_1  and  O_2
REMARK    2  A    between atoms: O_2  and  C_3
REMARK    3  A    between atoms: C_7  and  C_8
REMARK    4  A    between atoms: C_8  and  N_9
REMARK    5  A    between atoms: C_15  and  C_16
REMARK    6  A    between atoms: C_19  and  C_20
REMARK    7  A    between atoms: C_25  and  O_26
REMARK    8  A    between atoms: O_26  and  C_27
REMARK                            x       y       z     vdW  Elec       q    Type
REMARK                         _______ _______ _______ _____ _____    ______ ____
ROOT
ATOM      1  N   UNL     1      -1.292  12.371  20.026  0.00  0.00    +0.000 NA
ATOM      2  C   UNL     1      -0.996  10.970  20.510  0.00  0.00    +0.000 C 
ATOM      3  C   UNL     1      -0.058  10.923  21.732  0.00  0.00    +0.000 C 
ATOM      4  N   UNL     1       1.279  11.509  21.469  0.00  0.00    +0.000 NA
ATOM      5  C   UNL     1       1.285  12.440  20.315  0.00  0.00    +0.000 C 
ATOM      6  C   UNL     1       0.084  12.268  19.362  0.00  0.00    +0.000 C 
ATOM      7  C   UNL     1      -0.250  10.739  19.102  0.00  0.00    +0.000 C 
ATOM      8  H   UNL     1       1.906  10.736  21.230  0.00  0.00    +0.000 HD
ENDROOT
BRANCH   7   9
ATOM      9  C   UNL     1       0.964   9.611  19.027  0.00  0.00    +0.000 A 
ATOM     10  C   UNL     1       1.773   9.517  17.887  0.00  0.00    +0.000 A 
ATOM     11  C   UNL     1       2.501   8.359  17.573  0.00  0.00    +0.000 A 
ATOM     12  C   UNL     1       2.623   7.272  18.456  0.00  0.00    +0.000 A 
ATOM     13  C   UNL     1       2.064   7.493  19.722  0.00  0.00    +0.000 A 
ATOM     14  C   UNL     1       1.219   8.611  19.989  0.00  0.00    +0.000 A 
BRANCH  12  15
ATOM     15  C   UNL     1       3.276   5.996  17.994  0.00  0.00    +0.000 A 
ATOM     16  C   UNL     1       2.454   4.849  17.822  0.00  0.00    +0.000 A 
ATOM     17  C   UNL     1       2.949   3.578  17.500  0.00  0.00    +0.000 A 
ATOM     18  C   UNL     1       4.301   3.407  17.306  0.00  0.00    +0.000 A 
ATOM     19  C   UNL     1       5.154   4.511  17.419  0.00  0.00    +0.000 A 
ATOM     20  C   UNL     1       4.653   5.785  17.765  0.00  0.00    +0.000 A 
BRANCH  20  21
ATOM     21  O   UNL     1       5.630   6.754  17.733  0.00  0.00    +0.000 OA
ATOM     22  C   UNL     1       6.845   6.390  17.089  0.00  0.00    +0.000 C 
ENDBRANCH  20  21
ENDBRANCH  12  15
ENDBRANCH   7   9
BRANCH   1  23
ATOM     23  C   UNL     1      -1.350  13.430  21.071  0.00  0.00    +0.000 C 
BRANCH  23  28
ATOM     24  C   UNL     1      -4.619  13.199  23.130  0.00  0.00    +0.000 A 
ATOM     25  C   UNL     1      -5.220  14.421  22.822  0.00  0.00    +0.000 A 
ATOM     26  C   UNL     1      -4.583  15.310  21.967  0.00  0.00    +0.000 A 
ATOM     27  C   UNL     1      -3.333  14.980  21.421  0.00  0.00    +0.000 A 
ATOM     28  C   UNL     1      -2.701  13.750  21.719  0.00  0.00    +0.000 A 
ATOM     29  C   UNL     1      -3.372  12.866  22.562  0.00  0.00    +0.000 A 
BRANCH  24  31
ATOM     30  C   UNL     1      -6.746  12.630  23.989  0.00  0.00    +0.000 C 
ATOM     31  O   UNL     1      -5.342  12.399  23.976  0.00  0.00    +0.000 OA
ENDBRANCH  24  31
ENDBRANCH  23  28
ENDBRANCH   1  23
TORSDOF 6
ENDMDL
MODEL 6
REMARK VINA RESULT:      -7.8      3.593     11.265
REMARK  Name = 
REMARK  8 active torsions:
REMARK  status: ('A' for Active; 'I' for Inactive)
REMARK    1  A    between atoms: C_1  and  O_2
REMARK    2  A    between atoms: O_2  and  C_3
REMARK    3  A    between atoms: C_7  and  C_8
REMARK    4  A    between atoms: C_8  and  N_9
REMARK    5  A    between atoms: C_15  and  C_16
REMARK    6  A    between atoms: C_19  and  C_20
REMARK    7  A    between atoms: C_25  and  O_26
REMARK    8  A    between atoms: O_26  and  C_27
REMARK                            x       y       z     vdW  Elec       q    Type
REMARK                         _______ _______ _______ _____ _____    ______ ____
ROOT
ATOM      1  N   UNL     1       4.544   4.278  16.648  0.00  0.00    +0.000 NA
ATOM      2  C   UNL     1       4.041   5.688  16.444  0.00  0.00    +0.000 C 
ATOM      3  C   UNL     1       5.138   6.762  16.585  0.00  0.00    +0.000 C 
ATOM      4  N   UNL     1       5.764   6.789  17.929  0.00  0.00    +0.000 NA
ATOM      5  C   UNL     1       5.595   5.517  18.671  0.00  0.00    +0.000 C 
ATOM      6  C   UNL     1       4.454   4.625  18.137  0.00  0.00    +0.000 C 
ATOM      7  C   UNL     1       3.163   5.471  17.775  0.00  0.00    +0.000 C 
ATOM      8  H   UNL     1       5.287   7.515  18.470  0.00  0.00    +0.000 HD
ENDROOT
BRANCH   7   9
ATOM      9  C   UNL     1       2.746   6.802  18.673  0.00  0.00    +0.000 A 
ATOM     10  C   UNL     1       2.495   6.680  20.046  0.00  0.00    +0.000 A 
ATOM     11  C   UNL     1       1.744   7.625  20.763  0.00  0.00    +0.000 A 
ATOM     12  C   UNL     1       1.337   8.851  20.211  0.00  0.00    +0.000 A 
ATOM     13  C   UNL     1       1.849   9.106  18.932  0.00  0.00    +0.000 A 
ATOM     14  C   UNL     1       2.498   8.094  18.164  0.00  0.00    +0.000 A 
BRANCH  12  15
ATOM     15  C   UNL     1       0.395   9.744  20.974  0.00  0.00    +0.000 A 
ATOM     16  C   UNL     1       0.201   9.485  22.358  0.00  0.00    +0.000 A 
ATOM     17  C   UNL     1      -0.723  10.170  23.158  0.00  0.00    +0.000 A 
ATOM     18  C   UNL     1      -1.481  11.177  22.604  0.00  0.00    +0.000 A 
ATOM     19  C   UNL     1      -1.303  11.506  21.255  0.00  0.00    +0.000 A 
ATOM     20  C   UNL     1      -0.385  10.798  20.449  0.00  0.00    +0.000 A 
BRANCH  20  21
ATOM     21  O   UNL     1      -0.285  11.330  19.184  0.00  0.00    +0.000 OA
ATOM     22  C   UNL     1       0.321  12.615  19.097  0.00  0.00    +0.000 C 
ENDBRANCH  20  21
ENDBRANCH  12  15
ENDBRANCH   7   9
BRANCH   1  23
ATOM     23  C   UNL     1       5.939   4.005  16.203  0.00  0.00    +0.000 C 
BRANCH  23  28
ATOM     24  C   UNL     1       5.888   3.378  12.384  0.00  0.00    +0.000 A 
ATOM     25  C   UNL     1       6.952   4.178  11.964  0.00  0.00    +0.000 A 
ATOM     26  C   UNL     1       7.676   4.912  12.894  0.00  0.00    +0.000 A 
ATOM     27  C   UNL     1       7.330   4.854  14.253  0.00  0.00    +0.000 A 
ATOM     28  C   UNL     1       6.254   4.054  14.705  0.00  0.00    +0.000 A 
ATOM     29  C   UNL     1       5.558   3.309  13.753  0.00  0.00    +0.000 A 
BRANCH  24  31
ATOM     30  C   UNL     1       3.936   3.141  11.072  0.00  0.00    +0.000 C 
ATOM     31  O   UNL     1       5.252   2.693  11.383  0.00  0.00    +0.000 OA
ENDBRANCH  24  31
ENDBRANCH  23  28
ENDBRANCH   1  23
TORSDOF 6
ENDMDL
MODEL 7
REMARK VINA RESULT:      -7.8      3.209      4.362
REMARK  Name = 
REMARK  8 active torsions:
REMARK  status: ('A' for Active; 'I' for Inactive)
REMARK    1  A    between atoms: C_1  and  O_2
REMARK    2  A    between atoms: O_2  and  C_3
REMARK    3  A    between atoms: C_7  and  C_8
REMARK    4  A    between atoms: C_8  and  N_9
REMARK    5  A    between atoms: C_15  and  C_16
REMARK    6  A    between atoms: C_19  and  C_20
REMARK    7  A    between atoms: C_25  and  O_26
REMARK    8  A    between atoms: O_26  and  C_27
REMARK                            x       y       z     vdW  Elec       q    Type
REMARK                         _______ _______ _______ _____ _____    ______ ____
ROOT
ATOM      1  N   UNL     1      -0.733  13.143  19.488  0.00  0.00    +0.000 NA
ATOM      2  C   UNL     1      -0.566  11.839  20.233  0.00  0.00    +0.000 C 
ATOM      3  C   UNL     1       0.484  11.901  21.360  0.00  0.00    +0.000 C 
ATOM      4  N   UNL     1       1.848  12.220  20.874  0.00  0.00    +0.000 NA
ATOM      5  C   UNL     1       1.849  12.892  19.553  0.00  0.00    +0.000 C 
ATOM      6  C   UNL     1       0.540  12.710  18.755  0.00  0.00    +0.000 C 
ATOM      7  C   UNL     1      -0.010  11.226  18.853  0.00  0.00    +0.000 C 
ATOM      8  H   UNL     1       2.343  11.333  20.757  0.00  0.00    +0.000 HD
ENDROOT
BRANCH   7   9
ATOM      9  C   UNL     1       1.036   9.941  18.924  0.00  0.00    +0.000 A 
ATOM     10  C   UNL     1       1.851   9.630  17.827  0.00  0.00    +0.000 A 
ATOM     11  C   UNL     1       2.418   8.359  17.645  0.00  0.00    +0.000 A 
ATOM     12  C   UNL     1       2.366   7.353  18.626  0.00  0.00    +0.000 A 
ATOM     13  C   UNL     1       1.814   7.767  19.846  0.00  0.00    +0.000 A 
ATOM     14  C   UNL     1       1.127   9.010  19.980  0.00  0.00    +0.000 A 
BRANCH  12  15
ATOM     15  C   UNL     1       2.846   5.962  18.305  0.00  0.00    +0.000 A 
ATOM     16  C   UNL     1       1.876   4.928  18.203  0.00  0.00    +0.000 A 
ATOM     17  C   UNL     1       2.196   3.577  18.015  0.00  0.00    +0.000 A 
ATOM     18  C   UNL     1       3.515   3.204  17.890  0.00  0.00    +0.000 A 
ATOM     19  C   UNL     1       4.512   4.186  17.939  0.00  0.00    +0.000 A 
ATOM     20  C   UNL     1       4.186   5.544  18.151  0.00  0.00    +0.000 A 
BRANCH  20  21
ATOM     21  O   UNL     1       5.289   6.363  18.072  0.00  0.00    +0.000 OA
ATOM     22  C   UNL     1       5.733   6.681  16.758  0.00  0.00    +0.000 C 
ENDBRANCH  20  21
ENDBRANCH  12  15
ENDBRANCH   7   9
BRANCH   1  23
ATOM     23  C   UNL     1      -0.543  14.386  20.286  0.00  0.00    +0.000 C 
BRANCH  23  28
ATOM     24  C   UNL     1      -0.864  17.569  18.107  0.00  0.00    +0.000 A 
ATOM     25  C   UNL     1      -1.948  18.205  18.715  0.00  0.00    +0.000 A 
ATOM     26  C   UNL     1      -2.571  17.619  19.808  0.00  0.00    +0.000 A 
ATOM     27  C   UNL     1      -2.113  16.385  20.295  0.00  0.00    +0.000 A 
ATOM     28  C   UNL     1      -1.018  15.717  19.696  0.00  0.00    +0.000 A 
ATOM     29  C   UNL     1      -0.397  16.338  18.612  0.00  0.00    +0.000 A 
BRANCH  24  31
ATOM     30  C   UNL     1       1.095  18.196  16.944  0.00  0.00    +0.000 C 
ATOM     31  O   UNL     1      -0.324  18.241  17.042  0.00  0.00    +0.000 OA
ENDBRANCH  24  31
ENDBRANCH  23  28
ENDBRANCH   1  23
TORSDOF 6
ENDMDL
MODEL 8
REMARK VINA RESULT:      -7.8      1.363      1.801
REMARK  Name = 
REMARK  8 active torsions:
REMARK  status: ('A' for Active; 'I' for Inactive)
REMARK    1  A    between atoms: C_1  and  O_2
REMARK    2  A    between atoms: O_2  and  C_3
REMARK    3  A    between atoms: C_7  and  C_8
REMARK    4  A    between atoms: C_8  and  N_9
REMARK    5  A    between atoms: C_15  and  C_16
REMARK    6  A    between atoms: C_19  and  C_20
REMARK    7  A    between atoms: C_25  and  O_26
REMARK    8  A    between atoms: O_26  and  C_27
REMARK                            x       y       z     vdW  Elec       q    Type
REMARK                         _______ _______ _______ _____ _____    ______ ____
ROOT
ATOM      1  N   UNL     1      -0.998  12.343  19.772  0.00  0.00    +0.000 NA
ATOM      2  C   UNL     1      -0.911  10.911  20.247  0.00  0.00    +0.000 C 
ATOM      3  C   UNL     1      -0.198  10.751  21.604  0.00  0.00    +0.000 C 
ATOM      4  N   UNL     1       1.210  11.215  21.585  0.00  0.00    +0.000 NA
ATOM      5  C   UNL     1       1.492  12.165  20.483  0.00  0.00    +0.000 C 
ATOM      6  C   UNL     1       0.455  12.126  19.339  0.00  0.00    +0.000 C 
ATOM      7  C   UNL     1       0.036  10.641  18.974  0.00  0.00    +0.000 C 
ATOM      8  H   UNL     1       1.797  10.392  21.425  0.00  0.00    +0.000 HD
ENDROOT
BRANCH   7   9
ATOM      9  C   UNL     1       1.140   9.406  19.058  0.00  0.00    +0.000 A 
ATOM     10  C   UNL     1       1.955   9.110  17.958  0.00  0.00    +0.000 A 
ATOM     11  C   UNL     1       2.578   7.862  17.795  0.00  0.00    +0.000 A 
ATOM     12  C   UNL     1       2.583   6.876  18.797  0.00  0.00    +0.000 A 
ATOM     13  C   UNL     1       2.026   7.290  20.015  0.00  0.00    +0.000 A 
ATOM     14  C   UNL     1       1.285   8.503  20.132  0.00  0.00    +0.000 A 
BRANCH  12  15
ATOM     15  C   UNL     1       3.122   5.502  18.499  0.00  0.00    +0.000 A 
ATOM     16  C   UNL     1       2.330   4.632  17.700  0.00  0.00    +0.000 A 
ATOM     17  C   UNL     1       2.664   3.297  17.437  0.00  0.00    +0.000 A 
ATOM     18  C   UNL     1       3.834   2.779  17.945  0.00  0.00    +0.000 A 
ATOM     19  C   UNL     1       4.675   3.602  18.702  0.00  0.00    +0.000 A 
ATOM     20  C   UNL     1       4.324   4.941  18.983  0.00  0.00    +0.000 A 
BRANCH  20  21
ATOM     21  O   UNL     1       5.319   5.610  19.658  0.00  0.00    +0.000 OA
ATOM     22  C   UNL     1       6.625   5.501  19.104  0.00  0.00    +0.000 C 
ENDBRANCH  20  21
ENDBRANCH  12  15
ENDBRANCH   7   9
BRANCH   1  23
ATOM     23  C   UNL     1      -1.134  13.380  20.832  0.00  0.00    +0.000 C 
BRANCH  23  28
ATOM     24  C   UNL     1      -4.717  12.973  22.238  0.00  0.00    +0.000 A 
ATOM     25  C   UNL     1      -4.514  13.270  23.587  0.00  0.00    +0.000 A 
ATOM     26  C   UNL     1      -3.242  13.593  24.041  0.00  0.00    +0.000 A 
ATOM     27  C   UNL     1      -2.164  13.614  23.143  0.00  0.00    +0.000 A 
ATOM     28  C   UNL     1      -2.342  13.315  21.772  0.00  0.00    +0.000 A 
ATOM     29  C   UNL     1      -3.633  13.015  21.338  0.00  0.00    +0.000 A 
BRANCH  24  31
ATOM     30  C   UNL     1      -6.187  12.030  20.646  0.00  0.00    +0.000 C 
ATOM     31  O   UNL     1      -6.012  12.677  21.902  0.00  0.00    +0.000 OA
ENDBRANCH  24  31
ENDBRANCH  23  28
ENDBRANCH   1  23
TORSDOF 6
ENDMDL
MODEL 9
REMARK VINA RESULT:      -7.7      1.078      1.779
REMARK  Name = 
REMARK  8 active torsions:
REMARK  status: ('A' for Active; 'I' for Inactive)
REMARK    1  A    between atoms: C_1  and  O_2
REMARK    2  A    between atoms: O_2  and  C_3
REMARK    3  A    between atoms: C_7  and  C_8
REMARK    4  A    between atoms: C_8  and  N_9
REMARK    5  A    between atoms: C_15  and  C_16
REMARK    6  A    between atoms: C_19  and  C_20
REMARK    7  A    between atoms: C_25  and  O_26
REMARK    8  A    between atoms: O_26  and  C_27
REMARK                            x       y       z     vdW  Elec       q    Type
REMARK                         _______ _______ _______ _____ _____    ______ ____
ROOT
ATOM      1  N   UNL     1      -1.399  12.226  20.066  0.00  0.00    +0.000 NA
ATOM      2  C   UNL     1      -1.111  10.795  20.456  0.00  0.00    +0.000 C 
ATOM      3  C   UNL     1      -0.262  10.661  21.736  0.00  0.00    +0.000 C 
ATOM      4  N   UNL     1       1.078  11.284  21.618  0.00  0.00    +0.000 NA
ATOM      5  C   UNL     1       1.150  12.305  20.547  0.00  0.00    +0.000 C 
ATOM      6  C   UNL     1       0.022  12.196  19.497  0.00  0.00    +0.000 C 
ATOM      7  C   UNL     1      -0.262  10.689  19.093  0.00  0.00    +0.000 C 
ATOM      8  H   UNL     1       1.735  10.541  21.364  0.00  0.00    +0.000 HD
ENDROOT
BRANCH   7   9
ATOM      9  C   UNL     1       0.975   9.587  19.016  0.00  0.00    +0.000 A 
ATOM     10  C   UNL     1       1.807   9.535  17.890  0.00  0.00    +0.000 A 
ATOM     11  C   UNL     1       2.565   8.399  17.564  0.00  0.00    +0.000 A 
ATOM     12  C   UNL     1       2.691   7.294  18.424  0.00  0.00    +0.000 A 
ATOM     13  C   UNL     1       2.103   7.474  19.683  0.00  0.00    +0.000 A 
ATOM     14  C   UNL     1       1.231   8.570  19.959  0.00  0.00    +0.000 A 
BRANCH  12  15
ATOM     15  C   UNL     1       3.378   6.043  17.945  0.00  0.00    +0.000 A 
ATOM     16  C   UNL     1       2.599   4.862  17.812  0.00  0.00    +0.000 A 
ATOM     17  C   UNL     1       3.133   3.610  17.479  0.00  0.00    +0.000 A 
ATOM     18  C   UNL     1       4.482   3.493  17.235  0.00  0.00    +0.000 A 
ATOM     19  C   UNL     1       5.293   4.631  17.310  0.00  0.00    +0.000 A 
ATOM     20  C   UNL     1       4.754   5.887  17.667  0.00  0.00    +0.000 A 
BRANCH  20  21
ATOM     21  O   UNL     1       5.688   6.895  17.592  0.00  0.00    +0.000 OA
ATOM     22  C   UNL     1       6.995   6.501  17.190  0.00  0.00    +0.000 C 
ENDBRANCH  20  21
ENDBRANCH  12  15
ENDBRANCH   7   9
BRANCH   1  23
ATOM     23  C   UNL     1      -1.551  13.196  21.186  0.00  0.00    +0.000 C 
BRANCH  23  28
ATOM     24  C   UNL     1      -5.216  13.581  22.368  0.00  0.00    +0.000 A 
ATOM     25  C   UNL     1      -5.135  13.083  23.670  0.00  0.00    +0.000 A 
ATOM     26  C   UNL     1      -3.920  12.627  24.162  0.00  0.00    +0.000 A 
ATOM     27  C   UNL     1      -2.778  12.660  23.346  0.00  0.00    +0.000 A 
ATOM     28  C   UNL     1      -2.834  13.156  22.022  0.00  0.00    +0.000 A 
ATOM     29  C   UNL     1      -4.062  13.629  21.560  0.00  0.00    +0.000 A 
BRANCH  24  31
ATOM     30  C   UNL     1      -6.539  15.363  21.555  0.00  0.00    +0.000 C 
ATOM     31  O   UNL     1      -6.462  14.011  21.992  0.00  0.00    +0.000 OA
ENDBRANCH  24  31
ENDBRANCH  23  28
ENDBRANCH   1  23
TORSDOF 6
ENDMDL
