MODEL 1
REMARK VINA RESULT:      -6.0      0.000      0.000
REMARK  Name = 
REMARK  9 active torsions:
REMARK  status: ('A' for Active; 'I' for Inactive)
REMARK    1  A    between atoms: C_2  and  O_3
REMARK    2  A    between atoms: C_2  and  C_4
REMARK    3  A    between atoms: C_4  and  C_5
REMARK    4  A    between atoms: C_5  and  C_6
REMARK    5  A    between atoms: C_6  and  C_7
REMARK    6  A    between atoms: C_7  and  N_8
REMARK    7  A    between atoms: C_9  and  O_11
REMARK    8  A    between atoms: O_11  and  C_12
REMARK    9  A    between atoms: C_12  and  C_13
REMARK                            x       y       z     vdW  Elec       q    Type
REMARK                         _______ _______ _______ _____ _____    ______ ____
ROOT
ATOM      1  N   UNL     1       5.843   3.823  19.044  0.00  0.00    +0.000 N 
ATOM      2  C   UNL     1       4.638   3.202  18.899  0.00  0.00    +0.000 C 
ATOM      3  O   UNL     1       4.367   2.185  19.526  0.00  0.00    +0.000 OA
ATOM      4  H   UNL     1       6.494   3.259  19.573  0.00  0.00    +0.000 HD
ENDROOT
BRANCH   1   5
ATOM      5  C   UNL     1       5.962   5.252  19.204  0.00  0.00    +0.000 C 
BRANCH   5   6
ATOM      6  C   UNL     1       6.903   5.865  18.173  0.00  0.00    +0.000 C 
BRANCH   6   7
ATOM      7  C   UNL     1       6.138   6.738  17.173  0.00  0.00    +0.000 C 
BRANCH   7   8
ATOM      8  C   UNL     1       5.584   5.947  15.990  0.00  0.00    +0.000 C 
BRANCH   8  10
ATOM      9  O   UNL     1       7.554   5.152  14.813  0.00  0.00    +0.000 OA
ATOM     10  C   UNL     1       6.555   4.915  15.466  0.00  0.00    +0.000 C 
BRANCH  10  11
ATOM     11  O   UNL     1       6.226   3.643  15.836  0.00  0.00    +0.000 OA
ATOM     12  H   UNL     1       6.663   3.351  16.660  0.00  0.00    +0.000 HD
ENDBRANCH  10  11
ENDBRANCH   8  10
ENDBRANCH   7   8
ENDBRANCH   6   7
ENDBRANCH   5   6
ENDBRANCH   1   5
BRANCH   2  13
ATOM     13  O   UNL     1       3.900   3.744  17.906  0.00  0.00    +0.000 OA
BRANCH  13  14
ATOM     14  C   UNL     1       2.518   3.918  18.239  0.00  0.00    +0.000 C 
BRANCH  14  15
ATOM     15  C   UNL     1       2.306   5.274  18.849  0.00  0.00    +0.000 A 
ATOM     16  C   UNL     1       2.558   6.436  18.111  0.00  0.00    +0.000 A 
ATOM     17  C   UNL     1       2.357   7.690  18.687  0.00  0.00    +0.000 A 
ATOM     18  C   UNL     1       1.910   7.791  20.003  0.00  0.00    +0.000 A 
ATOM     19  C   UNL     1       1.672   6.638  20.751  0.00  0.00    +0.000 A 
ATOM     20  C   UNL     1       1.872   5.384  20.177  0.00  0.00    +0.000 A 
ENDBRANCH  14  15
ENDBRANCH  13  14
ENDBRANCH   2  13
TORSDOF 9
ENDMDL
MODEL 2
REMARK VINA RESULT:      -6.0      2.092      3.042
REMARK  Name = 
REMARK  9 active torsions:
REMARK  status: ('A' for Active; 'I' for Inactive)
REMARK    1  A    between atoms: C_2  and  O_3
REMARK    2  A    between atoms: C_2  and  C_4
REMARK    3  A    between atoms: C_4  and  C_5
REMARK    4  A    between atoms: C_5  and  C_6
REMARK    5  A    between atoms: C_6  and  C_7
REMARK    6  A    between atoms: C_7  and  N_8
REMARK    7  A    between atoms: C_9  and  O_11
REMARK    8  A    between atoms: O_11  and  C_12
REMARK    9  A    between atoms: C_12  and  C_13
REMARK                            x       y       z     vdW  Elec       q    Type
REMARK                         _______ _______ _______ _____ _____    ______ ____
ROOT
ATOM      1  N   UNL     1       6.200   4.198  17.407  0.00  0.00    +0.000 N 
ATOM      2  C   UNL     1       5.540   4.494  18.562  0.00  0.00    +0.000 C 
ATOM      3  O   UNL     1       5.621   3.769  19.545  0.00  0.00    +0.000 OA
ATOM      4  H   UNL     1       6.592   3.266  17.427  0.00  0.00    +0.000 HD
ENDROOT
BRANCH   1   5
ATOM      5  C   UNL     1       6.947   5.187  16.667  0.00  0.00    +0.000 C 
BRANCH   5   6
ATOM      6  C   UNL     1       7.069   4.821  15.191  0.00  0.00    +0.000 C 
BRANCH   6   7
ATOM      7  C   UNL     1       6.035   3.762  14.795  0.00  0.00    +0.000 C 
BRANCH   7   8
ATOM      8  C   UNL     1       5.452   3.986  13.402  0.00  0.00    +0.000 C 
BRANCH   8  10
ATOM      9  O   UNL     1       7.243   4.166  11.773  0.00  0.00    +0.000 OA
ATOM     10  C   UNL     1       6.366   3.508  12.298  0.00  0.00    +0.000 C 
BRANCH  10  11
ATOM     11  O   UNL     1       6.140   2.207  11.952  0.00  0.00    +0.000 OA
ATOM     12  H   UNL     1       5.988   2.079  10.995  0.00  0.00    +0.000 HD
ENDBRANCH  10  11
ENDBRANCH   8  10
ENDBRANCH   7   8
ENDBRANCH   6   7
ENDBRANCH   5   6
ENDBRANCH   1   5
BRANCH   2  13
ATOM     13  O   UNL     1       4.709   5.550  18.419  0.00  0.00    +0.000 OA
BRANCH  13  14
ATOM     14  C   UNL     1       3.552   5.274  17.622  0.00  0.00    +0.000 C 
BRANCH  14  15
ATOM     15  C   UNL     1       2.538   4.521  18.434  0.00  0.00    +0.000 A 
ATOM     16  C   UNL     1       1.983   3.328  17.954  0.00  0.00    +0.000 A 
ATOM     17  C   UNL     1       1.042   2.637  18.716  0.00  0.00    +0.000 A 
ATOM     18  C   UNL     1       0.646   3.133  19.957  0.00  0.00    +0.000 A 
ATOM     19  C   UNL     1       1.182   4.328  20.435  0.00  0.00    +0.000 A 
ATOM     20  C   UNL     1       2.123   5.021  19.675  0.00  0.00    +0.000 A 
ENDBRANCH  14  15
ENDBRANCH  13  14
ENDBRANCH   2  13
TORSDOF 9
ENDMDL
MODEL 3
REMARK VINA RESULT:      -5.9      2.773      4.228
REMARK  Name = 
REMARK  9 active torsions:
REMARK  status: ('A' for Active; 'I' for Inactive)
REMARK    1  A    between atoms: C_2  and  O_3
REMARK    2  A    between atoms: C_2  and  C_4
REMARK    3  A    between atoms: C_4  and  C_5
REMARK    4  A    between atoms: C_5  and  C_6
REMARK    5  A    between atoms: C_6  and  C_7
REMARK    6  A    between atoms: C_7  and  N_8
REMARK    7  A    between atoms: C_9  and  O_11
REMARK    8  A    between atoms: O_11  and  C_12
REMARK    9  A    between atoms: C_12  and  C_13
REMARK                            x       y       z     vdW  Elec       q    Type
REMARK                         _______ _______ _______ _____ _____    ______ ____
ROOT
ATOM      1  N   UNL     1       7.543   5.620  16.569  0.00  0.00    +0.000 N 
ATOM      2  C   UNL     1       6.624   6.464  17.116  0.00  0.00    +0.000 C 
ATOM      3  O   UNL     1       6.771   7.679  17.074  0.00  0.00    +0.000 OA
ATOM      4  H   UNL     1       8.388   6.107  16.303  0.00  0.00    +0.000 HD
ENDROOT
BRANCH   1   5
ATOM      5  C   UNL     1       7.167   4.497  15.744  0.00  0.00    +0.000 C 
BRANCH   5   6
ATOM      6  C   UNL     1       6.452   4.939  14.472  0.00  0.00    +0.000 C 
BRANCH   6   7
ATOM      7  C   UNL     1       5.713   3.768  13.816  0.00  0.00    +0.000 C 
BRANCH   7   8
ATOM      8  C   UNL     1       6.278   3.395  12.447  0.00  0.00    +0.000 C 
BRANCH   8  10
ATOM      9  O   UNL     1       4.238   2.923  11.218  0.00  0.00    +0.000 OA
ATOM     10  C   UNL     1       5.325   2.560  11.626  0.00  0.00    +0.000 C 
BRANCH  10  11
ATOM     11  O   UNL     1       5.824   1.323  11.334  0.00  0.00    +0.000 OA
ATOM     12  H   UNL     1       6.485   1.006  11.980  0.00  0.00    +0.000 HD
ENDBRANCH  10  11
ENDBRANCH   8  10
ENDBRANCH   7   8
ENDBRANCH   6   7
ENDBRANCH   5   6
ENDBRANCH   1   5
BRANCH   2  13
ATOM     13  O   UNL     1       5.670   5.803  17.809  0.00  0.00    +0.000 OA
BRANCH  13  14
ATOM     14  C   UNL     1       4.338   6.058  17.351  0.00  0.00    +0.000 C 
BRANCH  14  15
ATOM     15  C   UNL     1       3.462   4.873  17.639  0.00  0.00    +0.000 A 
ATOM     16  C   UNL     1       3.909   3.574  17.370  0.00  0.00    +0.000 A 
ATOM     17  C   UNL     1       3.087   2.480  17.642  0.00  0.00    +0.000 A 
ATOM     18  C   UNL     1       1.816   2.677  18.177  0.00  0.00    +0.000 A 
ATOM     19  C   UNL     1       1.357   3.968  18.433  0.00  0.00    +0.000 A 
ATOM     20  C   UNL     1       2.176   5.063  18.162  0.00  0.00    +0.000 A 
ENDBRANCH  14  15
ENDBRANCH  13  14
ENDBRANCH   2  13
TORSDOF 9
ENDMDL
MODEL 4
REMARK VINA RESULT:      -5.8      2.029      3.151
REMARK  Name = 
REMARK  9 active torsions:
REMARK  status: ('A' for Active; 'I' for Inactive)
REMARK    1  A    between atoms: C_2  and  O_3
REMARK    2  A    between atoms: C_2  and  C_4
REMARK    3  A    between atoms: C_4  and  C_5
REMARK    4  A    between atoms: C_5  and  C_6
REMARK    5  A    between atoms: C_6  and  C_7
REMARK    6  A    between atoms: C_7  and  N_8
REMARK    7  A    between atoms: C_9  and  O_11
REMARK    8  A    between atoms: O_11  and  C_12
REMARK    9  A    between atoms: C_12  and  C_13
REMARK                            x       y       z     vdW  Elec       q    Type
REMARK                         _______ _______ _______ _____ _____    ______ ____
ROOT
ATOM      1  N   UNL     1       5.487   3.708  16.272  0.00  0.00    +0.000 N 
ATOM      2  C   UNL     1       4.637   3.731  17.337  0.00  0.00    +0.000 C 
ATOM      3  O   UNL     1       5.002   3.379  18.452  0.00  0.00    +0.000 OA
ATOM      4  H   UNL     1       6.347   3.223  16.490  0.00  0.00    +0.000 HD
ENDROOT
BRANCH   1   5
ATOM      5  C   UNL     1       5.593   4.807  15.342  0.00  0.00    +0.000 C 
BRANCH   5   6
ATOM      6  C   UNL     1       5.799   6.139  16.055  0.00  0.00    +0.000 C 
BRANCH   6   7
ATOM      7  C   UNL     1       7.235   6.272  16.575  0.00  0.00    +0.000 C 
BRANCH   7   8
ATOM      8  C   UNL     1       7.303   6.619  18.061  0.00  0.00    +0.000 C 
BRANCH   8  10
ATOM      9  O   UNL     1       7.658   5.423  20.144  0.00  0.00    +0.000 OA
ATOM     10  C   UNL     1       7.639   5.428  18.927  0.00  0.00    +0.000 C 
BRANCH  10  11
ATOM     11  O   UNL     1       7.894   4.301  18.201  0.00  0.00    +0.000 OA
ATOM     12  H   UNL     1       8.070   3.513  18.753  0.00  0.00    +0.000 HD
ENDBRANCH  10  11
ENDBRANCH   8  10
ENDBRANCH   7   8
ENDBRANCH   6   7
ENDBRANCH   5   6
ENDBRANCH   1   5
BRANCH   2  13
ATOM     13  O   UNL     1       3.369   4.025  16.972  0.00  0.00    +0.000 OA
BRANCH  13  14
ATOM     14  C   UNL     1       2.719   4.964  17.837  0.00  0.00    +0.000 C 
BRANCH  14  15
ATOM     15  C   UNL     1       2.190   4.258  19.052  0.00  0.00    +0.000 A 
ATOM     16  C   UNL     1       2.603   4.640  20.335  0.00  0.00    +0.000 A 
ATOM     17  C   UNL     1       2.104   3.978  21.457  0.00  0.00    +0.000 A 
ATOM     18  C   UNL     1       1.198   2.930  21.306  0.00  0.00    +0.000 A 
ATOM     19  C   UNL     1       0.794   2.534  20.032  0.00  0.00    +0.000 A 
ATOM     20  C   UNL     1       1.291   3.193  18.908  0.00  0.00    +0.000 A 
ENDBRANCH  14  15
ENDBRANCH  13  14
ENDBRANCH   2  13
TORSDOF 9
ENDMDL
MODEL 5
REMARK VINA RESULT:      -5.7      2.323      3.443
REMARK  Name = 
REMARK  9 active torsions:
REMARK  status: ('A' for Active; 'I' for Inactive)
REMARK    1  A    between atoms: C_2  and  O_3
REMARK    2  A    between atoms: C_2  and  C_4
REMARK    3  A    between atoms: C_4  and  C_5
REMARK    4  A    between atoms: C_5  and  C_6
REMARK    5  A    between atoms: C_6  and  C_7
REMARK    6  A    between atoms: C_7  and  N_8
REMARK    7  A    between atoms: C_9  and  O_11
REMARK    8  A    between atoms: O_11  and  C_12
REMARK    9  A    between atoms: C_12  and  C_13
REMARK                            x       y       z     vdW  Elec       q    Type
REMARK                         _______ _______ _______ _____ _____    ______ ____
ROOT
ATOM      1  N   UNL     1       5.032   5.372  17.003  0.00  0.00    +0.000 N 
ATOM      2  C   UNL     1       4.809   4.107  16.548  0.00  0.00    +0.000 C 
ATOM      3  O   UNL     1       5.598   3.554  15.793  0.00  0.00    +0.000 OA
ATOM      4  H   UNL     1       5.799   5.816  16.517  0.00  0.00    +0.000 HD
ENDROOT
BRANCH   1   5
ATOM      5  C   UNL     1       4.859   5.738  18.389  0.00  0.00    +0.000 C 
BRANCH   5   6
ATOM      6  C   UNL     1       5.998   5.221  19.260  0.00  0.00    +0.000 C 
BRANCH   6   7
ATOM      7  C   UNL     1       7.347   5.351  18.544  0.00  0.00    +0.000 C 
BRANCH   7   8
ATOM      8  C   UNL     1       8.058   6.669  18.841  0.00  0.00    +0.000 C 
BRANCH   8  10
ATOM      9  O   UNL     1       7.236   7.541  16.730  0.00  0.00    +0.000 OA
ATOM     10  C   UNL     1       7.813   7.721  17.785  0.00  0.00    +0.000 C 
BRANCH  10  11
ATOM     11  O   UNL     1       8.278   8.952  18.148  0.00  0.00    +0.000 OA
ATOM     12  H   UNL     1       8.300   9.593  17.410  0.00  0.00    +0.000 HD
ENDBRANCH  10  11
ENDBRANCH   8  10
ENDBRANCH   7   8
ENDBRANCH   6   7
ENDBRANCH   5   6
ENDBRANCH   1   5
BRANCH   2  13
ATOM     13  O   UNL     1       3.588   3.646  16.899  0.00  0.00    +0.000 OA
BRANCH  13  14
ATOM     14  C   UNL     1       3.625   2.490  17.743  0.00  0.00    +0.000 C 
BRANCH  14  15
ATOM     15  C   UNL     1       2.836   2.746  18.995  0.00  0.00    +0.000 A 
ATOM     16  C   UNL     1       1.518   3.215  18.925  0.00  0.00    +0.000 A 
ATOM     17  C   UNL     1       0.795   3.448  20.094  0.00  0.00    +0.000 A 
ATOM     18  C   UNL     1       1.382   3.222  21.337  0.00  0.00    +0.000 A 
ATOM     19  C   UNL     1       2.698   2.769  21.416  0.00  0.00    +0.000 A 
ATOM     20  C   UNL     1       3.424   2.535  20.249  0.00  0.00    +0.000 A 
ENDBRANCH  14  15
ENDBRANCH  13  14
ENDBRANCH   2  13
TORSDOF 9
ENDMDL
MODEL 6
REMARK VINA RESULT:      -5.6      2.207      3.352
REMARK  Name = 
REMARK  9 active torsions:
REMARK  status: ('A' for Active; 'I' for Inactive)
REMARK    1  A    between atoms: C_2  and  O_3
REMARK    2  A    between atoms: C_2  and  C_4
REMARK    3  A    between atoms: C_4  and  C_5
REMARK    4  A    between atoms: C_5  and  C_6
REMARK    5  A    between atoms: C_6  and  C_7
REMARK    6  A    between atoms: C_7  and  N_8
REMARK    7  A    between atoms: C_9  and  O_11
REMARK    8  A    between atoms: O_11  and  C_12
REMARK    9  A    between atoms: C_12  and  C_13
REMARK                            x       y       z     vdW  Elec       q    Type
REMARK                         _______ _______ _______ _____ _____    ______ ____
ROOT
ATOM      1  N   UNL     1       5.985   4.030  18.121  0.00  0.00    +0.000 N 
ATOM      2  C   UNL     1       5.838   5.132  18.909  0.00  0.00    +0.000 C 
ATOM      3  O   UNL     1       6.645   5.397  19.790  0.00  0.00    +0.000 OA
ATOM      4  H   UNL     1       6.709   3.415  18.467  0.00  0.00    +0.000 HD
ENDROOT
BRANCH   1   5
ATOM      5  C   UNL     1       5.820   4.076  16.687  0.00  0.00    +0.000 C 
BRANCH   5   6
ATOM      6  C   UNL     1       6.711   5.133  16.045  0.00  0.00    +0.000 C 
BRANCH   6   7
ATOM      7  C   UNL     1       6.851   4.898  14.537  0.00  0.00    +0.000 C 
BRANCH   7   8
ATOM      8  C   UNL     1       6.131   3.639  14.058  0.00  0.00    +0.000 C 
BRANCH   8  10
ATOM      9  O   UNL     1       4.930   3.405  11.961  0.00  0.00    +0.000 OA
ATOM     10  C   UNL     1       5.975   3.586  12.557  0.00  0.00    +0.000 C 
BRANCH  10  11
ATOM     11  O   UNL     1       7.149   3.805  11.896  0.00  0.00    +0.000 OA
ATOM     12  H   UNL     1       7.743   3.029  11.886  0.00  0.00    +0.000 HD
ENDBRANCH  10  11
ENDBRANCH   8  10
ENDBRANCH   7   8
ENDBRANCH   6   7
ENDBRANCH   5   6
ENDBRANCH   1   5
BRANCH   2  13
ATOM     13  O   UNL     1       4.660   5.759  18.696  0.00  0.00    +0.000 OA
BRANCH  13  14
ATOM     14  C   UNL     1       3.765   5.709  19.813  0.00  0.00    +0.000 C 
BRANCH  14  15
ATOM     15  C   UNL     1       2.700   4.678  19.570  0.00  0.00    +0.000 A 
ATOM     16  C   UNL     1       2.076   4.031  20.644  0.00  0.00    +0.000 A 
ATOM     17  C   UNL     1       1.088   3.076  20.407  0.00  0.00    +0.000 A 
ATOM     18  C   UNL     1       0.722   2.757  19.100  0.00  0.00    +0.000 A 
ATOM     19  C   UNL     1       1.350   3.386  18.026  0.00  0.00    +0.000 A 
ATOM     20  C   UNL     1       2.338   4.341  18.260  0.00  0.00    +0.000 A 
ENDBRANCH  14  15
ENDBRANCH  13  14
ENDBRANCH   2  13
TORSDOF 9
ENDMDL
MODEL 7
REMARK VINA RESULT:      -5.6      0.675      1.379
REMARK  Name = 
REMARK  9 active torsions:
REMARK  status: ('A' for Active; 'I' for Inactive)
REMARK    1  A    between atoms: C_2  and  O_3
REMARK    2  A    between atoms: C_2  and  C_4
REMARK    3  A    between atoms: C_4  and  C_5
REMARK    4  A    between atoms: C_5  and  C_6
REMARK    5  A    between atoms: C_6  and  C_7
REMARK    6  A    between atoms: C_7  and  N_8
REMARK    7  A    between atoms: C_9  and  O_11
REMARK    8  A    between atoms: O_11  and  C_12
REMARK    9  A    between atoms: C_12  and  C_13
REMARK                            x       y       z     vdW  Elec       q    Type
REMARK                         _______ _______ _______ _____ _____    ______ ____
ROOT
ATOM      1  N   UNL     1       5.644   3.733  19.213  0.00  0.00    +0.000 N 
ATOM      2  C   UNL     1       4.475   3.113  18.887  0.00  0.00    +0.000 C 
ATOM      3  O   UNL     1       4.084   2.128  19.501  0.00  0.00    +0.000 OA
ATOM      4  H   UNL     1       6.185   3.190  19.872  0.00  0.00    +0.000 HD
ENDROOT
BRANCH   1   5
ATOM      5  C   UNL     1       5.752   5.168  19.328  0.00  0.00    +0.000 C 
BRANCH   5   6
ATOM      6  C   UNL     1       7.202   5.636  19.269  0.00  0.00    +0.000 C 
BRANCH   6   7
ATOM      7  C   UNL     1       7.462   6.476  18.014  0.00  0.00    +0.000 C 
BRANCH   7   8
ATOM      8  C   UNL     1       6.425   6.249  16.916  0.00  0.00    +0.000 C 
BRANCH   8  10
ATOM      9  O   UNL     1       6.660   5.509  14.615  0.00  0.00    +0.000 OA
ATOM     10  C   UNL     1       6.939   5.380  15.792  0.00  0.00    +0.000 C 
BRANCH  10  11
ATOM     11  O   UNL     1       7.810   4.421  16.222  0.00  0.00    +0.000 OA
ATOM     12  H   UNL     1       8.749   4.682  16.142  0.00  0.00    +0.000 HD
ENDBRANCH  10  11
ENDBRANCH   8  10
ENDBRANCH   7   8
ENDBRANCH   6   7
ENDBRANCH   5   6
ENDBRANCH   1   5
BRANCH   2  13
ATOM     13  O   UNL     1       3.928   3.613  17.757  0.00  0.00    +0.000 OA
BRANCH  13  14
ATOM     14  C   UNL     1       2.532   3.911  17.870  0.00  0.00    +0.000 C 
BRANCH  14  15
ATOM     15  C   UNL     1       2.342   5.193  18.630  0.00  0.00    +0.000 A 
ATOM     16  C   UNL     1       1.924   5.175  19.966  0.00  0.00    +0.000 A 
ATOM     17  C   UNL     1       1.751   6.371  20.662  0.00  0.00    +0.000 A 
ATOM     18  C   UNL     1       1.988   7.590  20.027  0.00  0.00    +0.000 A 
ATOM     19  C   UNL     1       2.389   7.616  18.693  0.00  0.00    +0.000 A 
ATOM     20  C   UNL     1       2.563   6.422  17.995  0.00  0.00    +0.000 A 
ENDBRANCH  14  15
ENDBRANCH  13  14
ENDBRANCH   2  13
TORSDOF 9
ENDMDL
MODEL 8
REMARK VINA RESULT:      -5.6      1.440      2.051
REMARK  Name = 
REMARK  9 active torsions:
REMARK  status: ('A' for Active; 'I' for Inactive)
REMARK    1  A    between atoms: C_2  and  O_3
REMARK    2  A    between atoms: C_2  and  C_4
REMARK    3  A    between atoms: C_4  and  C_5
REMARK    4  A    between atoms: C_5  and  C_6
REMARK    5  A    between atoms: C_6  and  C_7
REMARK    6  A    between atoms: C_7  and  N_8
REMARK    7  A    between atoms: C_9  and  O_11
REMARK    8  A    between atoms: O_11  and  C_12
REMARK    9  A    between atoms: C_12  and  C_13
REMARK                            x       y       z     vdW  Elec       q    Type
REMARK                         _______ _______ _______ _____ _____    ______ ____
ROOT
ATOM      1  N   UNL     1       4.334   2.381  20.139  0.00  0.00    +0.000 N 
ATOM      2  C   UNL     1       3.107   2.514  20.716  0.00  0.00    +0.000 C 
ATOM      3  O   UNL     1       2.972   2.512  21.933  0.00  0.00    +0.000 OA
ATOM      4  H   UNL     1       5.040   2.121  20.814  0.00  0.00    +0.000 HD
ENDROOT
BRANCH   1   5
ATOM      5  C   UNL     1       4.773   3.221  19.050  0.00  0.00    +0.000 C 
BRANCH   5   6
ATOM      6  C   UNL     1       5.282   4.571  19.543  0.00  0.00    +0.000 C 
BRANCH   6   7
ATOM      7  C   UNL     1       5.921   5.372  18.403  0.00  0.00    +0.000 C 
BRANCH   7   8
ATOM      8  C   UNL     1       7.059   4.624  17.711  0.00  0.00    +0.000 C 
BRANCH   8  10
ATOM      9  O   UNL     1       6.452   3.807  15.507  0.00  0.00    +0.000 OA
ATOM     10  C   UNL     1       6.959   4.664  16.205  0.00  0.00    +0.000 C 
BRANCH  10  11
ATOM     11  O   UNL     1       7.473   5.811  15.672  0.00  0.00    +0.000 OA
ATOM     12  H   UNL     1       8.335   5.683  15.228  0.00  0.00    +0.000 HD
ENDBRANCH  10  11
ENDBRANCH   8  10
ENDBRANCH   7   8
ENDBRANCH   6   7
ENDBRANCH   5   6
ENDBRANCH   1   5
BRANCH   2  13
ATOM     13  O   UNL     1       2.108   2.485  19.806  0.00  0.00    +0.000 OA
BRANCH  13  14
ATOM     14  C   UNL     1       1.092   3.469  20.028  0.00  0.00    +0.000 C 
BRANCH  14  15
ATOM     15  C   UNL     1       1.576   4.816  19.572  0.00  0.00    +0.000 A 
ATOM     16  C   UNL     1       1.904   5.039  18.229  0.00  0.00    +0.000 A 
ATOM     17  C   UNL     1       2.351   6.293  17.817  0.00  0.00    +0.000 A 
ATOM     18  C   UNL     1       2.480   7.328  18.741  0.00  0.00    +0.000 A 
ATOM     19  C   UNL     1       2.170   7.110  20.082  0.00  0.00    +0.000 A 
ATOM     20  C   UNL     1       1.723   5.857  20.498  0.00  0.00    +0.000 A 
ENDBRANCH  14  15
ENDBRANCH  13  14
ENDBRANCH   2  13
TORSDOF 9
ENDMDL
MODEL 9
REMARK VINA RESULT:      -5.6      2.320      3.211
REMARK  Name = 
REMARK  9 active torsions:
REMARK  status: ('A' for Active; 'I' for Inactive)
REMARK    1  A    between atoms: C_2  and  O_3
REMARK    2  A    between atoms: C_2  and  C_4
REMARK    3  A    between atoms: C_4  and  C_5
REMARK    4  A    between atoms: C_5  and  C_6
REMARK    5  A    between atoms: C_6  and  C_7
REMARK    6  A    between atoms: C_7  and  N_8
REMARK    7  A    between atoms: C_9  and  O_11
REMARK    8  A    between atoms: O_11  and  C_12
REMARK    9  A    between atoms: C_12  and  C_13
REMARK                            x       y       z     vdW  Elec       q    Type
REMARK                         _______ _______ _______ _____ _____    ______ ____
ROOT
ATOM      1  N   UNL     1       5.659   3.770  18.258  0.00  0.00    +0.000 N 
ATOM      2  C   UNL     1       5.680   4.980  18.885  0.00  0.00    +0.000 C 
ATOM      3  O   UNL     1       6.578   5.278  19.663  0.00  0.00    +0.000 OA
ATOM      4  H   UNL     1       6.348   3.137  18.642  0.00  0.00    +0.000 HD
ENDROOT
BRANCH   1   5
ATOM      5  C   UNL     1       5.384   3.634  16.848  0.00  0.00    +0.000 C 
BRANCH   5   6
ATOM      6  C   UNL     1       6.117   4.684  16.020  0.00  0.00    +0.000 C 
BRANCH   6   7
ATOM      7  C   UNL     1       5.616   4.697  14.572  0.00  0.00    +0.000 C 
BRANCH   7   8
ATOM      8  C   UNL     1       6.570   4.001  13.603  0.00  0.00    +0.000 C 
BRANCH   8  10
ATOM      9  O   UNL     1       4.704   3.521  12.126  0.00  0.00    +0.000 OA
ATOM     10  C   UNL     1       5.853   3.313  12.466  0.00  0.00    +0.000 C 
BRANCH  10  11
ATOM     11  O   UNL     1       6.649   2.427  11.798  0.00  0.00    +0.000 OA
ATOM     12  H   UNL     1       6.612   1.520  12.160  0.00  0.00    +0.000 HD
ENDBRANCH  10  11
ENDBRANCH   8  10
ENDBRANCH   7   8
ENDBRANCH   6   7
ENDBRANCH   5   6
ENDBRANCH   1   5
BRANCH   2  13
ATOM     13  O   UNL     1       4.554   5.691  18.662  0.00  0.00    +0.000 OA
BRANCH  13  14
ATOM     14  C   UNL     1       3.655   5.721  19.776  0.00  0.00    +0.000 C 
BRANCH  14  15
ATOM     15  C   UNL     1       2.598   4.667  19.610  0.00  0.00    +0.000 A 
ATOM     16  C   UNL     1       2.077   4.373  18.344  0.00  0.00    +0.000 A 
ATOM     17  C   UNL     1       1.096   3.392  18.201  0.00  0.00    +0.000 A 
ATOM     18  C   UNL     1       0.627   2.704  19.319  0.00  0.00    +0.000 A 
ATOM     19  C   UNL     1       1.130   3.002  20.585  0.00  0.00    +0.000 A 
ATOM     20  C   UNL     1       2.110   3.982  20.731  0.00  0.00    +0.000 A 
ENDBRANCH  14  15
ENDBRANCH  13  14
ENDBRANCH   2  13
TORSDOF 9
ENDMDL
