MODEL 1
REMARK VINA RESULT:      -7.3      0.000      0.000
REMARK  Name = 
REMARK  6 active torsions:
REMARK  status: ('A' for Active; 'I' for Inactive)
REMARK    1  A    between atoms: C_1  and  C_2
REMARK    2  A    between atoms: C_4  and  C_5
REMARK    3  A    between atoms: C_5  and  N_6
REMARK    4  A    between atoms: C_11  and  O_12
REMARK    5  A    between atoms: O_12  and  C_13
REMARK    6  A    between atoms: C_13  and  C_14
REMARK                            x       y       z     vdW  Elec       q    Type
REMARK                         _______ _______ _______ _____ _____    ______ ____
ROOT
ATOM      1  N   UNL     1       2.154   5.627  18.298  0.00  0.00    +0.000 NA
ATOM      2  C   UNL     1       1.629   4.239  18.174  0.00  0.00    +0.000 C 
ATOM      3  C   UNL     1       2.637   3.062  18.379  0.00  0.00    +0.000 C 
ATOM      4  O   UNL     1       3.965   3.280  17.832  0.00  0.00    +0.000 OA
ATOM      5  C   UNL     1       4.389   4.584  18.216  0.00  0.00    +0.000 C 
ATOM      6  C   UNL     1       5.803   5.088  17.946  0.00  0.00    +0.000 C 
ATOM      7  C   UNL     1       5.661   6.608  17.744  0.00  0.00    +0.000 C 
ATOM      8  C   UNL     1       4.217   6.894  17.327  0.00  0.00    +0.000 C 
ATOM      9  C   UNL     1       3.440   5.603  17.554  0.00  0.00    +0.000 C 
ENDROOT
BRANCH   1  10
ATOM     10  C   UNL     1       2.366   6.140  19.670  0.00  0.00    +0.000 C 
BRANCH  10  14
ATOM     11  C   UNL     1       0.630  10.718  18.720  0.00  0.00    +0.000 C 
ATOM     12  C   UNL     1       1.023   9.506  19.489  0.00  0.00    +0.000 A 
ATOM     13  N   UNL     1       1.689   8.473  19.009  0.00  0.00    +0.000 NA
ATOM     14  C   UNL     1       1.886   7.522  20.014  0.00  0.00    +0.000 A 
ATOM     15  C   UNL     1       1.356   7.876  21.245  0.00  0.00    +0.000 A 
ATOM     16  S   UNL     1       0.582   9.394  21.147  0.00  0.00    +0.000 S 
ENDBRANCH  10  14
ENDBRANCH   1  10
BRANCH   6  17
ATOM     17  O   UNL     1       6.629   4.396  17.032  0.00  0.00    +0.000 OA
BRANCH  17  18
ATOM     18  C   UNL     1       7.472   5.153  16.184  0.00  0.00    +0.000 C 
BRANCH  18  19
ATOM     19  C   UNL     1       7.203   4.762  14.742  0.00  0.00    +0.000 A 
ATOM     20  C   UNL     1       6.220   3.819  14.431  0.00  0.00    +0.000 A 
ATOM     21  C   UNL     1       5.967   3.521  13.093  0.00  0.00    +0.000 A 
ATOM     22  C   UNL     1       6.708   4.156  12.104  0.00  0.00    +0.000 A 
ATOM     23  C   UNL     1       7.675   5.065  12.499  0.00  0.00    +0.000 A 
ATOM     24  N   UNL     1       7.929   5.383  13.787  0.00  0.00    +0.000 NA
ENDBRANCH  18  19
ENDBRANCH  17  18
ENDBRANCH   6  17
TORSDOF 5
ENDMDL
MODEL 2
REMARK VINA RESULT:      -7.2      1.069      1.363
REMARK  Name = 
REMARK  6 active torsions:
REMARK  status: ('A' for Active; 'I' for Inactive)
REMARK    1  A    between atoms: C_1  and  C_2
REMARK    2  A    between atoms: C_4  and  C_5
REMARK    3  A    between atoms: C_5  and  N_6
REMARK    4  A    between atoms: C_11  and  O_12
REMARK    5  A    between atoms: O_12  and  C_13
REMARK    6  A    between atoms: C_13  and  C_14
REMARK                            x       y       z     vdW  Elec       q    Type
REMARK                         _______ _______ _______ _____ _____    ______ ____
ROOT
ATOM      1  N   UNL     1       2.021   5.702  18.941  0.00  0.00    +0.000 NA
ATOM      2  C   UNL     1       1.717   4.281  19.262  0.00  0.00    +0.000 C 
ATOM      3  C   UNL     1       2.924   3.322  19.522  0.00  0.00    +0.000 C 
ATOM      4  O   UNL     1       4.081   3.537  18.670  0.00  0.00    +0.000 OA
ATOM      5  C   UNL     1       4.347   4.937  18.637  0.00  0.00    +0.000 C 
ATOM      6  C   UNL     1       5.590   5.509  17.962  0.00  0.00    +0.000 C 
ATOM      7  C   UNL     1       5.167   6.895  17.442  0.00  0.00    +0.000 C 
ATOM      8  C   UNL     1       3.646   6.895  17.285  0.00  0.00    +0.000 C 
ATOM      9  C   UNL     1       3.142   5.629  17.969  0.00  0.00    +0.000 C 
ENDROOT
BRANCH   1  10
ATOM     10  C   UNL     1       2.384   6.580  20.076  0.00  0.00    +0.000 C 
BRANCH  10  14
ATOM     11  C   UNL     1      -0.134   9.750  22.988  0.00  0.00    +0.000 C 
ATOM     12  C   UNL     1       0.512   9.183  21.774  0.00  0.00    +0.000 A 
ATOM     13  N   UNL     1       0.999   7.962  21.659  0.00  0.00    +0.000 NA
ATOM     14  C   UNL     1       1.525   7.775  20.378  0.00  0.00    +0.000 A 
ATOM     15  C   UNL     1       1.413   8.882  19.550  0.00  0.00    +0.000 A 
ATOM     16  S   UNL     1       0.670  10.175  20.378  0.00  0.00    +0.000 S 
ENDBRANCH  10  14
ENDBRANCH   1  10
BRANCH   6  17
ATOM     17  O   UNL     1       6.344   4.699  17.084  0.00  0.00    +0.000 OA
BRANCH  17  18
ATOM     18  C   UNL     1       7.311   5.323  16.261  0.00  0.00    +0.000 C 
BRANCH  18  19
ATOM     19  C   UNL     1       7.111   4.864  14.828  0.00  0.00    +0.000 A 
ATOM     20  C   UNL     1       6.130   3.920  14.512  0.00  0.00    +0.000 A 
ATOM     21  C   UNL     1       5.944   3.559  13.178  0.00  0.00    +0.000 A 
ATOM     22  C   UNL     1       6.745   4.134  12.200  0.00  0.00    +0.000 A 
ATOM     23  C   UNL     1       7.706   5.048  12.600  0.00  0.00    +0.000 A 
ATOM     24  N   UNL     1       7.897   5.427  13.882  0.00  0.00    +0.000 NA
ENDBRANCH  18  19
ENDBRANCH  17  18
ENDBRANCH   6  17
TORSDOF 5
ENDMDL
MODEL 3
REMARK VINA RESULT:      -7.1      1.349      1.540
REMARK  Name = 
REMARK  6 active torsions:
REMARK  status: ('A' for Active; 'I' for Inactive)
REMARK    1  A    between atoms: C_1  and  C_2
REMARK    2  A    between atoms: C_4  and  C_5
REMARK    3  A    between atoms: C_5  and  N_6
REMARK    4  A    between atoms: C_11  and  O_12
REMARK    5  A    between atoms: O_12  and  C_13
REMARK    6  A    between atoms: C_13  and  C_14
REMARK                            x       y       z     vdW  Elec       q    Type
REMARK                         _______ _______ _______ _____ _____    ______ ____
ROOT
ATOM      1  N   UNL     1       2.174   5.792  18.945  0.00  0.00    +0.000 NA
ATOM      2  C   UNL     1       1.686   4.470  19.426  0.00  0.00    +0.000 C 
ATOM      3  C   UNL     1       2.716   3.531  20.133  0.00  0.00    +0.000 C 
ATOM      4  O   UNL     1       4.052   3.533  19.562  0.00  0.00    +0.000 OA
ATOM      5  C   UNL     1       4.435   4.889  19.349  0.00  0.00    +0.000 C 
ATOM      6  C   UNL     1       5.844   5.272  18.906  0.00  0.00    +0.000 C 
ATOM      7  C   UNL     1       5.670   6.550  18.064  0.00  0.00    +0.000 C 
ATOM      8  C   UNL     1       4.231   6.581  17.547  0.00  0.00    +0.000 C 
ATOM      9  C   UNL     1       3.479   5.490  18.300  0.00  0.00    +0.000 C 
ENDROOT
BRANCH   1  10
ATOM     10  C   UNL     1       2.340   6.854  19.962  0.00  0.00    +0.000 C 
BRANCH  10  14
ATOM     11  C   UNL     1      -0.189  10.851  21.545  0.00  0.00    +0.000 C 
ATOM     12  C   UNL     1       0.538   9.932  20.626  0.00  0.00    +0.000 A 
ATOM     13  N   UNL     1       0.917   8.700  20.911  0.00  0.00    +0.000 NA
ATOM     14  C   UNL     1       1.568   8.134  19.812  0.00  0.00    +0.000 A 
ATOM     15  C   UNL     1       1.658   8.971  18.710  0.00  0.00    +0.000 A 
ATOM     16  S   UNL     1       0.949  10.486  19.051  0.00  0.00    +0.000 S 
ENDBRANCH  10  14
ENDBRANCH   1  10
BRANCH   6  17
ATOM     17  O   UNL     1       6.709   4.281  18.391  0.00  0.00    +0.000 OA
BRANCH  17  18
ATOM     18  C   UNL     1       7.670   4.665  17.427  0.00  0.00    +0.000 C 
BRANCH  18  19
ATOM     19  C   UNL     1       7.083   4.478  16.040  0.00  0.00    +0.000 A 
ATOM     20  C   UNL     1       5.939   3.697  15.850  0.00  0.00    +0.000 A 
ATOM     21  C   UNL     1       5.400   3.587  14.568  0.00  0.00    +0.000 A 
ATOM     22  C   UNL     1       6.019   4.243  13.512  0.00  0.00    +0.000 A 
ATOM     23  C   UNL     1       7.159   4.982  13.784  0.00  0.00    +0.000 A 
ATOM     24  N   UNL     1       7.693   5.118  15.017  0.00  0.00    +0.000 NA
ENDBRANCH  18  19
ENDBRANCH  17  18
ENDBRANCH   6  17
TORSDOF 5
ENDMDL
MODEL 4
REMARK VINA RESULT:      -7.0      0.672      1.029
REMARK  Name = 
REMARK  6 active torsions:
REMARK  status: ('A' for Active; 'I' for Inactive)
REMARK    1  A    between atoms: C_1  and  C_2
REMARK    2  A    between atoms: C_4  and  C_5
REMARK    3  A    between atoms: C_5  and  N_6
REMARK    4  A    between atoms: C_11  and  O_12
REMARK    5  A    between atoms: O_12  and  C_13
REMARK    6  A    between atoms: C_13  and  C_14
REMARK                            x       y       z     vdW  Elec       q    Type
REMARK                         _______ _______ _______ _____ _____    ______ ____
ROOT
ATOM      1  N   UNL     1       2.349   5.749  18.213  0.00  0.00    +0.000 NA
ATOM      2  C   UNL     1       1.806   4.364  18.162  0.00  0.00    +0.000 C 
ATOM      3  C   UNL     1       2.809   3.184  18.375  0.00  0.00    +0.000 C 
ATOM      4  O   UNL     1       4.117   3.365  17.771  0.00  0.00    +0.000 OA
ATOM      5  C   UNL     1       4.569   4.678  18.089  0.00  0.00    +0.000 C 
ATOM      6  C   UNL     1       5.978   5.154  17.748  0.00  0.00    +0.000 C 
ATOM      7  C   UNL     1       5.843   6.667  17.493  0.00  0.00    +0.000 C 
ATOM      8  C   UNL     1       4.389   6.954  17.119  0.00  0.00    +0.000 C 
ATOM      9  C   UNL     1       3.606   5.682  17.424  0.00  0.00    +0.000 C 
ENDROOT
BRANCH   1  10
ATOM     10  C   UNL     1       2.618   6.312  19.555  0.00  0.00    +0.000 C 
BRANCH  10  14
ATOM     11  C   UNL     1       0.555  10.782  18.757  0.00  0.00    +0.000 C 
ATOM     12  C   UNL     1       0.981   9.548  19.473  0.00  0.00    +0.000 A 
ATOM     13  N   UNL     1       1.792   8.623  18.996  0.00  0.00    +0.000 NA
ATOM     14  C   UNL     1       1.972   7.612  19.944  0.00  0.00    +0.000 A 
ATOM     15  C   UNL     1       1.280   7.812  21.129  0.00  0.00    +0.000 A 
ATOM     16  S   UNL     1       0.377   9.258  21.056  0.00  0.00    +0.000 S 
ENDBRANCH  10  14
ENDBRANCH   1  10
BRANCH   6  17
ATOM     17  O   UNL     1       6.762   4.419  16.831  0.00  0.00    +0.000 OA
BRANCH  17  18
ATOM     18  C   UNL     1       7.438   5.125  15.809  0.00  0.00    +0.000 C 
BRANCH  18  19
ATOM     19  C   UNL     1       6.942   4.637  14.459  0.00  0.00    +0.000 A 
ATOM     20  C   UNL     1       7.671   4.899  13.296  0.00  0.00    +0.000 A 
ATOM     21  C   UNL     1       7.210   4.394  12.081  0.00  0.00    +0.000 A 
ATOM     22  C   UNL     1       6.033   3.656  12.054  0.00  0.00    +0.000 A 
ATOM     23  C   UNL     1       5.363   3.457  13.250  0.00  0.00    +0.000 A 
ATOM     24  N   UNL     1       5.795   3.922  14.442  0.00  0.00    +0.000 NA
ENDBRANCH  18  19
ENDBRANCH  17  18
ENDBRANCH   6  17
TORSDOF 5
ENDMDL
MODEL 5
REMARK VINA RESULT:      -6.8      1.081      1.606
REMARK  Name = 
REMARK  6 active torsions:
REMARK  status: ('A' for Active; 'I' for Inactive)
REMARK    1  A    between atoms: C_1  and  C_2
REMARK    2  A    between atoms: C_4  and  C_5
REMARK    3  A    between atoms: C_5  and  N_6
REMARK    4  A    between atoms: C_11  and  O_12
REMARK    5  A    between atoms: O_12  and  C_13
REMARK    6  A    between atoms: C_13  and  C_14
REMARK                            x       y       z     vdW  Elec       q    Type
REMARK                         _______ _______ _______ _____ _____    ______ ____
ROOT
ATOM      1  N   UNL     1       2.360   5.803  18.367  0.00  0.00    +0.000 NA
ATOM      2  C   UNL     1       1.930   4.388  18.538  0.00  0.00    +0.000 C 
ATOM      3  C   UNL     1       3.036   3.325  18.838  0.00  0.00    +0.000 C 
ATOM      4  O   UNL     1       4.288   3.516  18.127  0.00  0.00    +0.000 OA
ATOM      5  C   UNL     1       4.649   4.890  18.235  0.00  0.00    +0.000 C 
ATOM      6  C   UNL     1       5.991   5.417  17.738  0.00  0.00    +0.000 C 
ATOM      7  C   UNL     1       5.719   6.865  17.292  0.00  0.00    +0.000 C 
ATOM      8  C   UNL     1       4.227   6.990  16.984  0.00  0.00    +0.000 C 
ATOM      9  C   UNL     1       3.570   5.719  17.509  0.00  0.00    +0.000 C 
ENDROOT
BRANCH   1  10
ATOM     10  C   UNL     1       2.659   6.564  19.600  0.00  0.00    +0.000 C 
BRANCH  10  14
ATOM     11  C   UNL     1       0.057   9.410  22.763  0.00  0.00    +0.000 C 
ATOM     12  C   UNL     1       0.705   8.957  21.502  0.00  0.00    +0.000 A 
ATOM     13  N   UNL     1       1.243   7.770  21.296  0.00  0.00    +0.000 NA
ATOM     14  C   UNL     1       1.753   7.695  19.997  0.00  0.00    +0.000 A 
ATOM     15  C   UNL     1       1.576   8.848  19.248  0.00  0.00    +0.000 A 
ATOM     16  S   UNL     1       0.791  10.047  20.175  0.00  0.00    +0.000 S 
ENDBRANCH  10  14
ENDBRANCH   1  10
BRANCH   6  17
ATOM     17  O   UNL     1       6.779   4.621  16.876  0.00  0.00    +0.000 OA
BRANCH  17  18
ATOM     18  C   UNL     1       7.451   5.255  15.804  0.00  0.00    +0.000 C 
BRANCH  18  19
ATOM     19  C   UNL     1       6.930   4.695  14.493  0.00  0.00    +0.000 A 
ATOM     20  C   UNL     1       7.644   4.882  13.306  0.00  0.00    +0.000 A 
ATOM     21  C   UNL     1       7.159   4.312  12.128  0.00  0.00    +0.000 A 
ATOM     22  C   UNL     1       5.974   3.588  12.161  0.00  0.00    +0.000 A 
ATOM     23  C   UNL     1       5.320   3.466  13.376  0.00  0.00    +0.000 A 
ATOM     24  N   UNL     1       5.775   3.994  14.533  0.00  0.00    +0.000 NA
ENDBRANCH  18  19
ENDBRANCH  17  18
ENDBRANCH   6  17
TORSDOF 5
ENDMDL
MODEL 6
REMARK VINA RESULT:      -6.6      2.985      7.476
REMARK  Name = 
REMARK  6 active torsions:
REMARK  status: ('A' for Active; 'I' for Inactive)
REMARK    1  A    between atoms: C_1  and  C_2
REMARK    2  A    between atoms: C_4  and  C_5
REMARK    3  A    between atoms: C_5  and  N_6
REMARK    4  A    between atoms: C_11  and  O_12
REMARK    5  A    between atoms: O_12  and  C_13
REMARK    6  A    between atoms: C_13  and  C_14
REMARK                            x       y       z     vdW  Elec       q    Type
REMARK                         _______ _______ _______ _____ _____    ______ ____
ROOT
ATOM      1  N   UNL     1       6.617   5.791  16.572  0.00  0.00    +0.000 NA
ATOM      2  C   UNL     1       7.422   6.538  17.577  0.00  0.00    +0.000 C 
ATOM      3  C   UNL     1       7.475   5.970  19.032  0.00  0.00    +0.000 C 
ATOM      4  O   UNL     1       6.229   5.407  19.523  0.00  0.00    +0.000 OA
ATOM      5  C   UNL     1       5.698   4.563  18.505  0.00  0.00    +0.000 C 
ATOM      6  C   UNL     1       4.473   3.684  18.740  0.00  0.00    +0.000 C 
ATOM      7  C   UNL     1       3.774   3.589  17.371  0.00  0.00    +0.000 C 
ATOM      8  C   UNL     1       4.206   4.796  16.537  0.00  0.00    +0.000 C 
ATOM      9  C   UNL     1       5.361   5.447  17.288  0.00  0.00    +0.000 C 
ENDROOT
BRANCH   1  10
ATOM     10  C   UNL     1       7.229   4.571  15.999  0.00  0.00    +0.000 C 
BRANCH  10  14
ATOM     11  C   UNL     1       5.100   2.972  11.783  0.00  0.00    +0.000 C 
ATOM     12  C   UNL     1       6.053   3.670  12.688  0.00  0.00    +0.000 A 
ATOM     13  N   UNL     1       6.114   3.528  13.998  0.00  0.00    +0.000 NA
ATOM     14  C   UNL     1       7.132   4.332  14.519  0.00  0.00    +0.000 A 
ATOM     15  C   UNL     1       7.821   5.067  13.566  0.00  0.00    +0.000 A 
ATOM     16  S   UNL     1       7.183   4.774  12.010  0.00  0.00    +0.000 S 
ENDBRANCH  10  14
ENDBRANCH   1  10
BRANCH   6  17
ATOM     17  O   UNL     1       3.649   3.918  19.863  0.00  0.00    +0.000 OA
BRANCH  17  18
ATOM     18  C   UNL     1       2.286   4.224  19.642  0.00  0.00    +0.000 C 
BRANCH  18  19
ATOM     19  C   UNL     1       2.083   5.721  19.797  0.00  0.00    +0.000 A 
ATOM     20  C   UNL     1       2.414   6.596  18.759  0.00  0.00    +0.000 A 
ATOM     21  C   UNL     1       2.169   7.959  18.919  0.00  0.00    +0.000 A 
ATOM     22  C   UNL     1       1.618   8.415  20.110  0.00  0.00    +0.000 A 
ATOM     23  C   UNL     1       1.336   7.483  21.095  0.00  0.00    +0.000 A 
ATOM     24  N   UNL     1       1.549   6.156  20.960  0.00  0.00    +0.000 NA
ENDBRANCH  18  19
ENDBRANCH  17  18
ENDBRANCH   6  17
TORSDOF 5
ENDMDL
MODEL 7
REMARK VINA RESULT:      -6.6      3.745      6.123
REMARK  Name = 
REMARK  6 active torsions:
REMARK  status: ('A' for Active; 'I' for Inactive)
REMARK    1  A    between atoms: C_1  and  C_2
REMARK    2  A    between atoms: C_4  and  C_5
REMARK    3  A    between atoms: C_5  and  N_6
REMARK    4  A    between atoms: C_11  and  O_12
REMARK    5  A    between atoms: O_12  and  C_13
REMARK    6  A    between atoms: C_13  and  C_14
REMARK                            x       y       z     vdW  Elec       q    Type
REMARK                         _______ _______ _______ _____ _____    ______ ____
ROOT
ATOM      1  N   UNL     1       4.886   4.661  15.900  0.00  0.00    +0.000 NA
ATOM      2  C   UNL     1       5.629   4.673  14.611  0.00  0.00    +0.000 C 
ATOM      3  C   UNL     1       7.180   4.856  14.669  0.00  0.00    +0.000 C 
ATOM      4  O   UNL     1       7.656   5.792  15.674  0.00  0.00    +0.000 OA
ATOM      5  C   UNL     1       6.980   5.506  16.895  0.00  0.00    +0.000 C 
ATOM      6  C   UNL     1       7.350   6.193  18.205  0.00  0.00    +0.000 C 
ATOM      7  C   UNL     1       6.038   6.270  19.007  0.00  0.00    +0.000 C 
ATOM      8  C   UNL     1       4.876   6.186  18.017  0.00  0.00    +0.000 C 
ATOM      9  C   UNL     1       5.479   5.780  16.678  0.00  0.00    +0.000 C 
ENDROOT
BRANCH   1  10
ATOM     10  C   UNL     1       4.934   3.409  16.688  0.00  0.00    +0.000 C 
BRANCH  10  14
ATOM     11  C   UNL     1       0.562   2.419  18.874  0.00  0.00    +0.000 C 
ATOM     12  C   UNL     1       2.019   2.684  18.722  0.00  0.00    +0.000 A 
ATOM     13  N   UNL     1       2.617   3.084  17.616  0.00  0.00    +0.000 NA
ATOM     14  C   UNL     1       3.988   3.236  17.842  0.00  0.00    +0.000 A 
ATOM     15  C   UNL     1       4.387   2.944  19.138  0.00  0.00    +0.000 A 
ATOM     16  S   UNL     1       3.050   2.452  20.078  0.00  0.00    +0.000 S 
ENDBRANCH  10  14
ENDBRANCH   1  10
BRANCH   6  17
ATOM     17  O   UNL     1       8.154   7.355  18.182  0.00  0.00    +0.000 OA
BRANCH  17  18
ATOM     18  C   UNL     1       7.631   8.521  17.576  0.00  0.00    +0.000 C 
BRANCH  18  19
ATOM     19  C   UNL     1       8.360   9.734  18.123  0.00  0.00    +0.000 A 
ATOM     20  C   UNL     1       9.210   9.617  19.226  0.00  0.00    +0.000 A 
ATOM     21  C   UNL     1       9.901  10.743  19.671  0.00  0.00    +0.000 A 
ATOM     22  C   UNL     1       9.716  11.956  19.019  0.00  0.00    +0.000 A 
ATOM     23  C   UNL     1       8.841  11.989  17.945  0.00  0.00    +0.000 A 
ATOM     24  N   UNL     1       8.172  10.910  17.484  0.00  0.00    +0.000 NA
ENDBRANCH  18  19
ENDBRANCH  17  18
ENDBRANCH   6  17
TORSDOF 5
ENDMDL
MODEL 8
REMARK VINA RESULT:      -6.4      1.405      1.824
REMARK  Name = 
REMARK  6 active torsions:
REMARK  status: ('A' for Active; 'I' for Inactive)
REMARK    1  A    between atoms: C_1  and  C_2
REMARK    2  A    between atoms: C_4  and  C_5
REMARK    3  A    between atoms: C_5  and  N_6
REMARK    4  A    between atoms: C_11  and  O_12
REMARK    5  A    between atoms: O_12  and  C_13
REMARK    6  A    between atoms: C_13  and  C_14
REMARK                            x       y       z     vdW  Elec       q    Type
REMARK                         _______ _______ _______ _____ _____    ______ ____
ROOT
ATOM      1  N   UNL     1       2.052   5.646  19.229  0.00  0.00    +0.000 NA
ATOM      2  C   UNL     1       1.886   4.268  19.766  0.00  0.00    +0.000 C 
ATOM      3  C   UNL     1       3.177   3.416  19.987  0.00  0.00    +0.000 C 
ATOM      4  O   UNL     1       4.205   3.571  18.972  0.00  0.00    +0.000 OA
ATOM      5  C   UNL     1       4.369   4.965  18.725  0.00  0.00    +0.000 C 
ATOM      6  C   UNL     1       5.479   5.503  17.828  0.00  0.00    +0.000 C 
ATOM      7  C   UNL     1       4.903   6.782  17.193  0.00  0.00    +0.000 C 
ATOM      8  C   UNL     1       3.378   6.684  17.236  0.00  0.00    +0.000 C 
ATOM      9  C   UNL     1       3.048   5.499  18.137  0.00  0.00    +0.000 C 
ENDROOT
BRANCH   1  10
ATOM     10  C   UNL     1       2.491   6.687  20.185  0.00  0.00    +0.000 C 
BRANCH  10  14
ATOM     11  C   UNL     1      -0.190   9.824  22.986  0.00  0.00    +0.000 C 
ATOM     12  C   UNL     1       0.504   9.260  21.796  0.00  0.00    +0.000 A 
ATOM     13  N   UNL     1       1.026   8.051  21.712  0.00  0.00    +0.000 NA
ATOM     14  C   UNL     1       1.592   7.862  20.448  0.00  0.00    +0.000 A 
ATOM     15  C   UNL     1       1.473   8.954  19.602  0.00  0.00    +0.000 A 
ATOM     16  S   UNL     1       0.673  10.238  20.392  0.00  0.00    +0.000 S 
ENDBRANCH  10  14
ENDBRANCH   1  10
BRANCH   6  17
ATOM     17  O   UNL     1       6.174   4.621  16.970  0.00  0.00    +0.000 OA
BRANCH  17  18
ATOM     18  C   UNL     1       5.441   3.949  15.963  0.00  0.00    +0.000 C 
BRANCH  18  19
ATOM     19  C   UNL     1       6.120   4.171  14.624  0.00  0.00    +0.000 A 
ATOM     20  C   UNL     1       7.182   5.072  14.505  0.00  0.00    +0.000 A 
ATOM     21  C   UNL     1       7.813   5.215  13.269  0.00  0.00    +0.000 A 
ATOM     22  C   UNL     1       7.363   4.470  12.186  0.00  0.00    +0.000 A 
ATOM     23  C   UNL     1       6.293   3.613  12.386  0.00  0.00    +0.000 A 
ATOM     24  N   UNL     1       5.674   3.445  13.575  0.00  0.00    +0.000 NA
ENDBRANCH  18  19
ENDBRANCH  17  18
ENDBRANCH   6  17
TORSDOF 5
ENDMDL
MODEL 9
REMARK VINA RESULT:      -6.4      2.874      7.468
REMARK  Name = 
REMARK  6 active torsions:
REMARK  status: ('A' for Active; 'I' for Inactive)
REMARK    1  A    between atoms: C_1  and  C_2
REMARK    2  A    between atoms: C_4  and  C_5
REMARK    3  A    between atoms: C_5  and  N_6
REMARK    4  A    between atoms: C_11  and  O_12
REMARK    5  A    between atoms: O_12  and  C_13
REMARK    6  A    between atoms: C_13  and  C_14
REMARK                            x       y       z     vdW  Elec       q    Type
REMARK                         _______ _______ _______ _____ _____    ______ ____
ROOT
ATOM      1  N   UNL     1       6.960   6.062  17.037  0.00  0.00    +0.000 NA
ATOM      2  C   UNL     1       7.813   6.489  18.179  0.00  0.00    +0.000 C 
ATOM      3  C   UNL     1       7.679   5.698  19.521  0.00  0.00    +0.000 C 
ATOM      4  O   UNL     1       6.328   5.291  19.868  0.00  0.00    +0.000 OA
ATOM      5  C   UNL     1       5.729   4.724  18.706  0.00  0.00    +0.000 C 
ATOM      6  C   UNL     1       4.363   4.046  18.749  0.00  0.00    +0.000 C 
ATOM      7  C   UNL     1       3.745   4.291  17.360  0.00  0.00    +0.000 C 
ATOM      8  C   UNL     1       4.423   5.521  16.754  0.00  0.00    +0.000 C 
ATOM      9  C   UNL     1       5.622   5.834  17.642  0.00  0.00    +0.000 C 
ENDROOT
BRANCH   1  10
ATOM     10  C   UNL     1       7.395   4.859  16.291  0.00  0.00    +0.000 C 
BRANCH  10  14
ATOM     11  C   UNL     1       7.859   5.609  11.383  0.00  0.00    +0.000 C 
ATOM     12  C   UNL     1       7.370   5.040  12.668  0.00  0.00    +0.000 A 
ATOM     13  N   UNL     1       7.653   5.502  13.871  0.00  0.00    +0.000 NA
ATOM     14  C   UNL     1       7.018   4.724  14.843  0.00  0.00    +0.000 A 
ATOM     15  C   UNL     1       6.258   3.682  14.332  0.00  0.00    +0.000 A 
ATOM     16  S   UNL     1       6.354   3.653  12.628  0.00  0.00    +0.000 S 
ENDBRANCH  10  14
ENDBRANCH   1  10
BRANCH   6  17
ATOM     17  O   UNL     1       3.521   4.240  19.866  0.00  0.00    +0.000 OA
BRANCH  17  18
ATOM     18  C   UNL     1       2.161   4.557  19.634  0.00  0.00    +0.000 C 
BRANCH  18  19
ATOM     19  C   UNL     1       1.961   6.049  19.824  0.00  0.00    +0.000 A 
ATOM     20  C   UNL     1       2.260   6.945  18.793  0.00  0.00    +0.000 A 
ATOM     21  C   UNL     1       2.017   8.304  18.987  0.00  0.00    +0.000 A 
ATOM     22  C   UNL     1       1.501   8.736  20.202  0.00  0.00    +0.000 A 
ATOM     23  C   UNL     1       1.249   7.785  21.177  0.00  0.00    +0.000 A 
ATOM     24  N   UNL     1       1.460   6.461  21.010  0.00  0.00    +0.000 NA
ENDBRANCH  18  19
ENDBRANCH  17  18
ENDBRANCH   6  17
TORSDOF 5
ENDMDL
