MODEL 1
REMARK VINA RESULT:      -7.1      0.000      0.000
REMARK  Name = 
REMARK  4 active torsions:
REMARK  status: ('A' for Active; 'I' for Inactive)
REMARK    1  A    between atoms: C_2  and  O_3
REMARK    2  A    between atoms: C_2  and  C_4
REMARK    3  A    between atoms: C_9  and  C_10
REMARK    4  A    between atoms: C_10  and  N_11
REMARK                            x       y       z     vdW  Elec       q    Type
REMARK                         _______ _______ _______ _____ _____    ______ ____
ROOT
ATOM      1  C   UNL     1       6.095   5.609  16.424  0.00  0.00    +0.000 A 
ATOM      2  C   UNL     1       5.289   6.696  16.149  0.00  0.00    +0.000 A 
ATOM      3  C   UNL     1       4.313   6.757  17.177  0.00  0.00    +0.000 A 
ATOM      4  C   UNL     1       3.236   7.600  17.488  0.00  0.00    +0.000 A 
ATOM      5  C   UNL     1       2.471   7.325  18.633  0.00  0.00    +0.000 A 
ATOM      6  C   UNL     1       2.761   6.232  19.468  0.00  0.00    +0.000 A 
ATOM      7  C   UNL     1       3.840   5.381  19.160  0.00  0.00    +0.000 A 
ATOM      8  C   UNL     1       4.581   5.684  18.018  0.00  0.00    +0.000 A 
ATOM      9  O   UNL     1       5.662   4.985  17.567  0.00  0.00    +0.000 OA
ENDROOT
BRANCH   1  11
ATOM     10  O   UNL     1       7.577   5.342  14.586  0.00  0.00    +0.000 OA
ATOM     11  C   UNL     1       7.246   5.080  15.733  0.00  0.00    +0.000 C 
BRANCH  11  12
ATOM     12  O   UNL     1       7.948   4.228  16.524  0.00  0.00    +0.000 OA
ATOM     13  H   UNL     1       7.336   3.609  16.975  0.00  0.00    +0.000 HD
ENDBRANCH  11  12
ENDBRANCH   1  11
BRANCH   6  14
ATOM     14  C   UNL     1       1.917   5.969  20.694  0.00  0.00    +0.000 C 
BRANCH  14  15
ATOM     15  N   UNL     1       1.627   4.559  20.869  0.00  0.00    +0.000 N 
ATOM     16  C   UNL     1       2.203   3.713  21.778  0.00  0.00    +0.000 A 
ATOM     17  C   UNL     1       1.721   2.465  21.458  0.00  0.00    +0.000 A 
ATOM     18  N   UNL     1       0.862   2.533  20.392  0.00  0.00    +0.000 NA
ATOM     19  C   UNL     1       0.823   3.805  20.060  0.00  0.00    +0.000 A 
ENDBRANCH  14  15
ENDBRANCH   6  14
TORSDOF 4
ENDMDL
MODEL 2
REMARK VINA RESULT:      -7.0      1.392      2.184
REMARK  Name = 
REMARK  4 active torsions:
REMARK  status: ('A' for Active; 'I' for Inactive)
REMARK    1  A    between atoms: C_2  and  O_3
REMARK    2  A    between atoms: C_2  and  C_4
REMARK    3  A    between atoms: C_9  and  C_10
REMARK    4  A    between atoms: C_10  and  N_11
REMARK                            x       y       z     vdW  Elec       q    Type
REMARK                         _______ _______ _______ _____ _____    ______ ____
ROOT
ATOM      1  C   UNL     1       6.614   4.888  15.144  0.00  0.00    +0.000 A 
ATOM      2  C   UNL     1       7.257   4.698  16.350  0.00  0.00    +0.000 A 
ATOM      3  C   UNL     1       6.302   4.937  17.370  0.00  0.00    +0.000 A 
ATOM      4  C   UNL     1       6.303   4.905  18.774  0.00  0.00    +0.000 A 
ATOM      5  C   UNL     1       5.117   5.218  19.457  0.00  0.00    +0.000 A 
ATOM      6  C   UNL     1       3.938   5.558  18.771  0.00  0.00    +0.000 A 
ATOM      7  C   UNL     1       3.931   5.593  17.364  0.00  0.00    +0.000 A 
ATOM      8  C   UNL     1       5.124   5.275  16.715  0.00  0.00    +0.000 A 
ATOM      9  O   UNL     1       5.307   5.245  15.364  0.00  0.00    +0.000 OA
ENDROOT
BRANCH   1  11
ATOM     10  O   UNL     1       6.654   3.998  12.941  0.00  0.00    +0.000 OA
ATOM     11  C   UNL     1       7.086   4.769  13.786  0.00  0.00    +0.000 C 
BRANCH  11  12
ATOM     12  O   UNL     1       8.098   5.640  13.537  0.00  0.00    +0.000 OA
ATOM     13  H   UNL     1       7.996   6.025  12.642  0.00  0.00    +0.000 HD
ENDBRANCH  11  12
ENDBRANCH   1  11
BRANCH   6  14
ATOM     14  C   UNL     1       2.680   5.886  19.542  0.00  0.00    +0.000 C 
BRANCH  14  15
ATOM     15  N   UNL     1       2.006   4.696  20.025  0.00  0.00    +0.000 N 
ATOM     16  C   UNL     1       2.085   4.168  21.286  0.00  0.00    +0.000 A 
ATOM     17  C   UNL     1       1.406   2.974  21.214  0.00  0.00    +0.000 A 
ATOM     18  N   UNL     1       0.909   2.771  19.953  0.00  0.00    +0.000 NA
ATOM     19  C   UNL     1       1.284   3.824  19.259  0.00  0.00    +0.000 A 
ENDBRANCH  14  15
ENDBRANCH   6  14
TORSDOF 4
ENDMDL
MODEL 3
REMARK VINA RESULT:      -7.0      1.365      1.681
REMARK  Name = 
REMARK  4 active torsions:
REMARK  status: ('A' for Active; 'I' for Inactive)
REMARK    1  A    between atoms: C_2  and  O_3
REMARK    2  A    between atoms: C_2  and  C_4
REMARK    3  A    between atoms: C_9  and  C_10
REMARK    4  A    between atoms: C_10  and  N_11
REMARK                            x       y       z     vdW  Elec       q    Type
REMARK                         _______ _______ _______ _____ _____    ______ ____
ROOT
ATOM      1  C   UNL     1       5.861   5.172  15.354  0.00  0.00    +0.000 A 
ATOM      2  C   UNL     1       5.583   6.399  15.924  0.00  0.00    +0.000 A 
ATOM      3  C   UNL     1       4.485   6.207  16.801  0.00  0.00    +0.000 A 
ATOM      4  C   UNL     1       3.739   7.021  17.667  0.00  0.00    +0.000 A 
ATOM      5  C   UNL     1       2.684   6.446  18.393  0.00  0.00    +0.000 A 
ATOM      6  C   UNL     1       2.363   5.083  18.273  0.00  0.00    +0.000 A 
ATOM      7  C   UNL     1       3.107   4.261  17.404  0.00  0.00    +0.000 A 
ATOM      8  C   UNL     1       4.149   4.863  16.700  0.00  0.00    +0.000 A 
ATOM      9  O   UNL     1       4.982   4.229  15.825  0.00  0.00    +0.000 OA
ENDROOT
BRANCH   1  11
ATOM     10  O   UNL     1       7.882   5.402  14.125  0.00  0.00    +0.000 OA
ATOM     11  C   UNL     1       6.873   4.772  14.406  0.00  0.00    +0.000 C 
BRANCH  11  12
ATOM     12  O   UNL     1       6.573   3.574  13.841  0.00  0.00    +0.000 OA
ATOM     13  H   UNL     1       5.602   3.443  13.831  0.00  0.00    +0.000 HD
ENDBRANCH  11  12
ENDBRANCH   1  11
BRANCH   6  14
ATOM     14  C   UNL     1       1.222   4.499  19.073  0.00  0.00    +0.000 C 
BRANCH  14  15
ATOM     15  N   UNL     1       1.686   3.723  20.207  0.00  0.00    +0.000 N 
ATOM     16  C   UNL     1       1.594   2.366  20.361  0.00  0.00    +0.000 A 
ATOM     17  C   UNL     1       2.024   2.123  21.644  0.00  0.00    +0.000 A 
ATOM     18  N   UNL     1       2.385   3.290  22.266  0.00  0.00    +0.000 NA
ATOM     19  C   UNL     1       2.173   4.236  21.377  0.00  0.00    +0.000 A 
ENDBRANCH  14  15
ENDBRANCH   6  14
TORSDOF 4
ENDMDL
MODEL 4
REMARK VINA RESULT:      -6.9      1.509      2.383
REMARK  Name = 
REMARK  4 active torsions:
REMARK  status: ('A' for Active; 'I' for Inactive)
REMARK    1  A    between atoms: C_2  and  O_3
REMARK    2  A    between atoms: C_2  and  C_4
REMARK    3  A    between atoms: C_9  and  C_10
REMARK    4  A    between atoms: C_10  and  N_11
REMARK                            x       y       z     vdW  Elec       q    Type
REMARK                         _______ _______ _______ _____ _____    ______ ____
ROOT
ATOM      1  C   UNL     1       6.623   4.826  15.049  0.00  0.00    +0.000 A 
ATOM      2  C   UNL     1       7.328   4.736  16.233  0.00  0.00    +0.000 A 
ATOM      3  C   UNL     1       6.403   4.964  17.283  0.00  0.00    +0.000 A 
ATOM      4  C   UNL     1       6.466   5.000  18.685  0.00  0.00    +0.000 A 
ATOM      5  C   UNL     1       5.293   5.271  19.407  0.00  0.00    +0.000 A 
ATOM      6  C   UNL     1       4.067   5.503  18.760  0.00  0.00    +0.000 A 
ATOM      7  C   UNL     1       3.997   5.469  17.355  0.00  0.00    +0.000 A 
ATOM      8  C   UNL     1       5.180   5.195  16.668  0.00  0.00    +0.000 A 
ATOM      9  O   UNL     1       5.306   5.112  15.312  0.00  0.00    +0.000 OA
ENDROOT
BRANCH   1  11
ATOM     10  O   UNL     1       7.770   5.436  13.059  0.00  0.00    +0.000 OA
ATOM     11  C   UNL     1       7.043   4.672  13.678  0.00  0.00    +0.000 C 
BRANCH  11  12
ATOM     12  O   UNL     1       6.526   3.543  13.127  0.00  0.00    +0.000 OA
ATOM     13  H   UNL     1       5.828   3.176  13.709  0.00  0.00    +0.000 HD
ENDBRANCH  11  12
ENDBRANCH   1  11
BRANCH   6  14
ATOM     14  C   UNL     1       2.824   5.788  19.572  0.00  0.00    +0.000 C 
BRANCH  14  15
ATOM     15  N   UNL     1       2.147   4.574  19.986  0.00  0.00    +0.000 N 
ATOM     16  C   UNL     1       1.308   3.806  19.225  0.00  0.00    +0.000 A 
ATOM     17  C   UNL     1       0.803   2.865  20.092  0.00  0.00    +0.000 A 
ATOM     18  N   UNL     1       1.321   3.033  21.349  0.00  0.00    +0.000 NA
ATOM     19  C   UNL     1       2.128   4.068  21.256  0.00  0.00    +0.000 A 
ENDBRANCH  14  15
ENDBRANCH   6  14
TORSDOF 4
ENDMDL
MODEL 5
REMARK VINA RESULT:      -6.8      3.403      6.109
REMARK  Name = 
REMARK  4 active torsions:
REMARK  status: ('A' for Active; 'I' for Inactive)
REMARK    1  A    between atoms: C_2  and  O_3
REMARK    2  A    between atoms: C_2  and  C_4
REMARK    3  A    between atoms: C_9  and  C_10
REMARK    4  A    between atoms: C_10  and  N_11
REMARK                            x       y       z     vdW  Elec       q    Type
REMARK                         _______ _______ _______ _____ _____    ______ ____
ROOT
ATOM      1  C   UNL     1       2.195   4.210  20.578  0.00  0.00    +0.000 A 
ATOM      2  C   UNL     1       1.775   5.525  20.557  0.00  0.00    +0.000 A 
ATOM      3  C   UNL     1       2.446   6.155  19.478  0.00  0.00    +0.000 A 
ATOM      4  C   UNL     1       2.461   7.443  18.921  0.00  0.00    +0.000 A 
ATOM      5  C   UNL     1       3.290   7.692  17.815  0.00  0.00    +0.000 A 
ATOM      6  C   UNL     1       4.098   6.685  17.259  0.00  0.00    +0.000 A 
ATOM      7  C   UNL     1       4.089   5.392  17.814  0.00  0.00    +0.000 A 
ATOM      8  C   UNL     1       3.253   5.178  18.910  0.00  0.00    +0.000 A 
ATOM      9  O   UNL     1       3.104   3.994  19.572  0.00  0.00    +0.000 OA
ENDROOT
BRANCH   1  11
ATOM     10  O   UNL     1       2.547   2.616  22.305  0.00  0.00    +0.000 OA
ATOM     11  C   UNL     1       1.837   3.111  21.442  0.00  0.00    +0.000 C 
BRANCH  11  12
ATOM     12  O   UNL     1       0.578   2.671  21.184  0.00  0.00    +0.000 OA
ATOM     13  H   UNL     1       0.419   2.659  20.217  0.00  0.00    +0.000 HD
ENDBRANCH  11  12
ENDBRANCH   1  11
BRANCH   6  14
ATOM     14  C   UNL     1       4.976   6.990  16.067  0.00  0.00    +0.000 C 
BRANCH  14  15
ATOM     15  N   UNL     1       5.874   5.896  15.751  0.00  0.00    +0.000 N 
ATOM     16  C   UNL     1       5.648   4.885  14.856  0.00  0.00    +0.000 A 
ATOM     17  C   UNL     1       6.706   4.022  15.021  0.00  0.00    +0.000 A 
ATOM     18  N   UNL     1       7.570   4.486  15.978  0.00  0.00    +0.000 NA
ATOM     19  C   UNL     1       7.045   5.616  16.399  0.00  0.00    +0.000 A 
ENDBRANCH  14  15
ENDBRANCH   6  14
TORSDOF 4
ENDMDL
MODEL 6
REMARK VINA RESULT:      -6.8      0.842      1.211
REMARK  Name = 
REMARK  4 active torsions:
REMARK  status: ('A' for Active; 'I' for Inactive)
REMARK    1  A    between atoms: C_2  and  O_3
REMARK    2  A    between atoms: C_2  and  C_4
REMARK    3  A    between atoms: C_9  and  C_10
REMARK    4  A    between atoms: C_10  and  N_11
REMARK                            x       y       z     vdW  Elec       q    Type
REMARK                         _______ _______ _______ _____ _____    ______ ____
ROOT
ATOM      1  C   UNL     1       5.618   5.393  15.860  0.00  0.00    +0.000 A 
ATOM      2  C   UNL     1       5.096   6.671  15.851  0.00  0.00    +0.000 A 
ATOM      3  C   UNL     1       4.214   6.765  16.958  0.00  0.00    +0.000 A 
ATOM      4  C   UNL     1       3.395   7.764  17.506  0.00  0.00    +0.000 A 
ATOM      5  C   UNL     1       2.638   7.465  18.651  0.00  0.00    +0.000 A 
ATOM      6  C   UNL     1       2.685   6.196  19.254  0.00  0.00    +0.000 A 
ATOM      7  C   UNL     1       3.504   5.189  18.708  0.00  0.00    +0.000 A 
ATOM      8  C   UNL     1       4.244   5.520  17.573  0.00  0.00    +0.000 A 
ATOM      9  O   UNL     1       5.096   4.684  16.912  0.00  0.00    +0.000 OA
ENDROOT
BRANCH   1  11
ATOM     10  O   UNL     1       6.415   3.671  14.430  0.00  0.00    +0.000 OA
ATOM     11  C   UNL     1       6.568   4.749  14.986  0.00  0.00    +0.000 C 
BRANCH  11  12
ATOM     12  O   UNL     1       7.693   5.496  14.843  0.00  0.00    +0.000 OA
ATOM     13  H   UNL     1       7.456   6.410  14.582  0.00  0.00    +0.000 HD
ENDBRANCH  11  12
ENDBRANCH   1  11
BRANCH   6  14
ATOM     14  C   UNL     1       1.859   5.912  20.487  0.00  0.00    +0.000 C 
BRANCH  14  15
ATOM     15  N   UNL     1       1.776   4.494  20.779  0.00  0.00    +0.000 N 
ATOM     16  C   UNL     1       0.940   3.585  20.188  0.00  0.00    +0.000 A 
ATOM     17  C   UNL     1       1.121   2.421  20.898  0.00  0.00    +0.000 A 
ATOM     18  N   UNL     1       2.049   2.596  21.891  0.00  0.00    +0.000 NA
ATOM     19  C   UNL     1       2.427   3.851  21.796  0.00  0.00    +0.000 A 
ENDBRANCH  14  15
ENDBRANCH   6  14
TORSDOF 4
ENDMDL
MODEL 7
REMARK VINA RESULT:      -6.8      4.192      6.794
REMARK  Name = 
REMARK  4 active torsions:
REMARK  status: ('A' for Active; 'I' for Inactive)
REMARK    1  A    between atoms: C_2  and  O_3
REMARK    2  A    between atoms: C_2  and  C_4
REMARK    3  A    between atoms: C_9  and  C_10
REMARK    4  A    between atoms: C_10  and  N_11
REMARK                            x       y       z     vdW  Elec       q    Type
REMARK                         _______ _______ _______ _____ _____    ______ ____
ROOT
ATOM      1  C   UNL     1       1.916   3.787  18.439  0.00  0.00    +0.000 A 
ATOM      2  C   UNL     1       2.095   5.155  18.381  0.00  0.00    +0.000 A 
ATOM      3  C   UNL     1       3.316   5.383  17.695  0.00  0.00    +0.000 A 
ATOM      4  C   UNL     1       4.050   6.512  17.302  0.00  0.00    +0.000 A 
ATOM      5  C   UNL     1       5.261   6.326  16.617  0.00  0.00    +0.000 A 
ATOM      6  C   UNL     1       5.748   5.042  16.316  0.00  0.00    +0.000 A 
ATOM      7  C   UNL     1       5.016   3.905  16.708  0.00  0.00    +0.000 A 
ATOM      8  C   UNL     1       3.818   4.125  17.386  0.00  0.00    +0.000 A 
ATOM      9  O   UNL     1       2.971   3.153  17.833  0.00  0.00    +0.000 OA
ENDROOT
BRANCH   1  11
ATOM     10  O   UNL     1       0.291   2.054  18.455  0.00  0.00    +0.000 OA
ATOM     11  C   UNL     1       0.853   2.991  19.002  0.00  0.00    +0.000 C 
BRANCH  11  12
ATOM     12  O   UNL     1       0.532   3.410  20.254  0.00  0.00    +0.000 OA
ATOM     13  H   UNL     1       1.048   4.213  20.480  0.00  0.00    +0.000 HD
ENDBRANCH  11  12
ENDBRANCH   1  11
BRANCH   6  14
ATOM     14  C   UNL     1       7.055   4.881  15.574  0.00  0.00    +0.000 C 
BRANCH  14  15
ATOM     15  N   UNL     1       6.855   4.561  14.173  0.00  0.00    +0.000 N 
ATOM     16  C   UNL     1       5.957   3.665  13.660  0.00  0.00    +0.000 A 
ATOM     17  C   UNL     1       6.248   3.600  12.317  0.00  0.00    +0.000 A 
ATOM     18  N   UNL     1       7.286   4.438  12.002  0.00  0.00    +0.000 NA
ATOM     19  C   UNL     1       7.630   5.005  13.137  0.00  0.00    +0.000 A 
ENDBRANCH  14  15
ENDBRANCH   6  14
TORSDOF 4
ENDMDL
MODEL 8
REMARK VINA RESULT:      -6.8      4.555      6.510
REMARK  Name = 
REMARK  4 active torsions:
REMARK  status: ('A' for Active; 'I' for Inactive)
REMARK    1  A    between atoms: C_2  and  O_3
REMARK    2  A    between atoms: C_2  and  C_4
REMARK    3  A    between atoms: C_9  and  C_10
REMARK    4  A    between atoms: C_10  and  N_11
REMARK                            x       y       z     vdW  Elec       q    Type
REMARK                         _______ _______ _______ _____ _____    ______ ____
ROOT
ATOM      1  C   UNL     1       0.222   9.704  21.704  0.00  0.00    +0.000 A 
ATOM      2  C   UNL     1       0.239  10.298  20.458  0.00  0.00    +0.000 A 
ATOM      3  C   UNL     1       0.980   9.444  19.602  0.00  0.00    +0.000 A 
ATOM      4  C   UNL     1       1.352   9.458  18.249  0.00  0.00    +0.000 A 
ATOM      5  C   UNL     1       2.120   8.394  17.749  0.00  0.00    +0.000 A 
ATOM      6  C   UNL     1       2.519   7.324  18.569  0.00  0.00    +0.000 A 
ATOM      7  C   UNL     1       2.149   7.305  19.927  0.00  0.00    +0.000 A 
ATOM      8  C   UNL     1       1.385   8.376  20.391  0.00  0.00    +0.000 A 
ATOM      9  O   UNL     1       0.927   8.526  21.667  0.00  0.00    +0.000 OA
ENDROOT
BRANCH   1  11
ATOM     10  O   UNL     1      -1.336  10.878  23.060  0.00  0.00    +0.000 OA
ATOM     11  C   UNL     1      -0.389  10.113  22.945  0.00  0.00    +0.000 C 
BRANCH  11  12
ATOM     12  O   UNL     1       0.222   9.534  24.011  0.00  0.00    +0.000 OA
ATOM     13  H   UNL     1       0.355   8.578  23.841  0.00  0.00    +0.000 HD
ENDBRANCH  11  12
ENDBRANCH   1  11
BRANCH   6  14
ATOM     14  C   UNL     1       3.342   6.194  17.994  0.00  0.00    +0.000 C 
BRANCH  14  15
ATOM     15  N   UNL     1       2.750   4.896  18.251  0.00  0.00    +0.000 N 
ATOM     16  C   UNL     1       3.299   3.878  18.983  0.00  0.00    +0.000 A 
ATOM     17  C   UNL     1       2.444   2.815  18.811  0.00  0.00    +0.000 A 
ATOM     18  N   UNL     1       1.389   3.163  18.008  0.00  0.00    +0.000 NA
ATOM     19  C   UNL     1       1.598   4.421  17.687  0.00  0.00    +0.000 A 
ENDBRANCH  14  15
ENDBRANCH   6  14
TORSDOF 4
ENDMDL
MODEL 9
REMARK VINA RESULT:      -6.7      1.635      1.975
REMARK  Name = 
REMARK  4 active torsions:
REMARK  status: ('A' for Active; 'I' for Inactive)
REMARK    1  A    between atoms: C_2  and  O_3
REMARK    2  A    between atoms: C_2  and  C_4
REMARK    3  A    between atoms: C_9  and  C_10
REMARK    4  A    between atoms: C_10  and  N_11
REMARK                            x       y       z     vdW  Elec       q    Type
REMARK                         _______ _______ _______ _____ _____    ______ ____
ROOT
ATOM      1  C   UNL     1       5.997   5.109  15.006  0.00  0.00    +0.000 A 
ATOM      2  C   UNL     1       5.728   6.209  15.796  0.00  0.00    +0.000 A 
ATOM      3  C   UNL     1       4.664   5.847  16.661  0.00  0.00    +0.000 A 
ATOM      4  C   UNL     1       3.943   6.480  17.684  0.00  0.00    +0.000 A 
ATOM      5  C   UNL     1       2.920   5.768  18.331  0.00  0.00    +0.000 A 
ATOM      6  C   UNL     1       2.609   4.443  17.979  0.00  0.00    +0.000 A 
ATOM      7  C   UNL     1       3.328   3.802  16.953  0.00  0.00    +0.000 A 
ATOM      8  C   UNL     1       4.338   4.537  16.332  0.00  0.00    +0.000 A 
ATOM      9  O   UNL     1       5.145   4.083  15.330  0.00  0.00    +0.000 OA
ENDROOT
BRANCH   1  11
ATOM     10  O   UNL     1       6.851   4.168  12.998  0.00  0.00    +0.000 OA
ATOM     11  C   UNL     1       6.978   4.901  13.968  0.00  0.00    +0.000 C 
BRANCH  11  12
ATOM     12  O   UNL     1       8.098   5.636  14.192  0.00  0.00    +0.000 OA
ATOM     13  H   UNL     1       7.865   6.468  14.654  0.00  0.00    +0.000 HD
ENDBRANCH  11  12
ENDBRANCH   1  11
BRANCH   6  14
ATOM     14  C   UNL     1       1.503   3.707  18.700  0.00  0.00    +0.000 C 
BRANCH  14  15
ATOM     15  N   UNL     1       1.921   3.230  20.005  0.00  0.00    +0.000 N 
ATOM     16  C   UNL     1       3.077   2.557  20.297  0.00  0.00    +0.000 A 
ATOM     17  C   UNL     1       2.949   2.188  21.615  0.00  0.00    +0.000 A 
ATOM     18  N   UNL     1       1.758   2.628  22.132  0.00  0.00    +0.000 NA
ATOM     19  C   UNL     1       1.161   3.253  21.141  0.00  0.00    +0.000 A 
ENDBRANCH  14  15
ENDBRANCH   6  14
TORSDOF 4
ENDMDL
