MODEL 1
REMARK VINA RESULT:      -8.1      0.000      0.000
REMARK  Name = 
REMARK  6 active torsions:
REMARK  status: ('A' for Active; 'I' for Inactive)
REMARK    1  A    between atoms: C_1  and  O_2
REMARK    2  A    between atoms: O_2  and  C_3
REMARK    3  A    between atoms: C_3  and  C_5
REMARK    4  A    between atoms: C_6  and  N_7
REMARK    5  A    between atoms: C_8  and  C_10
REMARK    6  A    between atoms: C_26  and  C_27
REMARK                            x       y       z     vdW  Elec       q    Type
REMARK                         _______ _______ _______ _____ _____    ______ ____
ROOT
ATOM      1  C   UNL     1       2.373   6.414  19.418  0.00  0.00    +0.000 A 
ATOM      2  C   UNL     1       2.977   6.509  18.174  0.00  0.00    +0.000 A 
ATOM      3  S   UNL     1       2.746   8.048  17.465  0.00  0.00    +0.000 S 
ATOM      4  C   UNL     1       1.760   8.584  18.763  0.00  0.00    +0.000 A 
ATOM      5  C   UNL     1       1.616   7.605  19.728  0.00  0.00    +0.000 A 
ATOM      6  C   UNL     1       0.831   7.867  20.989  0.00  0.00    +0.000 C 
ATOM      7  C   UNL     1      -0.064   9.103  20.831  0.00  0.00    +0.000 C 
ATOM      8  N   UNL     1       0.685  10.215  20.225  0.00  0.00    +0.000 N 
ATOM      9  C   UNL     1       0.922  11.329  21.008  0.00  0.00    +0.000 C 
ATOM     10  C   UNL     1       1.670  12.512  20.452  0.00  0.00    +0.000 C 
ATOM     11  O   UNL     1       0.530  11.396  22.183  0.00  0.00    +0.000 OA
ATOM     12  C   UNL     1       1.155   9.969  18.841  0.00  0.00    +0.000 C 
ENDROOT
BRANCH   2  13
ATOM     13  N   UNL     1       3.733   5.591  17.442  0.00  0.00    +0.000 N 
ATOM     14  C   UNL     1       5.134   5.629  17.513  0.00  0.00    +0.000 C 
ATOM     15  O   UNL     1       5.746   6.448  18.201  0.00  0.00    +0.000 OA
ATOM     16  H   UNL     1       3.280   4.737  17.129  0.00  0.00    +0.000 HD
BRANCH  14  17
ATOM     17  C   UNL     1       5.923   4.508  16.810  0.00  0.00    +0.000 C 
ATOM     18  C   UNL     1       7.420   4.754  16.595  0.00  0.00    +0.000 C 
ATOM     19  O   UNL     1       7.741   5.348  15.335  0.00  0.00    +0.000 OA
ATOM     20  C   UNL     1       7.070   4.727  14.318  0.00  0.00    +0.000 A 
ATOM     21  C   UNL     1       7.621   4.806  13.039  0.00  0.00    +0.000 A 
ATOM     22  C   UNL     1       6.944   4.248  11.951  0.00  0.00    +0.000 A 
ATOM     23  C   UNL     1       5.722   3.602  12.144  0.00  0.00    +0.000 A 
ATOM     24  C   UNL     1       5.182   3.513  13.424  0.00  0.00    +0.000 A 
ATOM     25  C   UNL     1       5.852   4.079  14.507  0.00  0.00    +0.000 A 
ATOM     26  O   UNL     1       5.217   3.964  15.704  0.00  0.00    +0.000 OA
ENDBRANCH  14  17
ENDBRANCH   2  13
BRANCH   1  27
ATOM     27  C   UNL     1       2.537   5.291  20.324  0.00  0.00    +0.000 C 
ATOM     28  O   UNL     1       3.631   4.754  20.535  0.00  0.00    +0.000 OA
BRANCH  27  30
ATOM     29  C   UNL     1       0.842   3.696  20.161  0.00  0.00    +0.000 C 
ATOM     30  O   UNL     1       1.358   4.847  20.825  0.00  0.00    +0.000 OA
ENDBRANCH  27  30
ENDBRANCH   1  27
TORSDOF 4
ENDMDL
MODEL 2
REMARK VINA RESULT:      -7.2      3.627      9.607
REMARK  Name = 
REMARK  6 active torsions:
REMARK  status: ('A' for Active; 'I' for Inactive)
REMARK    1  A    between atoms: C_1  and  O_2
REMARK    2  A    between atoms: O_2  and  C_3
REMARK    3  A    between atoms: C_3  and  C_5
REMARK    4  A    between atoms: C_6  and  N_7
REMARK    5  A    between atoms: C_8  and  C_10
REMARK    6  A    between atoms: C_26  and  C_27
REMARK                            x       y       z     vdW  Elec       q    Type
REMARK                         _______ _______ _______ _____ _____    ______ ____
ROOT
ATOM      1  C   UNL     1       1.102   8.584  20.272  0.00  0.00    +0.000 A 
ATOM      2  C   UNL     1       1.224   9.490  19.231  0.00  0.00    +0.000 A 
ATOM      3  S   UNL     1       2.086   8.833  17.908  0.00  0.00    +0.000 S 
ATOM      4  C   UNL     1       2.390   7.363  18.736  0.00  0.00    +0.000 A 
ATOM      5  C   UNL     1       1.835   7.368  20.001  0.00  0.00    +0.000 A 
ATOM      6  C   UNL     1       1.931   6.159  20.898  0.00  0.00    +0.000 C 
ATOM      7  C   UNL     1       3.020   5.197  20.406  0.00  0.00    +0.000 C 
ATOM      8  N   UNL     1       2.915   4.989  18.953  0.00  0.00    +0.000 N 
ATOM      9  C   UNL     1       2.558   3.729  18.511  0.00  0.00    +0.000 C 
ATOM     10  C   UNL     1       2.444   3.437  17.038  0.00  0.00    +0.000 C 
ATOM     11  O   UNL     1       2.325   2.802  19.302  0.00  0.00    +0.000 OA
ATOM     12  C   UNL     1       3.149   6.201  18.131  0.00  0.00    +0.000 C 
ENDROOT
BRANCH   2  13
ATOM     13  N   UNL     1       0.756  10.798  19.085  0.00  0.00    +0.000 N 
ATOM     14  C   UNL     1      -0.539  11.024  18.592  0.00  0.00    +0.000 C 
ATOM     15  O   UNL     1      -1.300  10.109  18.273  0.00  0.00    +0.000 OA
ATOM     16  H   UNL     1       1.216  11.534  19.614  0.00  0.00    +0.000 HD
BRANCH  14  17
ATOM     17  C   UNL     1      -1.067  12.470  18.588  0.00  0.00    +0.000 C 
ATOM     18  C   UNL     1      -0.015  13.585  18.589  0.00  0.00    +0.000 C 
ATOM     19  O   UNL     1       0.348  14.047  19.893  0.00  0.00    +0.000 OA
ATOM     20  C   UNL     1      -0.764  14.252  20.665  0.00  0.00    +0.000 A 
ATOM     21  C   UNL     1      -0.656  15.153  21.723  0.00  0.00    +0.000 A 
ATOM     22  C   UNL     1      -1.739  15.352  22.584  0.00  0.00    +0.000 A 
ATOM     23  C   UNL     1      -2.931  14.656  22.380  0.00  0.00    +0.000 A 
ATOM     24  C   UNL     1      -3.040  13.768  21.314  0.00  0.00    +0.000 A 
ATOM     25  C   UNL     1      -1.956  13.562  20.462  0.00  0.00    +0.000 A 
ATOM     26  O   UNL     1      -2.161  12.647  19.477  0.00  0.00    +0.000 OA
ENDBRANCH  14  17
ENDBRANCH   2  13
BRANCH   1  27
ATOM     27  C   UNL     1       0.285   8.800  21.454  0.00  0.00    +0.000 C 
ATOM     28  O   UNL     1      -0.684   8.085  21.738  0.00  0.00    +0.000 OA
BRANCH  27  30
ATOM     29  C   UNL     1      -0.453  10.755  22.491  0.00  0.00    +0.000 C 
ATOM     30  O   UNL     1       0.642   9.913  22.140  0.00  0.00    +0.000 OA
ENDBRANCH  27  30
ENDBRANCH   1  27
TORSDOF 4
ENDMDL
MODEL 3
REMARK VINA RESULT:      -7.1      4.224      6.519
REMARK  Name = 
REMARK  6 active torsions:
REMARK  status: ('A' for Active; 'I' for Inactive)
REMARK    1  A    between atoms: C_1  and  O_2
REMARK    2  A    between atoms: O_2  and  C_3
REMARK    3  A    between atoms: C_3  and  C_5
REMARK    4  A    between atoms: C_6  and  N_7
REMARK    5  A    between atoms: C_8  and  C_10
REMARK    6  A    between atoms: C_26  and  C_27
REMARK                            x       y       z     vdW  Elec       q    Type
REMARK                         _______ _______ _______ _____ _____    ______ ____
ROOT
ATOM      1  C   UNL     1      -0.791  10.652  19.872  0.00  0.00    +0.000 A 
ATOM      2  C   UNL     1       0.161  10.169  20.755  0.00  0.00    +0.000 A 
ATOM      3  S   UNL     1      -0.041  10.809  22.328  0.00  0.00    +0.000 S 
ATOM      4  C   UNL     1      -1.343  11.812  21.838  0.00  0.00    +0.000 A 
ATOM      5  C   UNL     1      -1.627  11.654  20.494  0.00  0.00    +0.000 A 
ATOM      6  C   UNL     1      -2.769  12.399  19.848  0.00  0.00    +0.000 C 
ATOM      7  C   UNL     1      -3.222  13.574  20.724  0.00  0.00    +0.000 C 
ATOM      8  N   UNL     1      -3.360  13.156  22.128  0.00  0.00    +0.000 N 
ATOM      9  C   UNL     1      -4.630  13.146  22.671  0.00  0.00    +0.000 C 
ATOM     10  C   UNL     1      -4.848  12.743  24.106  0.00  0.00    +0.000 C 
ATOM     11  O   UNL     1      -5.627  13.469  22.006  0.00  0.00    +0.000 OA
ATOM     12  C   UNL     1      -2.097  12.728  22.777  0.00  0.00    +0.000 C 
ENDROOT
BRANCH   2  13
ATOM     13  N   UNL     1       1.207   9.261  20.580  0.00  0.00    +0.000 N 
ATOM     14  C   UNL     1       0.999   7.898  20.847  0.00  0.00    +0.000 C 
ATOM     15  O   UNL     1      -0.081   7.452  21.238  0.00  0.00    +0.000 OA
ATOM     16  H   UNL     1       1.982   9.531  19.980  0.00  0.00    +0.000 HD
BRANCH  14  17
ATOM     17  C   UNL     1       2.131   6.914  20.497  0.00  0.00    +0.000 C 
ATOM     18  C   UNL     1       2.690   6.991  19.073  0.00  0.00    +0.000 C 
ATOM     19  O   UNL     1       2.054   6.108  18.145  0.00  0.00    +0.000 OA
ATOM     20  C   UNL     1       1.910   4.858  18.681  0.00  0.00    +0.000 A 
ATOM     21  C   UNL     1       1.803   3.785  17.795  0.00  0.00    +0.000 A 
ATOM     22  C   UNL     1       1.588   2.494  18.285  0.00  0.00    +0.000 A 
ATOM     23  C   UNL     1       1.489   2.275  19.660  0.00  0.00    +0.000 A 
ATOM     24  C   UNL     1       1.611   3.346  20.541  0.00  0.00    +0.000 A 
ATOM     25  C   UNL     1       1.815   4.634  20.052  0.00  0.00    +0.000 A 
ATOM     26  O   UNL     1       1.883   5.608  20.999  0.00  0.00    +0.000 OA
ENDBRANCH  14  17
ENDBRANCH   2  13
BRANCH   1  27
ATOM     27  C   UNL     1      -0.972  10.165  18.515  0.00  0.00    +0.000 C 
ATOM     28  O   UNL     1      -0.031  10.004  17.730  0.00  0.00    +0.000 OA
BRANCH  27  30
ATOM     29  C   UNL     1      -2.541  10.103  16.790  0.00  0.00    +0.000 C 
ATOM     30  O   UNL     1      -2.278  10.007  18.187  0.00  0.00    +0.000 OA
ENDBRANCH  27  30
ENDBRANCH   1  27
TORSDOF 4
ENDMDL
MODEL 4
REMARK VINA RESULT:      -7.0      3.415      9.696
REMARK  Name = 
REMARK  6 active torsions:
REMARK  status: ('A' for Active; 'I' for Inactive)
REMARK    1  A    between atoms: C_1  and  O_2
REMARK    2  A    between atoms: O_2  and  C_3
REMARK    3  A    between atoms: C_3  and  C_5
REMARK    4  A    between atoms: C_6  and  N_7
REMARK    5  A    between atoms: C_8  and  C_10
REMARK    6  A    between atoms: C_26  and  C_27
REMARK                            x       y       z     vdW  Elec       q    Type
REMARK                         _______ _______ _______ _____ _____    ______ ____
ROOT
ATOM      1  C   UNL     1       1.250   8.286  20.309  0.00  0.00    +0.000 A 
ATOM      2  C   UNL     1       1.314   9.261  19.327  0.00  0.00    +0.000 A 
ATOM      3  S   UNL     1       2.199   8.738  17.961  0.00  0.00    +0.000 S 
ATOM      4  C   UNL     1       2.589   7.236  18.692  0.00  0.00    +0.000 A 
ATOM      5  C   UNL     1       2.045   7.131  19.958  0.00  0.00    +0.000 A 
ATOM      6  C   UNL     1       2.215   5.874  20.776  0.00  0.00    +0.000 C 
ATOM      7  C   UNL     1       3.350   5.007  20.217  0.00  0.00    +0.000 C 
ATOM      8  N   UNL     1       3.244   4.886  18.755  0.00  0.00    +0.000 N 
ATOM      9  C   UNL     1       2.952   3.639  18.235  0.00  0.00    +0.000 C 
ATOM     10  C   UNL     1       2.841   3.435  16.747  0.00  0.00    +0.000 C 
ATOM     11  O   UNL     1       2.776   2.652  18.966  0.00  0.00    +0.000 OA
ATOM     12  C   UNL     1       3.405   6.158  18.011  0.00  0.00    +0.000 C 
ENDROOT
BRANCH   2  13
ATOM     13  N   UNL     1       0.775  10.548  19.267  0.00  0.00    +0.000 N 
ATOM     14  C   UNL     1      -0.554  10.728  18.852  0.00  0.00    +0.000 C 
ATOM     15  O   UNL     1      -1.285   9.790  18.529  0.00  0.00    +0.000 OA
ATOM     16  H   UNL     1       1.225  11.283  19.807  0.00  0.00    +0.000 HD
BRANCH  14  17
ATOM     17  C   UNL     1      -1.153  12.143  18.944  0.00  0.00    +0.000 C 
ATOM     18  C   UNL     1      -0.510  13.096  19.958  0.00  0.00    +0.000 C 
ATOM     19  O   UNL     1      -1.129  13.084  21.247  0.00  0.00    +0.000 OA
ATOM     20  C   UNL     1      -2.491  13.137  21.135  0.00  0.00    +0.000 A 
ATOM     21  C   UNL     1      -3.208  13.642  22.219  0.00  0.00    +0.000 A 
ATOM     22  C   UNL     1      -4.606  13.658  22.186  0.00  0.00    +0.000 A 
ATOM     23  C   UNL     1      -5.284  13.178  21.065  0.00  0.00    +0.000 A 
ATOM     24  C   UNL     1      -4.564  12.688  19.978  0.00  0.00    +0.000 A 
ATOM     25  C   UNL     1      -3.172  12.662  20.016  0.00  0.00    +0.000 A 
ATOM     26  O   UNL     1      -2.574  12.131  18.917  0.00  0.00    +0.000 OA
ENDBRANCH  14  17
ENDBRANCH   2  13
BRANCH   1  27
ATOM     27  C   UNL     1       0.432   8.381  21.507  0.00  0.00    +0.000 C 
ATOM     28  O   UNL     1      -0.645   7.786  21.632  0.00  0.00    +0.000 OA
BRANCH  27  30
ATOM     29  C   UNL     1       0.047   9.544  23.491  0.00  0.00    +0.000 C 
ATOM     30  O   UNL     1       0.931   9.259  22.411  0.00  0.00    +0.000 OA
ENDBRANCH  27  30
ENDBRANCH   1  27
TORSDOF 4
ENDMDL
MODEL 5
REMARK VINA RESULT:      -7.0      4.222      6.635
REMARK  Name = 
REMARK  6 active torsions:
REMARK  status: ('A' for Active; 'I' for Inactive)
REMARK    1  A    between atoms: C_1  and  O_2
REMARK    2  A    between atoms: O_2  and  C_3
REMARK    3  A    between atoms: C_3  and  C_5
REMARK    4  A    between atoms: C_6  and  N_7
REMARK    5  A    between atoms: C_8  and  C_10
REMARK    6  A    between atoms: C_26  and  C_27
REMARK                            x       y       z     vdW  Elec       q    Type
REMARK                         _______ _______ _______ _____ _____    ______ ____
ROOT
ATOM      1  C   UNL     1      -0.418  10.995  20.325  0.00  0.00    +0.000 A 
ATOM      2  C   UNL     1       0.179  10.210  21.300  0.00  0.00    +0.000 A 
ATOM      3  S   UNL     1      -0.464  10.519  22.853  0.00  0.00    +0.000 S 
ATOM      4  C   UNL     1      -1.484  11.768  22.269  0.00  0.00    +0.000 A 
ATOM      5  C   UNL     1      -1.343  11.942  20.905  0.00  0.00    +0.000 A 
ATOM      6  C   UNL     1      -2.178  12.953  20.160  0.00  0.00    +0.000 C 
ATOM      7  C   UNL     1      -2.810  13.962  21.128  0.00  0.00    +0.000 C 
ATOM      8  N   UNL     1      -3.404  13.274  22.285  0.00  0.00    +0.000 N 
ATOM      9  C   UNL     1      -4.779  13.317  22.418  0.00  0.00    +0.000 C 
ATOM     10  C   UNL     1      -5.458  12.648  23.583  0.00  0.00    +0.000 C 
ATOM     11  O   UNL     1      -5.496  13.905  21.594  0.00  0.00    +0.000 OA
ATOM     12  C   UNL     1      -2.436  12.553  23.146  0.00  0.00    +0.000 C 
ENDROOT
BRANCH   2  13
ATOM     13  N   UNL     1       1.170   9.230  21.217  0.00  0.00    +0.000 N 
ATOM     14  C   UNL     1       0.807   7.882  21.072  0.00  0.00    +0.000 C 
ATOM     15  O   UNL     1      -0.367   7.510  21.014  0.00  0.00    +0.000 OA
ATOM     16  H   UNL     1       2.109   9.517  20.951  0.00  0.00    +0.000 HD
BRANCH  14  17
ATOM     17  C   UNL     1       1.928   6.854  20.834  0.00  0.00    +0.000 C 
ATOM     18  C   UNL     1       2.738   7.009  19.542  0.00  0.00    +0.000 C 
ATOM     19  O   UNL     1       2.232   6.252  18.439  0.00  0.00    +0.000 OA
ATOM     20  C   UNL     1       1.927   4.975  18.823  0.00  0.00    +0.000 A 
ATOM     21  C   UNL     1       1.923   3.989  17.836  0.00  0.00    +0.000 A 
ATOM     22  C   UNL     1       1.555   2.680  18.158  0.00  0.00    +0.000 A 
ATOM     23  C   UNL     1       1.200   2.356  19.468  0.00  0.00    +0.000 A 
ATOM     24  C   UNL     1       1.219   3.339  20.453  0.00  0.00    +0.000 A 
ATOM     25  C   UNL     1       1.576   4.646  20.129  0.00  0.00    +0.000 A 
ATOM     26  O   UNL     1       1.525   5.531  21.161  0.00  0.00    +0.000 OA
ENDBRANCH  14  17
ENDBRANCH   2  13
BRANCH   1  27
ATOM     27  C   UNL     1      -0.196  10.839  18.898  0.00  0.00    +0.000 C 
ATOM     28  O   UNL     1      -1.075  10.445  18.123  0.00  0.00    +0.000 OA
BRANCH  27  30
ATOM     29  C   UNL     1       1.725   9.975  17.896  0.00  0.00    +0.000 C 
ATOM     30  O   UNL     1       1.090  11.076  18.541  0.00  0.00    +0.000 OA
ENDBRANCH  27  30
ENDBRANCH   1  27
TORSDOF 4
ENDMDL
MODEL 6
REMARK VINA RESULT:      -6.8      2.208      8.585
REMARK  Name = 
REMARK  6 active torsions:
REMARK  status: ('A' for Active; 'I' for Inactive)
REMARK    1  A    between atoms: C_1  and  O_2
REMARK    2  A    between atoms: O_2  and  C_3
REMARK    3  A    between atoms: C_3  and  C_5
REMARK    4  A    between atoms: C_6  and  N_7
REMARK    5  A    between atoms: C_8  and  C_10
REMARK    6  A    between atoms: C_26  and  C_27
REMARK                            x       y       z     vdW  Elec       q    Type
REMARK                         _______ _______ _______ _____ _____    ______ ____
ROOT
ATOM      1  C   UNL     1       2.929   5.470  17.970  0.00  0.00    +0.000 A 
ATOM      2  C   UNL     1       3.118   6.783  18.370  0.00  0.00    +0.000 A 
ATOM      3  S   UNL     1       4.591   7.426  17.786  0.00  0.00    +0.000 S 
ATOM      4  C   UNL     1       5.045   5.937  17.066  0.00  0.00    +0.000 A 
ATOM      5  C   UNL     1       4.083   4.964  17.261  0.00  0.00    +0.000 A 
ATOM      6  C   UNL     1       4.242   3.584  16.674  0.00  0.00    +0.000 C 
ATOM      7  C   UNL     1       5.697   3.329  16.259  0.00  0.00    +0.000 C 
ATOM      8  N   UNL     1       6.236   4.478  15.514  0.00  0.00    +0.000 N 
ATOM      9  C   UNL     1       6.538   4.289  14.179  0.00  0.00    +0.000 C 
ATOM     10  C   UNL     1       7.107   5.414  13.355  0.00  0.00    +0.000 C 
ATOM     11  O   UNL     1       6.358   3.198  13.617  0.00  0.00    +0.000 OA
ATOM     12  C   UNL     1       6.330   5.737  16.292  0.00  0.00    +0.000 C 
ENDROOT
BRANCH   2  13
ATOM     13  N   UNL     1       2.319   7.641  19.129  0.00  0.00    +0.000 N 
ATOM     14  C   UNL     1       1.754   8.778  18.530  0.00  0.00    +0.000 C 
ATOM     15  O   UNL     1       1.930   9.066  17.345  0.00  0.00    +0.000 OA
ATOM     16  H   UNL     1       1.908   7.282  19.987  0.00  0.00    +0.000 HD
BRANCH  14  17
ATOM     17  C   UNL     1       0.761   9.613  19.361  0.00  0.00    +0.000 C 
ATOM     18  C   UNL     1      -0.583   9.938  18.700  0.00  0.00    +0.000 C 
ATOM     19  O   UNL     1      -0.603  11.181  17.994  0.00  0.00    +0.000 OA
ATOM     20  C   UNL     1      -0.031  12.175  18.740  0.00  0.00    +0.000 A 
ATOM     21  C   UNL     1      -0.411  13.488  18.464  0.00  0.00    +0.000 A 
ATOM     22  C   UNL     1       0.191  14.548  19.150  0.00  0.00    +0.000 A 
ATOM     23  C   UNL     1       1.164  14.293  20.117  0.00  0.00    +0.000 A 
ATOM     24  C   UNL     1       1.530  12.979  20.400  0.00  0.00    +0.000 A 
ATOM     25  C   UNL     1       0.938  11.924  19.709  0.00  0.00    +0.000 A 
ATOM     26  O   UNL     1       1.396  10.687  20.040  0.00  0.00    +0.000 OA
ENDBRANCH  14  17
ENDBRANCH   2  13
BRANCH   1  27
ATOM     27  C   UNL     1       1.702   4.720  18.174  0.00  0.00    +0.000 C 
ATOM     28  O   UNL     1       1.018   4.288  17.240  0.00  0.00    +0.000 OA
BRANCH  27  30
ATOM     29  C   UNL     1       0.985   3.326  19.902  0.00  0.00    +0.000 C 
ATOM     30  O   UNL     1       1.352   4.637  19.481  0.00  0.00    +0.000 OA
ENDBRANCH  27  30
ENDBRANCH   1  27
TORSDOF 4
ENDMDL
MODEL 7
REMARK VINA RESULT:      -6.8      4.317      6.944
REMARK  Name = 
REMARK  6 active torsions:
REMARK  status: ('A' for Active; 'I' for Inactive)
REMARK    1  A    between atoms: C_1  and  O_2
REMARK    2  A    between atoms: O_2  and  C_3
REMARK    3  A    between atoms: C_3  and  C_5
REMARK    4  A    between atoms: C_6  and  N_7
REMARK    5  A    between atoms: C_8  and  C_10
REMARK    6  A    between atoms: C_26  and  C_27
REMARK                            x       y       z     vdW  Elec       q    Type
REMARK                         _______ _______ _______ _____ _____    ______ ____
ROOT
ATOM      1  C   UNL     1       0.431  11.702  21.434  0.00  0.00    +0.000 A 
ATOM      2  C   UNL     1       0.399  10.406  21.925  0.00  0.00    +0.000 A 
ATOM      3  S   UNL     1      -0.948  10.139  22.942  0.00  0.00    +0.000 S 
ATOM      4  C   UNL     1      -1.463  11.771  22.821  0.00  0.00    +0.000 A 
ATOM      5  C   UNL     1      -0.623  12.508  22.007  0.00  0.00    +0.000 A 
ATOM      6  C   UNL     1      -0.905  13.961  21.712  0.00  0.00    +0.000 C 
ATOM      7  C   UNL     1      -1.908  14.539  22.717  0.00  0.00    +0.000 C 
ATOM      8  N   UNL     1      -3.046  13.626  22.904  0.00  0.00    +0.000 N 
ATOM      9  C   UNL     1      -4.285  14.047  22.459  0.00  0.00    +0.000 C 
ATOM     10  C   UNL     1      -5.499  13.172  22.628  0.00  0.00    +0.000 C 
ATOM     11  O   UNL     1      -4.442  15.150  21.914  0.00  0.00    +0.000 OA
ATOM     12  C   UNL     1      -2.701  12.314  23.501  0.00  0.00    +0.000 C 
ENDROOT
BRANCH   2  13
ATOM     13  N   UNL     1       1.248   9.318  21.713  0.00  0.00    +0.000 N 
ATOM     14  C   UNL     1       1.132   8.562  20.535  0.00  0.00    +0.000 C 
ATOM     15  O   UNL     1       0.301   8.814  19.661  0.00  0.00    +0.000 OA
ATOM     16  H   UNL     1       2.117   9.277  22.239  0.00  0.00    +0.000 HD
BRANCH  14  17
ATOM     17  C   UNL     1       2.182   7.467  20.274  0.00  0.00    +0.000 C 
ATOM     18  C   UNL     1       2.732   7.371  18.847  0.00  0.00    +0.000 C 
ATOM     19  O   UNL     1       2.022   6.459  18.005  0.00  0.00    +0.000 OA
ATOM     20  C   UNL     1       1.789   5.277  18.654  0.00  0.00    +0.000 A 
ATOM     21  C   UNL     1       1.593   4.140  17.870  0.00  0.00    +0.000 A 
ATOM     22  C   UNL     1       1.285   2.918  18.476  0.00  0.00    +0.000 A 
ATOM     23  C   UNL     1       1.184   2.833  19.865  0.00  0.00    +0.000 A 
ATOM     24  C   UNL     1       1.395   3.967  20.645  0.00  0.00    +0.000 A 
ATOM     25  C   UNL     1       1.691   5.187  20.040  0.00  0.00    +0.000 A 
ATOM     26  O   UNL     1       1.842   6.235  20.894  0.00  0.00    +0.000 OA
ENDBRANCH  14  17
ENDBRANCH   2  13
BRANCH   1  27
ATOM     27  C   UNL     1       1.360  12.172  20.421  0.00  0.00    +0.000 C 
ATOM     28  O   UNL     1       1.266  11.857  19.229  0.00  0.00    +0.000 OA
BRANCH  27  30
ATOM     29  C   UNL     1       2.899  13.887  20.057  0.00  0.00    +0.000 C 
ATOM     30  O   UNL     1       2.377  12.900  20.942  0.00  0.00    +0.000 OA
ENDBRANCH  27  30
ENDBRANCH   1  27
TORSDOF 4
ENDMDL
MODEL 8
REMARK VINA RESULT:      -6.7      4.111      6.358
REMARK  Name = 
REMARK  6 active torsions:
REMARK  status: ('A' for Active; 'I' for Inactive)
REMARK    1  A    between atoms: C_1  and  O_2
REMARK    2  A    between atoms: O_2  and  C_3
REMARK    3  A    between atoms: C_3  and  C_5
REMARK    4  A    between atoms: C_6  and  N_7
REMARK    5  A    between atoms: C_8  and  C_10
REMARK    6  A    between atoms: C_26  and  C_27
REMARK                            x       y       z     vdW  Elec       q    Type
REMARK                         _______ _______ _______ _____ _____    ______ ____
ROOT
ATOM      1  C   UNL     1      -0.862  10.357  19.799  0.00  0.00    +0.000 A 
ATOM      2  C   UNL     1      -0.055   9.626  20.658  0.00  0.00    +0.000 A 
ATOM      3  S   UNL     1       0.013  10.320  22.218  0.00  0.00    +0.000 S 
ATOM      4  C   UNL     1      -0.956  11.656  21.752  0.00  0.00    +0.000 A 
ATOM      5  C   UNL     1      -1.335  11.570  20.426  0.00  0.00    +0.000 A 
ATOM      6  C   UNL     1      -2.235  12.610  19.805  0.00  0.00    +0.000 C 
ATOM      7  C   UNL     1      -2.280  13.879  20.666  0.00  0.00    +0.000 C 
ATOM      8  N   UNL     1      -2.470  13.541  22.085  0.00  0.00    +0.000 N 
ATOM      9  C   UNL     1      -3.661  13.916  22.678  0.00  0.00    +0.000 C 
ATOM     10  C   UNL     1      -3.922  13.617  24.131  0.00  0.00    +0.000 C 
ATOM     11  O   UNL     1      -4.547  14.509  22.045  0.00  0.00    +0.000 OA
ATOM     12  C   UNL     1      -1.362  12.768  22.696  0.00  0.00    +0.000 C 
ENDROOT
BRANCH   2  13
ATOM     13  N   UNL     1       0.667   8.446  20.466  0.00  0.00    +0.000 N 
ATOM     14  C   UNL     1       1.791   8.447  19.625  0.00  0.00    +0.000 C 
ATOM     15  O   UNL     1       2.182   9.455  19.034  0.00  0.00    +0.000 OA
ATOM     16  H   UNL     1       0.569   7.706  21.155  0.00  0.00    +0.000 HD
BRANCH  14  17
ATOM     17  C   UNL     1       2.643   7.166  19.560  0.00  0.00    +0.000 C 
ATOM     18  C   UNL     1       3.010   6.656  18.162  0.00  0.00    +0.000 C 
ATOM     19  O   UNL     1       2.089   5.703  17.626  0.00  0.00    +0.000 OA
ATOM     20  C   UNL     1       1.769   4.755  18.559  0.00  0.00    +0.000 A 
ATOM     21  C   UNL     1       1.330   3.515  18.095  0.00  0.00    +0.000 A 
ATOM     22  C   UNL     1       0.926   2.532  19.003  0.00  0.00    +0.000 A 
ATOM     23  C   UNL     1       0.972   2.786  20.374  0.00  0.00    +0.000 A 
ATOM     24  C   UNL     1       1.425   4.020  20.835  0.00  0.00    +0.000 A 
ATOM     25  C   UNL     1       1.817   5.003  19.929  0.00  0.00    +0.000 A 
ATOM     26  O   UNL     1       2.207   6.180  20.487  0.00  0.00    +0.000 OA
ENDBRANCH  14  17
ENDBRANCH   2  13
BRANCH   1  27
ATOM     27  C   UNL     1      -1.241   9.925  18.465  0.00  0.00    +0.000 C 
ATOM     28  O   UNL     1      -0.436   9.860  17.528  0.00  0.00    +0.000 OA
BRANCH  27  30
ATOM     29  C   UNL     1      -3.118  10.097  17.090  0.00  0.00    +0.000 C 
ATOM     30  O   UNL     1      -2.573   9.703  18.346  0.00  0.00    +0.000 OA
ENDBRANCH  27  30
ENDBRANCH   1  27
TORSDOF 4
ENDMDL
MODEL 9
REMARK VINA RESULT:      -6.7      3.155      5.768
REMARK  Name = 
REMARK  6 active torsions:
REMARK  status: ('A' for Active; 'I' for Inactive)
REMARK    1  A    between atoms: C_1  and  O_2
REMARK    2  A    between atoms: O_2  and  C_3
REMARK    3  A    between atoms: C_3  and  C_5
REMARK    4  A    between atoms: C_6  and  N_7
REMARK    5  A    between atoms: C_8  and  C_10
REMARK    6  A    between atoms: C_26  and  C_27
REMARK                            x       y       z     vdW  Elec       q    Type
REMARK                         _______ _______ _______ _____ _____    ______ ____
ROOT
ATOM      1  C   UNL     1       0.650  11.570  19.782  0.00  0.00    +0.000 A 
ATOM      2  C   UNL     1       0.688  10.185  19.779  0.00  0.00    +0.000 A 
ATOM      3  S   UNL     1      -0.108   9.520  21.138  0.00  0.00    +0.000 S 
ATOM      4  C   UNL     1      -0.437  11.067  21.801  0.00  0.00    +0.000 A 
ATOM      5  C   UNL     1       0.047  12.079  20.992  0.00  0.00    +0.000 A 
ATOM      6  C   UNL     1      -0.169  13.529  21.348  0.00  0.00    +0.000 C 
ATOM      7  C   UNL     1      -0.568  13.678  22.822  0.00  0.00    +0.000 C 
ATOM      8  N   UNL     1      -1.608  12.702  23.183  0.00  0.00    +0.000 N 
ATOM      9  C   UNL     1      -2.861  13.192  23.501  0.00  0.00    +0.000 C 
ATOM     10  C   UNL     1      -3.973  12.255  23.894  0.00  0.00    +0.000 C 
ATOM     11  O   UNL     1      -3.113  14.406  23.478  0.00  0.00    +0.000 OA
ATOM     12  C   UNL     1      -1.189  11.283  23.097  0.00  0.00    +0.000 C 
ENDROOT
BRANCH   2  13
ATOM     13  N   UNL     1       1.233   9.278  18.868  0.00  0.00    +0.000 N 
ATOM     14  C   UNL     1       1.933   8.155  19.337  0.00  0.00    +0.000 C 
ATOM     15  O   UNL     1       2.097   7.924  20.536  0.00  0.00    +0.000 OA
ATOM     16  H   UNL     1       0.861   9.265  17.922  0.00  0.00    +0.000 HD
BRANCH  14  17
ATOM     17  C   UNL     1       2.386   7.105  18.306  0.00  0.00    +0.000 C 
ATOM     18  C   UNL     1       2.340   5.640  18.753  0.00  0.00    +0.000 C 
ATOM     19  O   UNL     1       3.563   5.162  19.320  0.00  0.00    +0.000 OA
ATOM     20  C   UNL     1       4.634   5.536  18.555  0.00  0.00    +0.000 A 
ATOM     21  C   UNL     1       5.792   4.763  18.645  0.00  0.00    +0.000 A 
ATOM     22  C   UNL     1       6.938   5.137  17.938  0.00  0.00    +0.000 A 
ATOM     23  C   UNL     1       6.923   6.278  17.134  0.00  0.00    +0.000 A 
ATOM     24  C   UNL     1       5.761   7.039  17.036  0.00  0.00    +0.000 A 
ATOM     25  C   UNL     1       4.622   6.672  17.749  0.00  0.00    +0.000 A 
ATOM     26  O   UNL     1       3.557   7.506  17.607  0.00  0.00    +0.000 OA
ENDBRANCH  14  17
ENDBRANCH   2  13
BRANCH   1  27
ATOM     27  C   UNL     1       1.097  12.404  18.679  0.00  0.00    +0.000 C 
ATOM     28  O   UNL     1       0.325  13.106  18.015  0.00  0.00    +0.000 OA
BRANCH  27  30
ATOM     29  C   UNL     1       3.146  13.470  18.356  0.00  0.00    +0.000 C 
ATOM     30  O   UNL     1       2.416  12.248  18.406  0.00  0.00    +0.000 OA
ENDBRANCH  27  30
ENDBRANCH   1  27
TORSDOF 4
ENDMDL
