MODEL 1
REMARK VINA RESULT:      -5.8      0.000      0.000
REMARK  Name = 
REMARK  8 active torsions:
REMARK  status: ('A' for Active; 'I' for Inactive)
REMARK    1  A    between atoms: C_1  and  C_2
REMARK    2  A    between atoms: C_2  and  N_3
REMARK    3  A    between atoms: C_6  and  O_7
REMARK    4  A    between atoms: C_8  and  C_9
REMARK    5  A    between atoms: C_9  and  CA_10
REMARK    6  A    between atoms: CA_10  and  N_11
REMARK    7  A    between atoms: CA_10  and  C_12
REMARK    8  A    between atoms: C_12  and  OXT_14
REMARK                            x       y       z     vdW  Elec       q    Type
REMARK                         _______ _______ _______ _____ _____    ______ ____
ROOT
ATOM      1  N   UNL     1       6.510   4.266  16.374  0.00  0.00    +0.000 N 
ATOM      2  N   UNL     1       7.821   4.302  16.689  0.00  0.00    +0.000 NA
ATOM      3  N   UNL     1       7.921   4.629  17.970  0.00  0.00    +0.000 NA
ATOM      4  C   UNL     1       6.664   4.797  18.444  0.00  0.00    +0.000 A 
ATOM      5  C   UNL     1       5.729   4.581  17.461  0.00  0.00    +0.000 A 
ENDROOT
BRANCH   1   7
ATOM      6  C   UNL     1       6.835   4.625  13.945  0.00  0.00    +0.000 C 
ATOM      7  C   UNL     1       6.127   3.848  15.041  0.00  0.00    +0.000 C 
ENDBRANCH   1   7
BRANCH   4   8
ATOM      8  O   UNL     1       6.349   5.106  19.707  0.00  0.00    +0.000 OA
ATOM      9  H   UNL     1       5.478   5.544  19.671  0.00  0.00    +0.000 HD
ENDBRANCH   4   8
BRANCH   5  10
ATOM     10  C   UNL     1       4.242   4.681  17.490  0.00  0.00    +0.000 C 
BRANCH  10  11
ATOM     11  CA  UNL     1       3.566   3.583  18.328  0.00  0.00    +0.000 C 
BRANCH  11  12
ATOM     12  N   UNL     1       3.335   3.952  19.760  0.00  0.00    +0.000 NA
ATOM     13  H1  UNL     1       3.099   4.953  19.790  0.00  0.00    +0.000 HD
ATOM     14  H2  UNL     1       4.247   3.930  20.230  0.00  0.00    +0.000 HD
ENDBRANCH  11  12
BRANCH  11  15
ATOM     15  C   UNL     1       2.198   3.217  17.720  0.00  0.00    +0.000 C 
ATOM     16  O   UNL     1       1.324   4.009  17.407  0.00  0.00    +0.000 OA
BRANCH  15  17
ATOM     17  OXT UNL     1       2.093   1.873  17.537  0.00  0.00    +0.000 OA
ATOM     18  HXT UNL     1       2.390   1.456  18.386  0.00  0.00    +0.000 HD
ENDBRANCH  15  17
ENDBRANCH  11  15
ENDBRANCH  10  11
ENDBRANCH   5  10
TORSDOF 7
ENDMDL
MODEL 2
REMARK VINA RESULT:      -5.8      1.216      1.218
REMARK  Name = 
REMARK  8 active torsions:
REMARK  status: ('A' for Active; 'I' for Inactive)
REMARK    1  A    between atoms: C_1  and  C_2
REMARK    2  A    between atoms: C_2  and  N_3
REMARK    3  A    between atoms: C_6  and  O_7
REMARK    4  A    between atoms: C_8  and  C_9
REMARK    5  A    between atoms: C_9  and  CA_10
REMARK    6  A    between atoms: CA_10  and  N_11
REMARK    7  A    between atoms: CA_10  and  C_12
REMARK    8  A    between atoms: C_12  and  OXT_14
REMARK                            x       y       z     vdW  Elec       q    Type
REMARK                         _______ _______ _______ _____ _____    ______ ____
ROOT
ATOM      1  N   UNL     1       6.176   5.627  16.345  0.00  0.00    +0.000 N 
ATOM      2  N   UNL     1       7.419   6.138  16.473  0.00  0.00    +0.000 NA
ATOM      3  N   UNL     1       7.741   6.103  17.758  0.00  0.00    +0.000 NA
ATOM      4  C   UNL     1       6.689   5.571  18.425  0.00  0.00    +0.000 A 
ATOM      5  C   UNL     1       5.665   5.256  17.566  0.00  0.00    +0.000 A 
ENDROOT
BRANCH   1   7
ATOM      6  C   UNL     1       6.128   4.240  14.295  0.00  0.00    +0.000 C 
ATOM      7  C   UNL     1       5.621   5.476  15.016  0.00  0.00    +0.000 C 
ENDBRANCH   1   7
BRANCH   4   8
ATOM      8  O   UNL     1       6.642   5.347  19.743  0.00  0.00    +0.000 OA
ATOM      9  H   UNL     1       5.697   5.270  19.973  0.00  0.00    +0.000 HD
ENDBRANCH   4   8
BRANCH   5  10
ATOM     10  C   UNL     1       4.310   4.690  17.828  0.00  0.00    +0.000 C 
BRANCH  10  11
ATOM     11  CA  UNL     1       4.309   3.168  18.043  0.00  0.00    +0.000 C 
BRANCH  11  12
ATOM     12  N   UNL     1       4.801   2.732  19.388  0.00  0.00    +0.000 NA
ATOM     13  H1  UNL     1       4.263   3.247  20.098  0.00  0.00    +0.000 HD
ATOM     14  H2  UNL     1       5.743   3.120  19.507  0.00  0.00    +0.000 HD
ENDBRANCH  11  12
BRANCH  11  15
ATOM     15  C   UNL     1       2.884   2.608  17.869  0.00  0.00    +0.000 C 
ATOM     16  O   UNL     1       1.949   3.191  17.346  0.00  0.00    +0.000 OA
BRANCH  15  17
ATOM     17  OXT UNL     1       2.800   1.339  18.353  0.00  0.00    +0.000 OA
ATOM     18  HXT UNL     1       3.733   1.035  18.495  0.00  0.00    +0.000 HD
ENDBRANCH  15  17
ENDBRANCH  11  15
ENDBRANCH  10  11
ENDBRANCH   5  10
TORSDOF 7
ENDMDL
MODEL 3
REMARK VINA RESULT:      -5.7      2.582      4.823
REMARK  Name = 
REMARK  8 active torsions:
REMARK  status: ('A' for Active; 'I' for Inactive)
REMARK    1  A    between atoms: C_1  and  C_2
REMARK    2  A    between atoms: C_2  and  N_3
REMARK    3  A    between atoms: C_6  and  O_7
REMARK    4  A    between atoms: C_8  and  C_9
REMARK    5  A    between atoms: C_9  and  CA_10
REMARK    6  A    between atoms: CA_10  and  N_11
REMARK    7  A    between atoms: CA_10  and  C_12
REMARK    8  A    between atoms: C_12  and  OXT_14
REMARK                            x       y       z     vdW  Elec       q    Type
REMARK                         _______ _______ _______ _____ _____    ______ ____
ROOT
ATOM      1  N   UNL     1       2.716   3.969  18.702  0.00  0.00    +0.000 N 
ATOM      2  N   UNL     1       2.100   3.457  19.787  0.00  0.00    +0.000 NA
ATOM      3  N   UNL     1       2.933   2.600  20.360  0.00  0.00    +0.000 NA
ATOM      4  C   UNL     1       4.069   2.583  19.621  0.00  0.00    +0.000 A 
ATOM      5  C   UNL     1       3.975   3.437  18.549  0.00  0.00    +0.000 A 
ENDROOT
BRANCH   1   7
ATOM      6  C   UNL     1       2.532   6.400  18.270  0.00  0.00    +0.000 C 
ATOM      7  C   UNL     1       2.042   5.001  17.942  0.00  0.00    +0.000 C 
ENDBRANCH   1   7
BRANCH   4   8
ATOM      8  O   UNL     1       5.159   1.859  19.895  0.00  0.00    +0.000 OA
ATOM      9  H   UNL     1       4.979   0.959  19.563  0.00  0.00    +0.000 HD
ENDBRANCH   4   8
BRANCH   5  10
ATOM     10  C   UNL     1       4.938   3.731  17.449  0.00  0.00    +0.000 C 
BRANCH  10  11
ATOM     11  CA  UNL     1       5.986   4.795  17.814  0.00  0.00    +0.000 C 
BRANCH  11  12
ATOM     12  N   UNL     1       6.370   4.814  19.261  0.00  0.00    +0.000 NA
ATOM     13  H1  UNL     1       6.241   3.862  19.630  0.00  0.00    +0.000 HD
ATOM     14  H2  UNL     1       5.645   5.341  19.761  0.00  0.00    +0.000 HD
ENDBRANCH  11  12
BRANCH  11  15
ATOM     15  C   UNL     1       7.274   4.574  16.998  0.00  0.00    +0.000 C 
ATOM     16  O   UNL     1       7.420   4.834  15.815  0.00  0.00    +0.000 OA
BRANCH  15  17
ATOM     17  OXT UNL     1       8.265   4.073  17.784  0.00  0.00    +0.000 OA
ATOM     18  HXT UNL     1       8.139   3.090  17.795  0.00  0.00    +0.000 HD
ENDBRANCH  15  17
ENDBRANCH  11  15
ENDBRANCH  10  11
ENDBRANCH   5  10
TORSDOF 7
ENDMDL
MODEL 4
REMARK VINA RESULT:      -5.7      0.932      1.206
REMARK  Name = 
REMARK  8 active torsions:
REMARK  status: ('A' for Active; 'I' for Inactive)
REMARK    1  A    between atoms: C_1  and  C_2
REMARK    2  A    between atoms: C_2  and  N_3
REMARK    3  A    between atoms: C_6  and  O_7
REMARK    4  A    between atoms: C_8  and  C_9
REMARK    5  A    between atoms: C_9  and  CA_10
REMARK    6  A    between atoms: CA_10  and  N_11
REMARK    7  A    between atoms: CA_10  and  C_12
REMARK    8  A    between atoms: C_12  and  OXT_14
REMARK                            x       y       z     vdW  Elec       q    Type
REMARK                         _______ _______ _______ _____ _____    ______ ____
ROOT
ATOM      1  N   UNL     1       6.039   4.585  15.868  0.00  0.00    +0.000 N 
ATOM      2  N   UNL     1       7.378   4.725  15.953  0.00  0.00    +0.000 NA
ATOM      3  N   UNL     1       7.704   4.742  17.238  0.00  0.00    +0.000 NA
ATOM      4  C   UNL     1       6.557   4.612  17.948  0.00  0.00    +0.000 A 
ATOM      5  C   UNL     1       5.468   4.514  17.117  0.00  0.00    +0.000 A 
ENDROOT
BRANCH   1   7
ATOM      6  C   UNL     1       6.382   3.879  13.520  0.00  0.00    +0.000 C 
ATOM      7  C   UNL     1       5.436   4.454  14.558  0.00  0.00    +0.000 C 
ENDBRANCH   1   7
BRANCH   4   8
ATOM      8  O   UNL     1       6.476   4.558  19.281  0.00  0.00    +0.000 OA
ATOM      9  H   UNL     1       5.943   3.768  19.490  0.00  0.00    +0.000 HD
ENDBRANCH   4   8
BRANCH   5  10
ATOM     10  C   UNL     1       4.013   4.395  17.425  0.00  0.00    +0.000 C 
BRANCH  10  11
ATOM     11  CA  UNL     1       3.562   2.957  17.723  0.00  0.00    +0.000 C 
BRANCH  11  12
ATOM     12  N   UNL     1       4.240   2.327  18.900  0.00  0.00    +0.000 NA
ATOM     13  H1  UNL     1       4.088   2.940  19.712  0.00  0.00    +0.000 HD
ATOM     14  H2  UNL     1       5.251   2.412  18.749  0.00  0.00    +0.000 HD
ENDBRANCH  11  12
BRANCH  11  15
ATOM     15  C   UNL     1       2.045   2.921  17.992  0.00  0.00    +0.000 C 
ATOM     16  O   UNL     1       1.469   2.128  18.718  0.00  0.00    +0.000 OA
BRANCH  15  17
ATOM     17  OXT UNL     1       1.412   3.927  17.330  0.00  0.00    +0.000 OA
ATOM     18  HXT UNL     1       0.539   4.050  17.783  0.00  0.00    +0.000 HD
ENDBRANCH  15  17
ENDBRANCH  11  15
ENDBRANCH  10  11
ENDBRANCH   5  10
TORSDOF 7
ENDMDL
MODEL 5
REMARK VINA RESULT:      -5.7      1.728      1.855
REMARK  Name = 
REMARK  8 active torsions:
REMARK  status: ('A' for Active; 'I' for Inactive)
REMARK    1  A    between atoms: C_1  and  C_2
REMARK    2  A    between atoms: C_2  and  N_3
REMARK    3  A    between atoms: C_6  and  O_7
REMARK    4  A    between atoms: C_8  and  C_9
REMARK    5  A    between atoms: C_9  and  CA_10
REMARK    6  A    between atoms: CA_10  and  N_11
REMARK    7  A    between atoms: CA_10  and  C_12
REMARK    8  A    between atoms: C_12  and  OXT_14
REMARK                            x       y       z     vdW  Elec       q    Type
REMARK                         _______ _______ _______ _____ _____    ______ ____
ROOT
ATOM      1  N   UNL     1       6.047   4.629  16.063  0.00  0.00    +0.000 N 
ATOM      2  N   UNL     1       7.395   4.694  16.046  0.00  0.00    +0.000 NA
ATOM      3  N   UNL     1       7.814   4.743  17.303  0.00  0.00    +0.000 NA
ATOM      4  C   UNL     1       6.718   4.710  18.097  0.00  0.00    +0.000 A 
ATOM      5  C   UNL     1       5.567   4.642  17.351  0.00  0.00    +0.000 A 
ENDROOT
BRANCH   1   7
ATOM      6  C   UNL     1       6.202   3.883  13.707  0.00  0.00    +0.000 C 
ATOM      7  C   UNL     1       5.343   4.482  14.806  0.00  0.00    +0.000 C 
ENDBRANCH   1   7
BRANCH   4   8
ATOM      8  O   UNL     1       6.732   4.714  19.434  0.00  0.00    +0.000 OA
ATOM      9  H   UNL     1       6.054   4.072  19.716  0.00  0.00    +0.000 HD
ENDBRANCH   4   8
BRANCH   5  10
ATOM     10  C   UNL     1       4.134   4.622  17.767  0.00  0.00    +0.000 C 
BRANCH  10  11
ATOM     11  CA  UNL     1       3.629   3.227  18.169  0.00  0.00    +0.000 C 
BRANCH  11  12
ATOM     12  N   UNL     1       4.311   2.095  17.465  0.00  0.00    +0.000 NA
ATOM     13  H1  UNL     1       4.897   2.498  16.722  0.00  0.00    +0.000 HD
ATOM     14  H2  UNL     1       3.594   1.594  16.929  0.00  0.00    +0.000 HD
ENDBRANCH  11  12
BRANCH  11  15
ATOM     15  C   UNL     1       3.817   3.010  19.683  0.00  0.00    +0.000 C 
ATOM     16  O   UNL     1       3.043   3.368  20.555  0.00  0.00    +0.000 OA
BRANCH  15  17
ATOM     17  OXT UNL     1       4.964   2.323  19.934  0.00  0.00    +0.000 OA
ATOM     18  HXT UNL     1       5.276   1.975  19.060  0.00  0.00    +0.000 HD
ENDBRANCH  15  17
ENDBRANCH  11  15
ENDBRANCH  10  11
ENDBRANCH   5  10
TORSDOF 7
ENDMDL
MODEL 6
REMARK VINA RESULT:      -5.6      2.189      2.878
REMARK  Name = 
REMARK  8 active torsions:
REMARK  status: ('A' for Active; 'I' for Inactive)
REMARK    1  A    between atoms: C_1  and  C_2
REMARK    2  A    between atoms: C_2  and  N_3
REMARK    3  A    between atoms: C_6  and  O_7
REMARK    4  A    between atoms: C_8  and  C_9
REMARK    5  A    between atoms: C_9  and  CA_10
REMARK    6  A    between atoms: CA_10  and  N_11
REMARK    7  A    between atoms: CA_10  and  C_12
REMARK    8  A    between atoms: C_12  and  OXT_14
REMARK                            x       y       z     vdW  Elec       q    Type
REMARK                         _______ _______ _______ _____ _____    ______ ____
ROOT
ATOM      1  N   UNL     1       6.513   5.869  16.437  0.00  0.00    +0.000 N 
ATOM      2  N   UNL     1       7.608   5.932  15.651  0.00  0.00    +0.000 NA
ATOM      3  N   UNL     1       7.504   4.980  14.735  0.00  0.00    +0.000 NA
ATOM      4  C   UNL     1       6.338   4.326  14.960  0.00  0.00    +0.000 A 
ATOM      5  C   UNL     1       5.674   4.855  16.039  0.00  0.00    +0.000 A 
ENDROOT
BRANCH   1   7
ATOM      6  C   UNL     1       7.578   7.727  17.682  0.00  0.00    +0.000 C 
ATOM      7  C   UNL     1       6.344   6.866  17.474  0.00  0.00    +0.000 C 
ENDBRANCH   1   7
BRANCH   4   8
ATOM      8  O   UNL     1       5.866   3.315  14.224  0.00  0.00    +0.000 OA
ATOM      9  H   UNL     1       4.911   3.261  14.418  0.00  0.00    +0.000 HD
ENDBRANCH   4   8
BRANCH   5  10
ATOM     10  C   UNL     1       4.391   4.456  16.686  0.00  0.00    +0.000 C 
BRANCH  10  11
ATOM     11  CA  UNL     1       4.483   3.145  17.483  0.00  0.00    +0.000 C 
BRANCH  11  12
ATOM     12  N   UNL     1       5.127   3.283  18.828  0.00  0.00    +0.000 NA
ATOM     13  H1  UNL     1       4.486   2.877  19.523  0.00  0.00    +0.000 HD
ATOM     14  H2  UNL     1       5.108   4.279  19.073  0.00  0.00    +0.000 HD
ENDBRANCH  11  12
BRANCH  11  15
ATOM     15  C   UNL     1       3.076   2.557  17.704  0.00  0.00    +0.000 C 
ATOM     16  O   UNL     1       2.027   3.069  17.347  0.00  0.00    +0.000 OA
BRANCH  15  17
ATOM     17  OXT UNL     1       3.147   1.352  18.330  0.00  0.00    +0.000 OA
ATOM     18  HXT UNL     1       4.009   0.947  18.053  0.00  0.00    +0.000 HD
ENDBRANCH  15  17
ENDBRANCH  11  15
ENDBRANCH  10  11
ENDBRANCH   5  10
TORSDOF 7
ENDMDL
MODEL 7
REMARK VINA RESULT:      -5.6      3.037      4.555
REMARK  Name = 
REMARK  8 active torsions:
REMARK  status: ('A' for Active; 'I' for Inactive)
REMARK    1  A    between atoms: C_1  and  C_2
REMARK    2  A    between atoms: C_2  and  N_3
REMARK    3  A    between atoms: C_6  and  O_7
REMARK    4  A    between atoms: C_8  and  C_9
REMARK    5  A    between atoms: C_9  and  CA_10
REMARK    6  A    between atoms: CA_10  and  N_11
REMARK    7  A    between atoms: CA_10  and  C_12
REMARK    8  A    between atoms: C_12  and  OXT_14
REMARK                            x       y       z     vdW  Elec       q    Type
REMARK                         _______ _______ _______ _____ _____    ______ ____
ROOT
ATOM      1  N   UNL     1       4.687   5.096  18.504  0.00  0.00    +0.000 N 
ATOM      2  N   UNL     1       5.339   5.435  19.636  0.00  0.00    +0.000 NA
ATOM      3  N   UNL     1       6.622   5.152  19.466  0.00  0.00    +0.000 NA
ATOM      4  C   UNL     1       6.761   4.634  18.222  0.00  0.00    +0.000 A 
ATOM      5  C   UNL     1       5.553   4.573  17.572  0.00  0.00    +0.000 A 
ENDROOT
BRANCH   1   7
ATOM      6  C   UNL     1       2.671   5.888  19.704  0.00  0.00    +0.000 C 
ATOM      7  C   UNL     1       3.272   5.385  18.403  0.00  0.00    +0.000 C 
ENDBRANCH   1   7
BRANCH   4   8
ATOM      8  O   UNL     1       7.917   4.250  17.669  0.00  0.00    +0.000 OA
ATOM      9  H   UNL     1       7.736   3.403  17.221  0.00  0.00    +0.000 HD
ENDBRANCH   4   8
BRANCH   5  10
ATOM     10  C   UNL     1       5.197   4.054  16.220  0.00  0.00    +0.000 C 
BRANCH  10  11
ATOM     11  CA  UNL     1       5.425   5.070  15.089  0.00  0.00    +0.000 C 
BRANCH  11  12
ATOM     12  N   UNL     1       5.568   6.487  15.551  0.00  0.00    +0.000 NA
ATOM     13  H1  UNL     1       5.706   7.074  14.718  0.00  0.00    +0.000 HD
ATOM     14  H2  UNL     1       6.476   6.563  16.023  0.00  0.00    +0.000 HD
ENDBRANCH  11  12
BRANCH  11  15
ATOM     15  C   UNL     1       6.699   4.712  14.301  0.00  0.00    +0.000 C 
ATOM     16  O   UNL     1       6.748   3.994  13.316  0.00  0.00    +0.000 OA
BRANCH  15  17
ATOM     17  OXT UNL     1       7.787   5.334  14.830  0.00  0.00    +0.000 OA
ATOM     18  HXT UNL     1       7.880   6.191  14.341  0.00  0.00    +0.000 HD
ENDBRANCH  15  17
ENDBRANCH  11  15
ENDBRANCH  10  11
ENDBRANCH   5  10
TORSDOF 7
ENDMDL
MODEL 8
REMARK VINA RESULT:      -5.6      1.565      1.904
REMARK  Name = 
REMARK  8 active torsions:
REMARK  status: ('A' for Active; 'I' for Inactive)
REMARK    1  A    between atoms: C_1  and  C_2
REMARK    2  A    between atoms: C_2  and  N_3
REMARK    3  A    between atoms: C_6  and  O_7
REMARK    4  A    between atoms: C_8  and  C_9
REMARK    5  A    between atoms: C_9  and  CA_10
REMARK    6  A    between atoms: CA_10  and  N_11
REMARK    7  A    between atoms: CA_10  and  C_12
REMARK    8  A    between atoms: C_12  and  OXT_14
REMARK                            x       y       z     vdW  Elec       q    Type
REMARK                         _______ _______ _______ _____ _____    ______ ____
ROOT
ATOM      1  N   UNL     1       6.547   5.111  16.291  0.00  0.00    +0.000 N 
ATOM      2  N   UNL     1       7.747   4.546  16.539  0.00  0.00    +0.000 NA
ATOM      3  N   UNL     1       7.904   4.489  17.854  0.00  0.00    +0.000 NA
ATOM      4  C   UNL     1       6.795   5.024  18.418  0.00  0.00    +0.000 A 
ATOM      5  C   UNL     1       5.903   5.440  17.460  0.00  0.00    +0.000 A 
ENDROOT
BRANCH   1   7
ATOM      6  C   UNL     1       6.120   3.884  14.183  0.00  0.00    +0.000 C 
ATOM      7  C   UNL     1       6.097   5.212  14.918  0.00  0.00    +0.000 C 
ENDBRANCH   1   7
BRANCH   4   8
ATOM      8  O   UNL     1       6.566   5.120  19.732  0.00  0.00    +0.000 OA
ATOM      9  H   UNL     1       5.943   4.403  19.953  0.00  0.00    +0.000 HD
ENDBRANCH   4   8
BRANCH   5  10
ATOM     10  C   UNL     1       4.577   6.112  17.587  0.00  0.00    +0.000 C 
BRANCH  10  11
ATOM     11  CA  UNL     1       3.396   5.133  17.680  0.00  0.00    +0.000 C 
BRANCH  11  12
ATOM     12  N   UNL     1       3.720   3.731  17.267  0.00  0.00    +0.000 NA
ATOM     13  H1  UNL     1       4.427   3.781  16.522  0.00  0.00    +0.000 HD
ATOM     14  H2  UNL     1       2.902   3.365  16.767  0.00  0.00    +0.000 HD
ENDBRANCH  11  12
BRANCH  11  15
ATOM     15  C   UNL     1       2.863   5.078  19.125  0.00  0.00    +0.000 C 
ATOM     16  O   UNL     1       1.897   4.436  19.503  0.00  0.00    +0.000 OA
BRANCH  15  17
ATOM     17  OXT UNL     1       3.641   5.823  19.956  0.00  0.00    +0.000 OA
ATOM     18  HXT UNL     1       3.375   6.766  19.811  0.00  0.00    +0.000 HD
ENDBRANCH  15  17
ENDBRANCH  11  15
ENDBRANCH  10  11
ENDBRANCH   5  10
TORSDOF 7
ENDMDL
MODEL 9
REMARK VINA RESULT:      -5.6      2.472      4.210
REMARK  Name = 
REMARK  8 active torsions:
REMARK  status: ('A' for Active; 'I' for Inactive)
REMARK    1  A    between atoms: C_1  and  C_2
REMARK    2  A    between atoms: C_2  and  N_3
REMARK    3  A    between atoms: C_6  and  O_7
REMARK    4  A    between atoms: C_8  and  C_9
REMARK    5  A    between atoms: C_9  and  CA_10
REMARK    6  A    between atoms: CA_10  and  N_11
REMARK    7  A    between atoms: CA_10  and  C_12
REMARK    8  A    between atoms: C_12  and  OXT_14
REMARK                            x       y       z     vdW  Elec       q    Type
REMARK                         _______ _______ _______ _____ _____    ______ ____
ROOT
ATOM      1  N   UNL     1       3.944   3.799  18.041  0.00  0.00    +0.000 N 
ATOM      2  N   UNL     1       4.131   2.937  19.062  0.00  0.00    +0.000 NA
ATOM      3  N   UNL     1       5.167   3.365  19.770  0.00  0.00    +0.000 NA
ATOM      4  C   UNL     1       5.622   4.496  19.178  0.00  0.00    +0.000 A 
ATOM      5  C   UNL     1       4.876   4.810  18.069  0.00  0.00    +0.000 A 
ENDROOT
BRANCH   1   7
ATOM      6  C   UNL     1       1.526   4.206  17.696  0.00  0.00    +0.000 C 
ATOM      7  C   UNL     1       2.812   3.599  17.161  0.00  0.00    +0.000 C 
ENDBRANCH   1   7
BRANCH   4   8
ATOM      8  O   UNL     1       6.644   5.239  19.616  0.00  0.00    +0.000 OA
ATOM      9  H   UNL     1       6.581   5.243  20.590  0.00  0.00    +0.000 HD
ENDBRANCH   4   8
BRANCH   5  10
ATOM     10  C   UNL     1       5.012   5.923  17.085  0.00  0.00    +0.000 C 
BRANCH  10  11
ATOM     11  CA  UNL     1       6.314   5.871  16.271  0.00  0.00    +0.000 C 
BRANCH  11  12
ATOM     12  N   UNL     1       7.461   6.609  16.891  0.00  0.00    +0.000 NA
ATOM     13  H1  UNL     1       7.100   7.504  17.245  0.00  0.00    +0.000 HD
ATOM     14  H2  UNL     1       8.077   6.909  16.127  0.00  0.00    +0.000 HD
ENDBRANCH  11  12
BRANCH  11  15
ATOM     15  C   UNL     1       6.760   4.410  16.072  0.00  0.00    +0.000 C 
ATOM     16  O   UNL     1       6.217   3.593  15.347  0.00  0.00    +0.000 OA
BRANCH  15  17
ATOM     17  OXT UNL     1       7.880   4.142  16.796  0.00  0.00    +0.000 OA
ATOM     18  HXT UNL     1       7.808   4.679  17.626  0.00  0.00    +0.000 HD
ENDBRANCH  15  17
ENDBRANCH  11  15
ENDBRANCH  10  11
ENDBRANCH   5  10
TORSDOF 7
ENDMDL
