MODEL 1
REMARK VINA RESULT:      -8.5      0.000      0.000
REMARK  Name = 
REMARK  8 active torsions:
REMARK  status: ('A' for Active; 'I' for Inactive)
REMARK    1  A    between atoms: C_1  and  O_2
REMARK    2  A    between atoms: O_2  and  C_3
REMARK    3  A    between atoms: C_8  and  C_9
REMARK    4  A    between atoms: N_14  and  C_15
REMARK    5  A    between atoms: C_16  and  C_17
REMARK    6  A    between atoms: N_19  and  C_20
REMARK    7  A    between atoms: N_19  and  C_21
REMARK    8  A    between atoms: C_21  and  C_22
REMARK                            x       y       z     vdW  Elec       q    Type
REMARK                         _______ _______ _______ _____ _____    ______ ____
ROOT
ATOM      1  C   UNL     1       4.087   4.832  17.871  0.00  0.00    +0.000 C 
ATOM      2  N   UNL     1       3.708   3.622  18.012  0.00  0.00    +0.000 NA
ATOM      3  S   UNL     1       2.448   3.273  18.900  0.00  0.00    +0.000 S 
ATOM      4  O   UNL     1       2.899   2.402  19.974  0.00  0.00    +0.000 OA
ATOM      5  O   UNL     1       1.414   2.808  18.010  0.00  0.00    +0.000 OA
ATOM      6  N   UNL     1       1.831   4.642  19.671  0.00  0.00    +0.000 N 
ATOM      7  C   UNL     1       0.627   4.256  20.409  0.00  0.00    +0.000 C 
ATOM      8  C   UNL     1       2.394   5.954  19.405  0.00  0.00    +0.000 C 
ATOM      9  C   UNL     1       3.439   6.001  18.537  0.00  0.00    +0.000 C 
ENDROOT
BRANCH   1  15
ATOM     10  C   UNL     1       6.597   4.824  17.317  0.00  0.00    +0.000 A 
ATOM     11  C   UNL     1       7.574   4.669  16.304  0.00  0.00    +0.000 A 
ATOM     12  C   UNL     1       7.222   4.696  14.950  0.00  0.00    +0.000 A 
ATOM     13  C   UNL     1       5.903   4.898  14.579  0.00  0.00    +0.000 A 
ATOM     14  C   UNL     1       4.931   5.043  15.567  0.00  0.00    +0.000 A 
ATOM     15  C   UNL     1       5.257   4.974  16.949  0.00  0.00    +0.000 A 
BRANCH  10  17
ATOM     16  C   UNL     1       7.756   5.754  19.144  0.00  0.00    +0.000 C 
ATOM     17  O   UNL     1       6.904   4.725  18.646  0.00  0.00    +0.000 OA
ENDBRANCH  10  17
ENDBRANCH   1  15
BRANCH   8  18
ATOM     18  C   UNL     1       1.942   7.376  19.886  0.00  0.00    +0.000 C 
ATOM     19  O   UNL     1       1.548   7.474  21.063  0.00  0.00    +0.000 OA
ATOM     20  N   UNL     1       1.864   8.533  19.093  0.00  0.00    +0.000 N 
ATOM     21  C   UNL     1       2.244   8.617  17.715  0.00  0.00    +0.000 C 
BRANCH  20  22
ATOM     22  C   UNL     1       1.309   9.806  19.623  0.00  0.00    +0.000 C 
BRANCH  22  23
ATOM     23  C   UNL     1      -0.049  10.182  19.054  0.00  0.00    +0.000 A 
ATOM     24  C   UNL     1      -0.848  11.178  19.651  0.00  0.00    +0.000 A 
ATOM     25  C   UNL     1      -2.066  11.565  19.076  0.00  0.00    +0.000 A 
ATOM     26  C   UNL     1      -2.506  10.969  17.900  0.00  0.00    +0.000 A 
ATOM     27  C   UNL     1      -1.726   9.985  17.296  0.00  0.00    +0.000 A 
ATOM     28  C   UNL     1      -0.509   9.598  17.866  0.00  0.00    +0.000 A 
ENDBRANCH  22  23
ENDBRANCH  20  22
ENDBRANCH   8  18
TORSDOF 5
ENDMDL
MODEL 2
REMARK VINA RESULT:      -8.4      2.084      7.360
REMARK  Name = 
REMARK  8 active torsions:
REMARK  status: ('A' for Active; 'I' for Inactive)
REMARK    1  A    between atoms: C_1  and  O_2
REMARK    2  A    between atoms: O_2  and  C_3
REMARK    3  A    between atoms: C_8  and  C_9
REMARK    4  A    between atoms: N_14  and  C_15
REMARK    5  A    between atoms: C_16  and  C_17
REMARK    6  A    between atoms: N_19  and  C_20
REMARK    7  A    between atoms: N_19  and  C_21
REMARK    8  A    between atoms: C_21  and  C_22
REMARK                            x       y       z     vdW  Elec       q    Type
REMARK                         _______ _______ _______ _____ _____    ______ ____
ROOT
ATOM      1  C   UNL     1       2.183   6.347  20.227  0.00  0.00    +0.000 C 
ATOM      2  N   UNL     1       1.435   5.473  20.781  0.00  0.00    +0.000 NA
ATOM      3  S   UNL     1       1.786   3.935  20.680  0.00  0.00    +0.000 S 
ATOM      4  O   UNL     1       0.675   3.278  20.010  0.00  0.00    +0.000 OA
ATOM      5  O   UNL     1       2.166   3.496  21.999  0.00  0.00    +0.000 OA
ATOM      6  N   UNL     1       3.122   3.665  19.685  0.00  0.00    +0.000 N 
ATOM      7  C   UNL     1       3.432   2.234  19.702  0.00  0.00    +0.000 C 
ATOM      8  C   UNL     1       3.859   4.783  19.121  0.00  0.00    +0.000 C 
ATOM      9  C   UNL     1       3.396   6.025  19.418  0.00  0.00    +0.000 C 
ENDROOT
BRANCH   1  15
ATOM     10  C   UNL     1       1.489   8.710  19.493  0.00  0.00    +0.000 A 
ATOM     11  C   UNL     1       0.766   9.879  19.834  0.00  0.00    +0.000 A 
ATOM     12  C   UNL     1       0.321  10.098  21.142  0.00  0.00    +0.000 A 
ATOM     13  C   UNL     1       0.603   9.175  22.136  0.00  0.00    +0.000 A 
ATOM     14  C   UNL     1       1.305   8.015  21.811  0.00  0.00    +0.000 A 
ATOM     15  C   UNL     1       1.728   7.749  20.480  0.00  0.00    +0.000 A 
BRANCH  10  17
ATOM     16  C   UNL     1       2.323   9.565  17.463  0.00  0.00    +0.000 C 
ATOM     17  O   UNL     1       1.867   8.437  18.208  0.00  0.00    +0.000 OA
ENDBRANCH  10  17
ENDBRANCH   1  15
BRANCH   8  18
ATOM     18  C   UNL     1       5.181   4.814  18.279  0.00  0.00    +0.000 C 
ATOM     19  O   UNL     1       6.124   4.109  18.684  0.00  0.00    +0.000 OA
ATOM     20  N   UNL     1       5.431   5.622  17.158  0.00  0.00    +0.000 N 
ATOM     21  C   UNL     1       4.488   6.517  16.558  0.00  0.00    +0.000 C 
BRANCH  20  22
ATOM     22  C   UNL     1       6.765   5.658  16.503  0.00  0.00    +0.000 C 
BRANCH  22  23
ATOM     23  C   UNL     1       6.795   5.053  15.110  0.00  0.00    +0.000 A 
ATOM     24  C   UNL     1       5.897   4.035  14.727  0.00  0.00    +0.000 A 
ATOM     25  C   UNL     1       5.890   3.536  13.418  0.00  0.00    +0.000 A 
ATOM     26  C   UNL     1       6.772   4.043  12.469  0.00  0.00    +0.000 A 
ATOM     27  C   UNL     1       7.663   5.050  12.831  0.00  0.00    +0.000 A 
ATOM     28  C   UNL     1       7.672   5.551  14.137  0.00  0.00    +0.000 A 
ENDBRANCH  22  23
ENDBRANCH  20  22
ENDBRANCH   8  18
TORSDOF 5
ENDMDL
MODEL 3
REMARK VINA RESULT:      -8.3      1.998      7.376
REMARK  Name = 
REMARK  8 active torsions:
REMARK  status: ('A' for Active; 'I' for Inactive)
REMARK    1  A    between atoms: C_1  and  O_2
REMARK    2  A    between atoms: O_2  and  C_3
REMARK    3  A    between atoms: C_8  and  C_9
REMARK    4  A    between atoms: N_14  and  C_15
REMARK    5  A    between atoms: C_16  and  C_17
REMARK    6  A    between atoms: N_19  and  C_20
REMARK    7  A    between atoms: N_19  and  C_21
REMARK    8  A    between atoms: C_21  and  C_22
REMARK                            x       y       z     vdW  Elec       q    Type
REMARK                         _______ _______ _______ _____ _____    ______ ____
ROOT
ATOM      1  C   UNL     1       2.289   6.652  19.427  0.00  0.00    +0.000 C 
ATOM      2  N   UNL     1       1.588   5.918  20.202  0.00  0.00    +0.000 NA
ATOM      3  S   UNL     1       2.024   4.432  20.513  0.00  0.00    +0.000 S 
ATOM      4  O   UNL     1       0.955   3.559  20.053  0.00  0.00    +0.000 OA
ATOM      5  O   UNL     1       2.421   4.384  21.897  0.00  0.00    +0.000 OA
ATOM      6  N   UNL     1       3.379   3.979  19.614  0.00  0.00    +0.000 N 
ATOM      7  C   UNL     1       3.768   2.625  20.010  0.00  0.00    +0.000 C 
ATOM      8  C   UNL     1       4.056   4.944  18.764  0.00  0.00    +0.000 C 
ATOM      9  C   UNL     1       3.523   6.193  18.722  0.00  0.00    +0.000 C 
ENDROOT
BRANCH   1  15
ATOM     10  C   UNL     1       1.227   8.804  20.347  0.00  0.00    +0.000 A 
ATOM     11  C   UNL     1       1.056  10.198  20.164  0.00  0.00    +0.000 A 
ATOM     12  C   UNL     1       1.376  10.812  18.949  0.00  0.00    +0.000 A 
ATOM     13  C   UNL     1       1.849  10.056  17.890  0.00  0.00    +0.000 A 
ATOM     14  C   UNL     1       2.031   8.684  18.060  0.00  0.00    +0.000 A 
ATOM     15  C   UNL     1       1.756   8.044  19.300  0.00  0.00    +0.000 A 
BRANCH  10  17
ATOM     16  C   UNL     1      -0.133   8.688  22.265  0.00  0.00    +0.000 C 
ATOM     17  O   UNL     1       0.996   8.193  21.547  0.00  0.00    +0.000 OA
ENDBRANCH  10  17
ENDBRANCH   1  15
BRANCH   8  18
ATOM     18  C   UNL     1       5.379   4.822  17.932  0.00  0.00    +0.000 C 
ATOM     19  O   UNL     1       6.253   4.052  18.373  0.00  0.00    +0.000 OA
ATOM     20  N   UNL     1       5.705   5.557  16.781  0.00  0.00    +0.000 N 
ATOM     21  C   UNL     1       4.849   6.507  16.138  0.00  0.00    +0.000 C 
BRANCH  20  22
ATOM     22  C   UNL     1       7.039   5.446  16.136  0.00  0.00    +0.000 C 
BRANCH  22  23
ATOM     23  C   UNL     1       7.007   4.900  14.718  0.00  0.00    +0.000 A 
ATOM     24  C   UNL     1       6.131   3.859  14.348  0.00  0.00    +0.000 A 
ATOM     25  C   UNL     1       6.061   3.414  13.021  0.00  0.00    +0.000 A 
ATOM     26  C   UNL     1       6.858   3.998  12.043  0.00  0.00    +0.000 A 
ATOM     27  C   UNL     1       7.726   5.030  12.392  0.00  0.00    +0.000 A 
ATOM     28  C   UNL     1       7.797   5.478  13.715  0.00  0.00    +0.000 A 
ENDBRANCH  22  23
ENDBRANCH  20  22
ENDBRANCH   8  18
TORSDOF 5
ENDMDL
MODEL 4
REMARK VINA RESULT:      -8.2      1.363      1.501
REMARK  Name = 
REMARK  8 active torsions:
REMARK  status: ('A' for Active; 'I' for Inactive)
REMARK    1  A    between atoms: C_1  and  O_2
REMARK    2  A    between atoms: O_2  and  C_3
REMARK    3  A    between atoms: C_8  and  C_9
REMARK    4  A    between atoms: N_14  and  C_15
REMARK    5  A    between atoms: C_16  and  C_17
REMARK    6  A    between atoms: N_19  and  C_20
REMARK    7  A    between atoms: N_19  and  C_21
REMARK    8  A    between atoms: C_21  and  C_22
REMARK                            x       y       z     vdW  Elec       q    Type
REMARK                         _______ _______ _______ _____ _____    ______ ____
ROOT
ATOM      1  C   UNL     1       4.264   5.477  17.367  0.00  0.00    +0.000 C 
ATOM      2  N   UNL     1       4.071   4.412  18.045  0.00  0.00    +0.000 NA
ATOM      3  S   UNL     1       2.970   4.370  19.178  0.00  0.00    +0.000 S 
ATOM      4  O   UNL     1       3.646   4.074  20.431  0.00  0.00    +0.000 OA
ATOM      5  O   UNL     1       1.922   3.492  18.724  0.00  0.00    +0.000 OA
ATOM      6  N   UNL     1       2.256   5.882  19.410  0.00  0.00    +0.000 N 
ATOM      7  C   UNL     1       1.200   5.748  20.414  0.00  0.00    +0.000 C 
ATOM      8  C   UNL     1       2.603   7.000  18.549  0.00  0.00    +0.000 C 
ATOM      9  C   UNL     1       3.535   6.761  17.590  0.00  0.00    +0.000 C 
ENDROOT
BRANCH   1  15
ATOM     10  C   UNL     1       6.672   5.518  16.470  0.00  0.00    +0.000 A 
ATOM     11  C   UNL     1       7.566   5.025  15.489  0.00  0.00    +0.000 A 
ATOM     12  C   UNL     1       7.097   4.367  14.348  0.00  0.00    +0.000 A 
ATOM     13  C   UNL     1       5.735   4.205  14.149  0.00  0.00    +0.000 A 
ATOM     14  C   UNL     1       4.845   4.678  15.111  0.00  0.00    +0.000 A 
ATOM     15  C   UNL     1       5.300   5.310  16.301  0.00  0.00    +0.000 A 
BRANCH  10  17
ATOM     16  C   UNL     1       7.505   7.461  17.507  0.00  0.00    +0.000 C 
ATOM     17  O   UNL     1       7.108   6.096  17.629  0.00  0.00    +0.000 OA
ENDBRANCH  10  17
ENDBRANCH   1  15
BRANCH   8  18
ATOM     18  C   UNL     1       2.013   8.451  18.472  0.00  0.00    +0.000 C 
ATOM     19  O   UNL     1       2.169   9.066  17.400  0.00  0.00    +0.000 OA
ATOM     20  N   UNL     1       1.396   9.152  19.520  0.00  0.00    +0.000 N 
ATOM     21  C   UNL     1       1.151   8.629  20.831  0.00  0.00    +0.000 C 
BRANCH  20  22
ATOM     22  C   UNL     1       0.976  10.569  19.371  0.00  0.00    +0.000 C 
BRANCH  22  23
ATOM     23  C   UNL     1      -0.483  10.754  18.989  0.00  0.00    +0.000 A 
ATOM     24  C   UNL     1      -1.295  11.718  19.620  0.00  0.00    +0.000 A 
ATOM     25  C   UNL     1      -2.618  11.926  19.209  0.00  0.00    +0.000 A 
ATOM     26  C   UNL     1      -3.153  11.180  18.163  0.00  0.00    +0.000 A 
ATOM     27  C   UNL     1      -2.362  10.226  17.528  0.00  0.00    +0.000 A 
ATOM     28  C   UNL     1      -1.040  10.017  17.935  0.00  0.00    +0.000 A 
ENDBRANCH  22  23
ENDBRANCH  20  22
ENDBRANCH   8  18
TORSDOF 5
ENDMDL
MODEL 5
REMARK VINA RESULT:      -8.1      2.124      7.563
REMARK  Name = 
REMARK  8 active torsions:
REMARK  status: ('A' for Active; 'I' for Inactive)
REMARK    1  A    between atoms: C_1  and  O_2
REMARK    2  A    between atoms: O_2  and  C_3
REMARK    3  A    between atoms: C_8  and  C_9
REMARK    4  A    between atoms: N_14  and  C_15
REMARK    5  A    between atoms: C_16  and  C_17
REMARK    6  A    between atoms: N_19  and  C_20
REMARK    7  A    between atoms: N_19  and  C_21
REMARK    8  A    between atoms: C_21  and  C_22
REMARK                            x       y       z     vdW  Elec       q    Type
REMARK                         _______ _______ _______ _____ _____    ______ ____
ROOT
ATOM      1  C   UNL     1       1.922   7.132  20.154  0.00  0.00    +0.000 C 
ATOM      2  N   UNL     1       1.376   6.119  20.707  0.00  0.00    +0.000 NA
ATOM      3  S   UNL     1       1.870   4.656  20.371  0.00  0.00    +0.000 S 
ATOM      4  O   UNL     1       0.742   3.934  19.805  0.00  0.00    +0.000 OA
ATOM      5  O   UNL     1       2.509   4.139  21.554  0.00  0.00    +0.000 OA
ATOM      6  N   UNL     1       3.045   4.659  19.158  0.00  0.00    +0.000 N 
ATOM      7  C   UNL     1       3.507   3.285  18.957  0.00  0.00    +0.000 C 
ATOM      8  C   UNL     1       3.551   5.912  18.626  0.00  0.00    +0.000 C 
ATOM      9  C   UNL     1       3.012   7.050  19.137  0.00  0.00    +0.000 C 
ENDROOT
BRANCH   1  15
ATOM     10  C   UNL     1       0.852   9.445  19.822  0.00  0.00    +0.000 A 
ATOM     11  C   UNL     1       0.074  10.473  20.410  0.00  0.00    +0.000 A 
ATOM     12  C   UNL     1      -0.157  10.505  21.789  0.00  0.00    +0.000 A 
ATOM     13  C   UNL     1       0.394   9.535  22.610  0.00  0.00    +0.000 A 
ATOM     14  C   UNL     1       1.153   8.513  22.043  0.00  0.00    +0.000 A 
ATOM     15  C   UNL     1       1.365   8.433  20.639  0.00  0.00    +0.000 A 
BRANCH  10  17
ATOM     16  C   UNL     1       1.923  10.308  17.911  0.00  0.00    +0.000 C 
ATOM     17  O   UNL     1       1.028   9.348  18.471  0.00  0.00    +0.000 OA
ENDBRANCH  10  17
ENDBRANCH   1  15
BRANCH   8  18
ATOM     18  C   UNL     1       4.705   6.195  17.602  0.00  0.00    +0.000 C 
ATOM     19  O   UNL     1       4.428   6.920  16.628  0.00  0.00    +0.000 OA
ATOM     20  N   UNL     1       5.996   5.646  17.636  0.00  0.00    +0.000 N 
ATOM     21  C   UNL     1       6.495   4.772  18.655  0.00  0.00    +0.000 C 
BRANCH  20  22
ATOM     22  C   UNL     1       6.978   5.891  16.548  0.00  0.00    +0.000 C 
BRANCH  22  23
ATOM     23  C   UNL     1       6.728   5.083  15.286  0.00  0.00    +0.000 A 
ATOM     24  C   UNL     1       5.681   4.143  15.206  0.00  0.00    +0.000 A 
ATOM     25  C   UNL     1       5.418   3.456  14.013  0.00  0.00    +0.000 A 
ATOM     26  C   UNL     1       6.191   3.696  12.882  0.00  0.00    +0.000 A 
ATOM     27  C   UNL     1       7.228   4.624  12.944  0.00  0.00    +0.000 A 
ATOM     28  C   UNL     1       7.491   5.312  14.132  0.00  0.00    +0.000 A 
ENDBRANCH  22  23
ENDBRANCH  20  22
ENDBRANCH   8  18
TORSDOF 5
ENDMDL
MODEL 6
REMARK VINA RESULT:      -8.1      4.033      8.868
REMARK  Name = 
REMARK  8 active torsions:
REMARK  status: ('A' for Active; 'I' for Inactive)
REMARK    1  A    between atoms: C_1  and  O_2
REMARK    2  A    between atoms: O_2  and  C_3
REMARK    3  A    between atoms: C_8  and  C_9
REMARK    4  A    between atoms: N_14  and  C_15
REMARK    5  A    between atoms: C_16  and  C_17
REMARK    6  A    between atoms: N_19  and  C_20
REMARK    7  A    between atoms: N_19  and  C_21
REMARK    8  A    between atoms: C_21  and  C_22
REMARK                            x       y       z     vdW  Elec       q    Type
REMARK                         _______ _______ _______ _____ _____    ______ ____
ROOT
ATOM      1  C   UNL     1      -1.391  11.079  18.444  0.00  0.00    +0.000 C 
ATOM      2  N   UNL     1      -1.287  12.315  18.749  0.00  0.00    +0.000 NA
ATOM      3  S   UNL     1      -0.114  12.816  19.681  0.00  0.00    +0.000 S 
ATOM      4  O   UNL     1      -0.719  13.413  20.861  0.00  0.00    +0.000 OA
ATOM      5  O   UNL     1       0.768  13.614  18.867  0.00  0.00    +0.000 OA
ATOM      6  N   UNL     1       0.811  11.530  20.264  0.00  0.00    +0.000 N 
ATOM      7  C   UNL     1       1.918  12.074  21.052  0.00  0.00    +0.000 C 
ATOM      8  C   UNL     1       0.548  10.172  19.820  0.00  0.00    +0.000 C 
ATOM      9  C   UNL     1      -0.482  10.008  18.949  0.00  0.00    +0.000 C 
ENDROOT
BRANCH   1  15
ATOM     10  C   UNL     1      -3.815  11.326  17.623  0.00  0.00    +0.000 A 
ATOM     11  C   UNL     1      -4.690  11.247  16.513  0.00  0.00    +0.000 A 
ATOM     12  C   UNL     1      -4.294  10.628  15.323  0.00  0.00    +0.000 A 
ATOM     13  C   UNL     1      -3.035  10.061  15.219  0.00  0.00    +0.000 A 
ATOM     14  C   UNL     1      -2.160  10.141  16.301  0.00  0.00    +0.000 A 
ATOM     15  C   UNL     1      -2.523  10.803  17.506  0.00  0.00    +0.000 A 
BRANCH  10  17
ATOM     16  C   UNL     1      -5.544  12.241  18.933  0.00  0.00    +0.000 C 
ATOM     17  O   UNL     1      -4.149  11.991  18.769  0.00  0.00    +0.000 OA
ENDBRANCH  10  17
ENDBRANCH   1  15
BRANCH   8  18
ATOM     18  C   UNL     1       1.317   8.836  20.106  0.00  0.00    +0.000 C 
ATOM     19  O   UNL     1       1.297   8.414  21.277  0.00  0.00    +0.000 OA
ATOM     20  N   UNL     1       2.093   8.113  19.185  0.00  0.00    +0.000 N 
ATOM     21  C   UNL     1       2.263   8.450  17.804  0.00  0.00    +0.000 C 
BRANCH  20  22
ATOM     22  C   UNL     1       2.877   6.919  19.593  0.00  0.00    +0.000 C 
BRANCH  22  23
ATOM     23  C   UNL     1       2.147   5.598  19.415  0.00  0.00    +0.000 A 
ATOM     24  C   UNL     1       2.096   4.946  18.166  0.00  0.00    +0.000 A 
ATOM     25  C   UNL     1       1.480   3.695  18.032  0.00  0.00    +0.000 A 
ATOM     26  C   UNL     1       0.908   3.073  19.136  0.00  0.00    +0.000 A 
ATOM     27  C   UNL     1       0.952   3.703  20.377  0.00  0.00    +0.000 A 
ATOM     28  C   UNL     1       1.568   4.951  20.515  0.00  0.00    +0.000 A 
ENDBRANCH  22  23
ENDBRANCH  20  22
ENDBRANCH   8  18
TORSDOF 5
ENDMDL
MODEL 7
REMARK VINA RESULT:      -8.0      4.099      9.470
REMARK  Name = 
REMARK  8 active torsions:
REMARK  status: ('A' for Active; 'I' for Inactive)
REMARK    1  A    between atoms: C_1  and  O_2
REMARK    2  A    between atoms: O_2  and  C_3
REMARK    3  A    between atoms: C_8  and  C_9
REMARK    4  A    between atoms: N_14  and  C_15
REMARK    5  A    between atoms: C_16  and  C_17
REMARK    6  A    between atoms: N_19  and  C_20
REMARK    7  A    between atoms: N_19  and  C_21
REMARK    8  A    between atoms: C_21  and  C_22
REMARK                            x       y       z     vdW  Elec       q    Type
REMARK                         _______ _______ _______ _____ _____    ______ ____
ROOT
ATOM      1  C   UNL     1      -1.380  11.897  21.175  0.00  0.00    +0.000 C 
ATOM      2  N   UNL     1      -1.973  12.410  20.167  0.00  0.00    +0.000 NA
ATOM      3  S   UNL     1      -1.891  11.718  18.749  0.00  0.00    +0.000 S 
ATOM      4  O   UNL     1      -1.267  12.665  17.838  0.00  0.00    +0.000 OA
ATOM      5  O   UNL     1      -3.206  11.215  18.443  0.00  0.00    +0.000 OA
ATOM      6  N   UNL     1      -0.862  10.380  18.767  0.00  0.00    +0.000 N 
ATOM      7  C   UNL     1      -0.897   9.749  17.447  0.00  0.00    +0.000 C 
ATOM      8  C   UNL     1      -0.254   9.935  20.009  0.00  0.00    +0.000 C 
ATOM      9  C   UNL     1      -0.541  10.663  21.120  0.00  0.00    +0.000 C 
ENDROOT
BRANCH   1  15
ATOM     10  C   UNL     1      -0.789  13.658  22.951  0.00  0.00    +0.000 A 
ATOM     11  C   UNL     1      -1.284  14.507  23.971  0.00  0.00    +0.000 A 
ATOM     12  C   UNL     1      -2.570  14.334  24.494  0.00  0.00    +0.000 A 
ATOM     13  C   UNL     1      -3.377  13.308  24.031  0.00  0.00    +0.000 A 
ATOM     14  C   UNL     1      -2.906  12.473  23.021  0.00  0.00    +0.000 A 
ATOM     15  C   UNL     1      -1.619  12.656  22.442  0.00  0.00    +0.000 A 
BRANCH  10  17
ATOM     16  C   UNL     1       0.603  15.122  21.740  0.00  0.00    +0.000 C 
ATOM     17  O   UNL     1       0.433  13.853  22.371  0.00  0.00    +0.000 OA
ENDBRANCH  10  17
ENDBRANCH   1  15
BRANCH   8  18
ATOM     18  C   UNL     1       0.627   8.676  20.321  0.00  0.00    +0.000 C 
ATOM     19  O   UNL     1       0.413   8.092  21.400  0.00  0.00    +0.000 OA
ATOM     20  N   UNL     1       1.688   8.192  19.539  0.00  0.00    +0.000 N 
ATOM     21  C   UNL     1       2.105   8.741  18.284  0.00  0.00    +0.000 C 
BRANCH  20  22
ATOM     22  C   UNL     1       2.534   7.057  19.988  0.00  0.00    +0.000 C 
BRANCH  22  23
ATOM     23  C   UNL     1       2.021   5.689  19.571  0.00  0.00    +0.000 A 
ATOM     24  C   UNL     1       2.200   5.201  18.261  0.00  0.00    +0.000 A 
ATOM     25  C   UNL     1       1.784   3.909  17.910  0.00  0.00    +0.000 A 
ATOM     26  C   UNL     1       1.187   3.084  18.856  0.00  0.00    +0.000 A 
ATOM     27  C   UNL     1       1.006   3.550  20.156  0.00  0.00    +0.000 A 
ATOM     28  C   UNL     1       1.421   4.838  20.510  0.00  0.00    +0.000 A 
ENDBRANCH  22  23
ENDBRANCH  20  22
ENDBRANCH   8  18
TORSDOF 5
ENDMDL
MODEL 8
REMARK VINA RESULT:      -7.6      1.097      1.426
REMARK  Name = 
REMARK  8 active torsions:
REMARK  status: ('A' for Active; 'I' for Inactive)
REMARK    1  A    between atoms: C_1  and  O_2
REMARK    2  A    between atoms: O_2  and  C_3
REMARK    3  A    between atoms: C_8  and  C_9
REMARK    4  A    between atoms: N_14  and  C_15
REMARK    5  A    between atoms: C_16  and  C_17
REMARK    6  A    between atoms: N_19  and  C_20
REMARK    7  A    between atoms: N_19  and  C_21
REMARK    8  A    between atoms: C_21  and  C_22
REMARK                            x       y       z     vdW  Elec       q    Type
REMARK                         _______ _______ _______ _____ _____    ______ ____
ROOT
ATOM      1  C   UNL     1       4.198   5.314  17.834  0.00  0.00    +0.000 C 
ATOM      2  N   UNL     1       3.855   4.177  18.302  0.00  0.00    +0.000 NA
ATOM      3  S   UNL     1       2.608   4.047  19.264  0.00  0.00    +0.000 S 
ATOM      4  O   UNL     1       3.087   3.515  20.530  0.00  0.00    +0.000 OA
ATOM      5  O   UNL     1       1.587   3.328  18.544  0.00  0.00    +0.000 OA
ATOM      6  N   UNL     1       1.952   5.556  19.640  0.00  0.00    +0.000 N 
ATOM      7  C   UNL     1       0.760   5.351  20.466  0.00  0.00    +0.000 C 
ATOM      8  C   UNL     1       2.474   6.762  19.021  0.00  0.00    +0.000 C 
ATOM      9  C   UNL     1       3.515   6.600  18.163  0.00  0.00    +0.000 C 
ENDROOT
BRANCH   1  15
ATOM     10  C   UNL     1       6.658   4.849  17.251  0.00  0.00    +0.000 A 
ATOM     11  C   UNL     1       7.576   4.509  16.229  0.00  0.00    +0.000 A 
ATOM     12  C   UNL     1       7.216   4.583  14.879  0.00  0.00    +0.000 A 
ATOM     13  C   UNL     1       5.950   5.015  14.520  0.00  0.00    +0.000 A 
ATOM     14  C   UNL     1       5.033   5.343  15.517  0.00  0.00    +0.000 A 
ATOM     15  C   UNL     1       5.361   5.233  16.897  0.00  0.00    +0.000 A 
BRANCH  10  17
ATOM     16  C   UNL     1       7.740   5.771  19.128  0.00  0.00    +0.000 C 
ATOM     17  O   UNL     1       6.960   4.712  18.577  0.00  0.00    +0.000 OA
ENDBRANCH  10  17
ENDBRANCH   1  15
BRANCH   8  18
ATOM     18  C   UNL     1       1.980   8.248  19.101  0.00  0.00    +0.000 C 
ATOM     19  O   UNL     1       2.204   8.970  18.112  0.00  0.00    +0.000 OA
ATOM     20  N   UNL     1       1.380   8.863  20.212  0.00  0.00    +0.000 N 
ATOM     21  C   UNL     1       1.066   8.210  21.447  0.00  0.00    +0.000 C 
BRANCH  20  22
ATOM     22  C   UNL     1       1.056  10.313  20.220  0.00  0.00    +0.000 C 
BRANCH  22  23
ATOM     23  C   UNL     1      -0.066  10.709  19.274  0.00  0.00    +0.000 A 
ATOM     24  C   UNL     1      -1.109   9.818  18.953  0.00  0.00    +0.000 A 
ATOM     25  C   UNL     1      -2.174  10.220  18.135  0.00  0.00    +0.000 A 
ATOM     26  C   UNL     1      -2.219  11.515  17.629  0.00  0.00    +0.000 A 
ATOM     27  C   UNL     1      -1.196  12.408  17.941  0.00  0.00    +0.000 A 
ATOM     28  C   UNL     1      -0.133  12.010  18.757  0.00  0.00    +0.000 A 
ENDBRANCH  22  23
ENDBRANCH  20  22
ENDBRANCH   8  18
TORSDOF 5
ENDMDL
MODEL 9
REMARK VINA RESULT:      -7.6      4.110      9.290
REMARK  Name = 
REMARK  8 active torsions:
REMARK  status: ('A' for Active; 'I' for Inactive)
REMARK    1  A    between atoms: C_1  and  O_2
REMARK    2  A    between atoms: O_2  and  C_3
REMARK    3  A    between atoms: C_8  and  C_9
REMARK    4  A    between atoms: N_14  and  C_15
REMARK    5  A    between atoms: C_16  and  C_17
REMARK    6  A    between atoms: N_19  and  C_20
REMARK    7  A    between atoms: N_19  and  C_21
REMARK    8  A    between atoms: C_21  and  C_22
REMARK                            x       y       z     vdW  Elec       q    Type
REMARK                         _______ _______ _______ _____ _____    ______ ____
ROOT
ATOM      1  C   UNL     1      -0.480  12.474  20.806  0.00  0.00    +0.000 C 
ATOM      2  N   UNL     1      -1.272  12.882  19.891  0.00  0.00    +0.000 NA
ATOM      3  S   UNL     1      -1.625  11.955  18.662  0.00  0.00    +0.000 S 
ATOM      4  O   UNL     1      -1.186  12.642  17.458  0.00  0.00    +0.000 OA
ATOM      5  O   UNL     1      -3.012  11.584  18.791  0.00  0.00    +0.000 OA
ATOM      6  N   UNL     1      -0.743  10.516  18.694  0.00  0.00    +0.000 N 
ATOM      7  C   UNL     1      -1.178   9.680  17.573  0.00  0.00    +0.000 C 
ATOM      8  C   UNL     1       0.130  10.212  19.814  0.00  0.00    +0.000 C 
ATOM      9  C   UNL     1       0.208  11.149  20.794  0.00  0.00    +0.000 C 
ENDROOT
BRANCH   1  15
ATOM     10  C   UNL     1       0.496  14.601  21.869  0.00  0.00    +0.000 A 
ATOM     11  C   UNL     1       0.322  15.608  22.850  0.00  0.00    +0.000 A 
ATOM     12  C   UNL     1      -0.619  15.463  23.875  0.00  0.00    +0.000 A 
ATOM     13  C   UNL     1      -1.385  14.313  23.959  0.00  0.00    +0.000 A 
ATOM     14  C   UNL     1      -1.230  13.319  22.994  0.00  0.00    +0.000 A 
ATOM     15  C   UNL     1      -0.313  13.462  21.917  0.00  0.00    +0.000 A 
BRANCH  10  17
ATOM     16  C   UNL     1       1.289  16.020  20.166  0.00  0.00    +0.000 C 
ATOM     17  O   UNL     1       1.353  14.751  20.815  0.00  0.00    +0.000 OA
ENDBRANCH  10  17
ENDBRANCH   1  15
BRANCH   8  18
ATOM     18  C   UNL     1       0.954   8.919  20.145  0.00  0.00    +0.000 C 
ATOM     19  O   UNL     1       0.831   8.451  21.293  0.00  0.00    +0.000 OA
ATOM     20  N   UNL     1       1.878   8.285  19.299  0.00  0.00    +0.000 N 
ATOM     21  C   UNL     1       2.179   8.687  17.958  0.00  0.00    +0.000 C 
BRANCH  20  22
ATOM     22  C   UNL     1       2.692   7.130  19.757  0.00  0.00    +0.000 C 
BRANCH  22  23
ATOM     23  C   UNL     1       2.073   5.773  19.469  0.00  0.00    +0.000 A 
ATOM     24  C   UNL     1       2.108   5.205  18.180  0.00  0.00    +0.000 A 
ATOM     25  C   UNL     1       1.596   3.921  17.944  0.00  0.00    +0.000 A 
ATOM     26  C   UNL     1       1.044   3.185  18.986  0.00  0.00    +0.000 A 
ATOM     27  C   UNL     1       1.005   3.732  20.267  0.00  0.00    +0.000 A 
ATOM     28  C   UNL     1       1.516   5.011  20.506  0.00  0.00    +0.000 A 
ENDBRANCH  22  23
ENDBRANCH  20  22
ENDBRANCH   8  18
TORSDOF 5
ENDMDL
