MODEL 1
REMARK VINA RESULT:      -6.8      0.000      0.000
REMARK  Name = 
REMARK  15 active torsions:
REMARK  status: ('A' for Active; 'I' for Inactive)
REMARK    1  A    between atoms: C_1  and  C_2
REMARK    2  A    between atoms: N_4  and  C_5
REMARK    3  A    between atoms: C_5  and  C_6
REMARK    4  A    between atoms: C_6  and  N_7
REMARK    5  A    between atoms: N_7  and  C_8
REMARK    6  A    between atoms: N_7  and  C_9
REMARK    7  A    between atoms: C_13  and  O_14
REMARK    8  A    between atoms: O_14  and  C_15
REMARK    9  A    between atoms: C_15  and  C_16
REMARK   10  A    between atoms: C_16  and  C_17
REMARK   11  A    between atoms: C_17  and  C_18
REMARK   12  A    between atoms: C_18  and  C_19
REMARK   13  A    between atoms: C_19  and  C_20
REMARK   14  A    between atoms: C_20  and  O_21
REMARK   15  A    between atoms: O_21  and  C_22
REMARK                            x       y       z     vdW  Elec       q    Type
REMARK                         _______ _______ _______ _____ _____    ______ ____
ROOT
ATOM      1  C   UNL     1       1.219   9.498  18.916  0.00  0.00    +0.000 A 
ATOM      2  C   UNL     1       2.047   9.171  17.829  0.00  0.00    +0.000 A 
ATOM      3  C   UNL     1       2.814   7.997  17.803  0.00  0.00    +0.000 A 
ATOM      4  C   UNL     1       2.757   7.099  18.861  0.00  0.00    +0.000 A 
ATOM      5  C   UNL     1       1.934   7.366  19.946  0.00  0.00    +0.000 A 
ATOM      6  C   UNL     1       1.183   8.550  19.960  0.00  0.00    +0.000 A 
ENDROOT
BRANCH   1   7
ATOM      7  N   UNL     1       0.495  10.698  18.983  0.00  0.00    +0.000 N 
ATOM      8  C   UNL     1      -0.905  10.696  18.564  0.00  0.00    +0.000 C 
BRANCH   7   9
ATOM      9  C   UNL     1       1.183  11.961  19.328  0.00  0.00    +0.000 C 
BRANCH   9  10
ATOM     10  C   UNL     1       1.188  12.319  20.824  0.00  0.00    +0.000 C 
BRANCH  10  14
ATOM     11  C   UNL     1      -1.896  11.756  22.938  0.00  0.00    +0.000 C 
ATOM     12  C   UNL     1      -0.530  11.477  22.377  0.00  0.00    +0.000 C 
ATOM     13  O   UNL     1       0.160  10.538  22.757  0.00  0.00    +0.000 OA
ATOM     14  N   UNL     1      -0.134  12.377  21.418  0.00  0.00    +0.000 N 
ATOM     15  H   UNL     1      -0.773  13.103  21.114  0.00  0.00    +0.000 HD
ENDBRANCH  10  14
ENDBRANCH   9  10
ENDBRANCH   7   9
ENDBRANCH   1   7
BRANCH   5  16
ATOM     16  O   UNL     1       1.943   6.412  20.930  0.00  0.00    +0.000 OA
BRANCH  16  17
ATOM     17  C   UNL     1       2.251   5.087  20.509  0.00  0.00    +0.000 C 
BRANCH  17  18
ATOM     18  C   UNL     1       0.982   4.242  20.546  0.00  0.00    +0.000 C 
BRANCH  18  19
ATOM     19  C   UNL     1       1.032   3.195  19.438  0.00  0.00    +0.000 C 
BRANCH  19  20
ATOM     20  C   UNL     1       1.694   3.722  18.165  0.00  0.00    +0.000 C 
BRANCH  20  21
ATOM     21  C   UNL     1       2.634   2.697  17.525  0.00  0.00    +0.000 C 
BRANCH  21  22
ATOM     22  C   UNL     1       3.995   3.294  17.172  0.00  0.00    +0.000 C 
BRANCH  22  23
ATOM     23  O   UNL     1       4.597   3.832  18.347  0.00  0.00    +0.000 OA
BRANCH  23  24
ATOM     24  C   UNL     1       5.537   4.800  18.109  0.00  0.00    +0.000 A 
ATOM     25  C   UNL     1       5.434   5.434  16.872  0.00  0.00    +0.000 A 
ATOM     26  C   UNL     1       6.348   6.422  16.506  0.00  0.00    +0.000 A 
ATOM     27  C   UNL     1       7.361   6.796  17.389  0.00  0.00    +0.000 A 
ATOM     28  C   UNL     1       7.452   6.189  18.639  0.00  0.00    +0.000 A 
ATOM     29  C   UNL     1       6.540   5.194  19.001  0.00  0.00    +0.000 A 
ENDBRANCH  23  24
ENDBRANCH  22  23
ENDBRANCH  21  22
ENDBRANCH  20  21
ENDBRANCH  19  20
ENDBRANCH  18  19
ENDBRANCH  17  18
ENDBRANCH  16  17
ENDBRANCH   5  16
TORSDOF 13
ENDMDL
MODEL 2
REMARK VINA RESULT:      -6.8      1.144      1.560
REMARK  Name = 
REMARK  15 active torsions:
REMARK  status: ('A' for Active; 'I' for Inactive)
REMARK    1  A    between atoms: C_1  and  C_2
REMARK    2  A    between atoms: N_4  and  C_5
REMARK    3  A    between atoms: C_5  and  C_6
REMARK    4  A    between atoms: C_6  and  N_7
REMARK    5  A    between atoms: N_7  and  C_8
REMARK    6  A    between atoms: N_7  and  C_9
REMARK    7  A    between atoms: C_13  and  O_14
REMARK    8  A    between atoms: O_14  and  C_15
REMARK    9  A    between atoms: C_15  and  C_16
REMARK   10  A    between atoms: C_16  and  C_17
REMARK   11  A    between atoms: C_17  and  C_18
REMARK   12  A    between atoms: C_18  and  C_19
REMARK   13  A    between atoms: C_19  and  C_20
REMARK   14  A    between atoms: C_20  and  O_21
REMARK   15  A    between atoms: O_21  and  C_22
REMARK                            x       y       z     vdW  Elec       q    Type
REMARK                         _______ _______ _______ _____ _____    ______ ____
ROOT
ATOM      1  C   UNL     1       1.259   8.975  19.503  0.00  0.00    +0.000 A 
ATOM      2  C   UNL     1       1.783   9.145  18.211  0.00  0.00    +0.000 A 
ATOM      3  C   UNL     1       2.637   8.202  17.622  0.00  0.00    +0.000 A 
ATOM      4  C   UNL     1       2.975   7.041  18.304  0.00  0.00    +0.000 A 
ATOM      5  C   UNL     1       2.462   6.814  19.575  0.00  0.00    +0.000 A 
ATOM      6  C   UNL     1       1.619   7.775  20.152  0.00  0.00    +0.000 A 
ENDROOT
BRANCH   1   7
ATOM      7  N   UNL     1       0.454   9.939  20.129  0.00  0.00    +0.000 N 
ATOM      8  C   UNL     1      -0.730  10.427  19.426  0.00  0.00    +0.000 C 
BRANCH   7   9
ATOM      9  C   UNL     1       0.886  10.551  21.404  0.00  0.00    +0.000 C 
BRANCH   9  10
ATOM     10  C   UNL     1       0.233   9.967  22.668  0.00  0.00    +0.000 C 
BRANCH  10  14
ATOM     11  C   UNL     1      -2.839  12.099  23.226  0.00  0.00    +0.000 C 
ATOM     12  C   UNL     1      -1.377  11.787  23.081  0.00  0.00    +0.000 C 
ATOM     13  O   UNL     1      -0.511  12.655  23.103  0.00  0.00    +0.000 OA
ATOM     14  N   UNL     1      -1.113  10.450  22.910  0.00  0.00    +0.000 N 
ATOM     15  H   UNL     1      -1.872   9.779  22.950  0.00  0.00    +0.000 HD
ENDBRANCH  10  14
ENDBRANCH   9  10
ENDBRANCH   7   9
ENDBRANCH   1   7
BRANCH   5  16
ATOM     16  O   UNL     1       2.849   5.635  20.156  0.00  0.00    +0.000 OA
BRANCH  16  17
ATOM     17  C   UNL     1       1.909   5.043  21.048  0.00  0.00    +0.000 C 
BRANCH  17  18
ATOM     18  C   UNL     1       1.940   3.528  20.874  0.00  0.00    +0.000 C 
BRANCH  18  19
ATOM     19  C   UNL     1       0.877   3.108  19.865  0.00  0.00    +0.000 C 
BRANCH  19  20
ATOM     20  C   UNL     1       1.460   2.315  18.696  0.00  0.00    +0.000 C 
BRANCH  20  21
ATOM     21  C   UNL     1       2.256   3.195  17.729  0.00  0.00    +0.000 C 
BRANCH  21  22
ATOM     22  C   UNL     1       3.707   2.740  17.585  0.00  0.00    +0.000 C 
BRANCH  22  23
ATOM     23  O   UNL     1       4.516   3.420  18.543  0.00  0.00    +0.000 OA
BRANCH  23  24
ATOM     24  C   UNL     1       5.372   4.345  18.005  0.00  0.00    +0.000 A 
ATOM     25  C   UNL     1       6.125   5.064  18.932  0.00  0.00    +0.000 A 
ATOM     26  C   UNL     1       7.017   6.048  18.507  0.00  0.00    +0.000 A 
ATOM     27  C   UNL     1       7.176   6.304  17.145  0.00  0.00    +0.000 A 
ATOM     28  C   UNL     1       6.451   5.568  16.211  0.00  0.00    +0.000 A 
ATOM     29  C   UNL     1       5.552   4.588  16.639  0.00  0.00    +0.000 A 
ENDBRANCH  23  24
ENDBRANCH  22  23
ENDBRANCH  21  22
ENDBRANCH  20  21
ENDBRANCH  19  20
ENDBRANCH  18  19
ENDBRANCH  17  18
ENDBRANCH  16  17
ENDBRANCH   5  16
TORSDOF 13
ENDMDL
MODEL 3
REMARK VINA RESULT:      -6.6      2.359      4.791
REMARK  Name = 
REMARK  15 active torsions:
REMARK  status: ('A' for Active; 'I' for Inactive)
REMARK    1  A    between atoms: C_1  and  C_2
REMARK    2  A    between atoms: N_4  and  C_5
REMARK    3  A    between atoms: C_5  and  C_6
REMARK    4  A    between atoms: C_6  and  N_7
REMARK    5  A    between atoms: N_7  and  C_8
REMARK    6  A    between atoms: N_7  and  C_9
REMARK    7  A    between atoms: C_13  and  O_14
REMARK    8  A    between atoms: O_14  and  C_15
REMARK    9  A    between atoms: C_15  and  C_16
REMARK   10  A    between atoms: C_16  and  C_17
REMARK   11  A    between atoms: C_17  and  C_18
REMARK   12  A    between atoms: C_18  and  C_19
REMARK   13  A    between atoms: C_19  and  C_20
REMARK   14  A    between atoms: C_20  and  O_21
REMARK   15  A    between atoms: O_21  and  C_22
REMARK                            x       y       z     vdW  Elec       q    Type
REMARK                         _______ _______ _______ _____ _____    ______ ____
ROOT
ATOM      1  C   UNL     1       0.853   9.612  19.351  0.00  0.00    +0.000 A 
ATOM      2  C   UNL     1       0.909   9.016  20.621  0.00  0.00    +0.000 A 
ATOM      3  C   UNL     1       1.587   7.810  20.852  0.00  0.00    +0.000 A 
ATOM      4  C   UNL     1       2.253   7.172  19.813  0.00  0.00    +0.000 A 
ATOM      5  C   UNL     1       2.249   7.735  18.544  0.00  0.00    +0.000 A 
ATOM      6  C   UNL     1       1.556   8.936  18.331  0.00  0.00    +0.000 A 
ENDROOT
BRANCH   1   7
ATOM      7  N   UNL     1       0.127  10.784  19.093  0.00  0.00    +0.000 N 
ATOM      8  C   UNL     1       0.818  12.069  19.176  0.00  0.00    +0.000 C 
BRANCH   7   9
ATOM      9  C   UNL     1      -1.337  10.722  18.893  0.00  0.00    +0.000 C 
BRANCH   9  10
ATOM     10  C   UNL     1      -1.881  11.594  17.750  0.00  0.00    +0.000 C 
BRANCH  10  14
ATOM     11  C   UNL     1      -3.082  10.069  14.504  0.00  0.00    +0.000 C 
ATOM     12  C   UNL     1      -3.192  10.727  15.851  0.00  0.00    +0.000 C 
ATOM     13  O   UNL     1      -4.265  11.080  16.327  0.00  0.00    +0.000 OA
ATOM     14  N   UNL     1      -1.983  10.900  16.480  0.00  0.00    +0.000 N 
ATOM     15  H   UNL     1      -1.137  10.540  16.053  0.00  0.00    +0.000 HD
ENDBRANCH  10  14
ENDBRANCH   9  10
ENDBRANCH   7   9
ENDBRANCH   1   7
BRANCH   5  16
ATOM     16  O   UNL     1       2.944   7.033  17.595  0.00  0.00    +0.000 OA
BRANCH  16  17
ATOM     17  C   UNL     1       4.344   7.289  17.532  0.00  0.00    +0.000 C 
BRANCH  17  18
ATOM     18  C   UNL     1       4.935   6.548  16.337  0.00  0.00    +0.000 C 
BRANCH  18  19
ATOM     19  C   UNL     1       6.323   6.026  16.695  0.00  0.00    +0.000 C 
BRANCH  19  20
ATOM     20  C   UNL     1       6.488   4.540  16.382  0.00  0.00    +0.000 C 
BRANCH  20  21
ATOM     21  C   UNL     1       5.158   3.860  16.046  0.00  0.00    +0.000 C 
BRANCH  21  22
ATOM     22  C   UNL     1       4.494   3.237  17.273  0.00  0.00    +0.000 C 
BRANCH  22  23
ATOM     23  O   UNL     1       3.158   3.721  17.388  0.00  0.00    +0.000 OA
BRANCH  23  24
ATOM     24  C   UNL     1       2.603   3.561  18.631  0.00  0.00    +0.000 A 
ATOM     25  C   UNL     1       3.433   2.960  19.577  0.00  0.00    +0.000 A 
ATOM     26  C   UNL     1       2.972   2.724  20.871  0.00  0.00    +0.000 A 
ATOM     27  C   UNL     1       1.681   3.108  21.234  0.00  0.00    +0.000 A 
ATOM     28  C   UNL     1       0.858   3.738  20.303  0.00  0.00    +0.000 A 
ATOM     29  C   UNL     1       1.318   3.966  19.004  0.00  0.00    +0.000 A 
ENDBRANCH  23  24
ENDBRANCH  22  23
ENDBRANCH  21  22
ENDBRANCH  20  21
ENDBRANCH  19  20
ENDBRANCH  18  19
ENDBRANCH  17  18
ENDBRANCH  16  17
ENDBRANCH   5  16
TORSDOF 13
ENDMDL
MODEL 4
REMARK VINA RESULT:      -6.5      1.671      2.505
REMARK  Name = 
REMARK  15 active torsions:
REMARK  status: ('A' for Active; 'I' for Inactive)
REMARK    1  A    between atoms: C_1  and  C_2
REMARK    2  A    between atoms: N_4  and  C_5
REMARK    3  A    between atoms: C_5  and  C_6
REMARK    4  A    between atoms: C_6  and  N_7
REMARK    5  A    between atoms: N_7  and  C_8
REMARK    6  A    between atoms: N_7  and  C_9
REMARK    7  A    between atoms: C_13  and  O_14
REMARK    8  A    between atoms: O_14  and  C_15
REMARK    9  A    between atoms: C_15  and  C_16
REMARK   10  A    between atoms: C_16  and  C_17
REMARK   11  A    between atoms: C_17  and  C_18
REMARK   12  A    between atoms: C_18  and  C_19
REMARK   13  A    between atoms: C_19  and  C_20
REMARK   14  A    between atoms: C_20  and  O_21
REMARK   15  A    between atoms: O_21  and  C_22
REMARK                            x       y       z     vdW  Elec       q    Type
REMARK                         _______ _______ _______ _____ _____    ______ ____
ROOT
ATOM      1  C   UNL     1       1.578   8.798  19.560  0.00  0.00    +0.000 A 
ATOM      2  C   UNL     1       2.357   8.658  18.400  0.00  0.00    +0.000 A 
ATOM      3  C   UNL     1       2.987   7.451  18.064  0.00  0.00    +0.000 A 
ATOM      4  C   UNL     1       2.835   6.334  18.875  0.00  0.00    +0.000 A 
ATOM      5  C   UNL     1       2.054   6.415  20.020  0.00  0.00    +0.000 A 
ATOM      6  C   UNL     1       1.441   7.634  20.345  0.00  0.00    +0.000 A 
ENDROOT
BRANCH   1   7
ATOM      7  N   UNL     1       0.994  10.016  19.940  0.00  0.00    +0.000 N 
ATOM      8  C   UNL     1       0.098  10.034  21.094  0.00  0.00    +0.000 C 
BRANCH   7   9
ATOM      9  C   UNL     1       1.167  11.218  19.095  0.00  0.00    +0.000 C 
BRANCH   9  10
ATOM     10  C   UNL     1      -0.111  12.036  18.848  0.00  0.00    +0.000 C 
BRANCH  10  14
ATOM     11  C   UNL     1      -3.056  10.872  16.781  0.00  0.00    +0.000 C 
ATOM     12  C   UNL     1      -2.327  11.375  17.995  0.00  0.00    +0.000 C 
ATOM     13  O   UNL     1      -2.903  11.665  19.038  0.00  0.00    +0.000 OA
ATOM     14  N   UNL     1      -0.970  11.488  17.816  0.00  0.00    +0.000 N 
ATOM     15  H   UNL     1      -0.551  11.184  16.944  0.00  0.00    +0.000 HD
ENDBRANCH  10  14
ENDBRANCH   9  10
ENDBRANCH   7   9
ENDBRANCH   1   7
BRANCH   5  16
ATOM     16  O   UNL     1       1.961   5.255  20.744  0.00  0.00    +0.000 OA
BRANCH  16  17
ATOM     17  C   UNL     1       0.883   4.391  20.399  0.00  0.00    +0.000 C 
BRANCH  17  18
ATOM     18  C   UNL     1       1.250   2.958  20.773  0.00  0.00    +0.000 C 
BRANCH  18  19
ATOM     19  C   UNL     1       2.573   2.951  21.532  0.00  0.00    +0.000 C 
BRANCH  19  20
ATOM     20  C   UNL     1       3.731   2.427  20.685  0.00  0.00    +0.000 C 
BRANCH  20  21
ATOM     21  C   UNL     1       3.339   2.218  19.220  0.00  0.00    +0.000 C 
BRANCH  21  22
ATOM     22  C   UNL     1       4.168   3.076  18.266  0.00  0.00    +0.000 C 
BRANCH  22  23
ATOM     23  O   UNL     1       5.320   3.566  18.948  0.00  0.00    +0.000 OA
BRANCH  23  24
ATOM     24  C   UNL     1       5.955   4.602  18.314  0.00  0.00    +0.000 A 
ATOM     25  C   UNL     1       6.840   5.329  19.109  0.00  0.00    +0.000 A 
ATOM     26  C   UNL     1       7.530   6.419  18.580  0.00  0.00    +0.000 A 
ATOM     27  C   UNL     1       7.352   6.777  17.244  0.00  0.00    +0.000 A 
ATOM     28  C   UNL     1       6.493   6.036  16.436  0.00  0.00    +0.000 A 
ATOM     29  C   UNL     1       5.797   4.949  16.968  0.00  0.00    +0.000 A 
ENDBRANCH  23  24
ENDBRANCH  22  23
ENDBRANCH  21  22
ENDBRANCH  20  21
ENDBRANCH  19  20
ENDBRANCH  18  19
ENDBRANCH  17  18
ENDBRANCH  16  17
ENDBRANCH   5  16
TORSDOF 13
ENDMDL
MODEL 5
REMARK VINA RESULT:      -6.3      2.341      3.681
REMARK  Name = 
REMARK  15 active torsions:
REMARK  status: ('A' for Active; 'I' for Inactive)
REMARK    1  A    between atoms: C_1  and  C_2
REMARK    2  A    between atoms: N_4  and  C_5
REMARK    3  A    between atoms: C_5  and  C_6
REMARK    4  A    between atoms: C_6  and  N_7
REMARK    5  A    between atoms: N_7  and  C_8
REMARK    6  A    between atoms: N_7  and  C_9
REMARK    7  A    between atoms: C_13  and  O_14
REMARK    8  A    between atoms: O_14  and  C_15
REMARK    9  A    between atoms: C_15  and  C_16
REMARK   10  A    between atoms: C_16  and  C_17
REMARK   11  A    between atoms: C_17  and  C_18
REMARK   12  A    between atoms: C_18  and  C_19
REMARK   13  A    between atoms: C_19  and  C_20
REMARK   14  A    between atoms: C_20  and  O_21
REMARK   15  A    between atoms: O_21  and  C_22
REMARK                            x       y       z     vdW  Elec       q    Type
REMARK                         _______ _______ _______ _____ _____    ______ ____
ROOT
ATOM      1  C   UNL     1       0.209  10.340  20.263  0.00  0.00    +0.000 A 
ATOM      2  C   UNL     1       0.042  10.470  21.651  0.00  0.00    +0.000 A 
ATOM      3  C   UNL     1       0.529   9.514  22.555  0.00  0.00    +0.000 A 
ATOM      4  C   UNL     1       1.222   8.403  22.092  0.00  0.00    +0.000 A 
ATOM      5  C   UNL     1       1.435   8.242  20.730  0.00  0.00    +0.000 A 
ATOM      6  C   UNL     1       0.931   9.203  19.841  0.00  0.00    +0.000 A 
ENDROOT
BRANCH   1   7
ATOM      7  N   UNL     1      -0.326  11.256  19.345  0.00  0.00    +0.000 N 
ATOM      8  C   UNL     1       0.471  12.423  18.973  0.00  0.00    +0.000 C 
BRANCH   7   9
ATOM      9  C   UNL     1      -1.725  11.115  18.885  0.00  0.00    +0.000 C 
BRANCH   9  10
ATOM     10  C   UNL     1      -2.101  11.961  17.657  0.00  0.00    +0.000 C 
BRANCH  10  14
ATOM     11  C   UNL     1      -2.949  10.117  14.467  0.00  0.00    +0.000 C 
ATOM     12  C   UNL     1      -3.194  10.765  15.801  0.00  0.00    +0.000 C 
ATOM     13  O   UNL     1      -4.314  10.869  16.287  0.00  0.00    +0.000 OA
ATOM     14  N   UNL     1      -2.053  11.231  16.405  0.00  0.00    +0.000 N 
ATOM     15  H   UNL     1      -1.151  11.068  15.970  0.00  0.00    +0.000 HD
ENDBRANCH  10  14
ENDBRANCH   9  10
ENDBRANCH   7   9
ENDBRANCH   1   7
BRANCH   5  16
ATOM     16  O   UNL     1       2.138   7.119  20.380  0.00  0.00    +0.000 OA
BRANCH  16  17
ATOM     17  C   UNL     1       1.408   5.896  20.407  0.00  0.00    +0.000 C 
BRANCH  17  18
ATOM     18  C   UNL     1       2.279   4.808  21.028  0.00  0.00    +0.000 C 
BRANCH  18  19
ATOM     19  C   UNL     1       1.527   3.481  21.014  0.00  0.00    +0.000 C 
BRANCH  19  20
ATOM     20  C   UNL     1       0.990   3.127  19.628  0.00  0.00    +0.000 C 
BRANCH  20  21
ATOM     21  C   UNL     1       1.890   2.134  18.887  0.00  0.00    +0.000 C 
BRANCH  21  22
ATOM     22  C   UNL     1       2.418   2.698  17.569  0.00  0.00    +0.000 C 
BRANCH  22  23
ATOM     23  O   UNL     1       2.422   4.123  17.629  0.00  0.00    +0.000 OA
BRANCH  23  24
ATOM     24  C   UNL     1       3.620   4.700  17.299  0.00  0.00    +0.000 A 
ATOM     25  C   UNL     1       4.516   3.865  16.633  0.00  0.00    +0.000 A 
ATOM     26  C   UNL     1       5.777   4.333  16.263  0.00  0.00    +0.000 A 
ATOM     27  C   UNL     1       6.141   5.651  16.542  0.00  0.00    +0.000 A 
ATOM     28  C   UNL     1       5.240   6.500  17.179  0.00  0.00    +0.000 A 
ATOM     29  C   UNL     1       3.980   6.027  17.555  0.00  0.00    +0.000 A 
ENDBRANCH  23  24
ENDBRANCH  22  23
ENDBRANCH  21  22
ENDBRANCH  20  21
ENDBRANCH  19  20
ENDBRANCH  18  19
ENDBRANCH  17  18
ENDBRANCH  16  17
ENDBRANCH   5  16
TORSDOF 13
ENDMDL
MODEL 6
REMARK VINA RESULT:      -6.2      2.793      8.627
REMARK  Name = 
REMARK  15 active torsions:
REMARK  status: ('A' for Active; 'I' for Inactive)
REMARK    1  A    between atoms: C_1  and  C_2
REMARK    2  A    between atoms: N_4  and  C_5
REMARK    3  A    between atoms: C_5  and  C_6
REMARK    4  A    between atoms: C_6  and  N_7
REMARK    5  A    between atoms: N_7  and  C_8
REMARK    6  A    between atoms: N_7  and  C_9
REMARK    7  A    between atoms: C_13  and  O_14
REMARK    8  A    between atoms: O_14  and  C_15
REMARK    9  A    between atoms: C_15  and  C_16
REMARK   10  A    between atoms: C_16  and  C_17
REMARK   11  A    between atoms: C_17  and  C_18
REMARK   12  A    between atoms: C_18  and  C_19
REMARK   13  A    between atoms: C_19  and  C_20
REMARK   14  A    between atoms: C_20  and  O_21
REMARK   15  A    between atoms: O_21  and  C_22
REMARK                            x       y       z     vdW  Elec       q    Type
REMARK                         _______ _______ _______ _____ _____    ______ ____
ROOT
ATOM      1  C   UNL     1       2.894   5.816  18.728  0.00  0.00    +0.000 A 
ATOM      2  C   UNL     1       2.929   6.802  17.729  0.00  0.00    +0.000 A 
ATOM      3  C   UNL     1       2.452   8.103  17.948  0.00  0.00    +0.000 A 
ATOM      4  C   UNL     1       1.942   8.462  19.189  0.00  0.00    +0.000 A 
ATOM      5  C   UNL     1       1.909   7.528  20.216  0.00  0.00    +0.000 A 
ATOM      6  C   UNL     1       2.381   6.230  19.975  0.00  0.00    +0.000 A 
ENDROOT
BRANCH   1   7
ATOM      7  N   UNL     1       3.311   4.494  18.504  0.00  0.00    +0.000 N 
ATOM      8  C   UNL     1       3.549   3.630  19.658  0.00  0.00    +0.000 C 
BRANCH   7   9
ATOM      9  C   UNL     1       3.645   4.043  17.136  0.00  0.00    +0.000 C 
BRANCH   9  10
ATOM     10  C   UNL     1       5.145   3.856  16.854  0.00  0.00    +0.000 C 
BRANCH  10  14
ATOM     11  C   UNL     1       7.177   6.996  17.414  0.00  0.00    +0.000 C 
ATOM     12  C   UNL     1       6.398   5.967  16.642  0.00  0.00    +0.000 C 
ATOM     13  O   UNL     1       6.157   6.083  15.446  0.00  0.00    +0.000 OA
ATOM     14  N   UNL     1       5.981   4.905  17.406  0.00  0.00    +0.000 N 
ATOM     15  H   UNL     1       6.258   4.846  18.380  0.00  0.00    +0.000 HD
ENDBRANCH  10  14
ENDBRANCH   9  10
ENDBRANCH   7   9
ENDBRANCH   1   7
BRANCH   5  16
ATOM     16  O   UNL     1       1.398   7.987  21.402  0.00  0.00    +0.000 OA
BRANCH  16  17
ATOM     17  C   UNL     1       0.024   8.365  21.382  0.00  0.00    +0.000 C 
BRANCH  17  18
ATOM     18  C   UNL     1      -0.254   9.301  22.554  0.00  0.00    +0.000 C 
BRANCH  18  19
ATOM     19  C   UNL     1      -0.409  10.729  22.043  0.00  0.00    +0.000 C 
BRANCH  19  20
ATOM     20  C   UNL     1      -1.344  11.565  22.916  0.00  0.00    +0.000 C 
BRANCH  20  21
ATOM     21  C   UNL     1      -2.245  12.490  22.092  0.00  0.00    +0.000 C 
BRANCH  21  22
ATOM     22  C   UNL     1      -1.825  12.557  20.624  0.00  0.00    +0.000 C 
BRANCH  22  23
ATOM     23  O   UNL     1      -2.984  12.492  19.796  0.00  0.00    +0.000 OA
BRANCH  23  24
ATOM     24  C   UNL     1      -2.861  11.656  18.717  0.00  0.00    +0.000 A 
ATOM     25  C   UNL     1      -1.693  10.896  18.687  0.00  0.00    +0.000 A 
ATOM     26  C   UNL     1      -1.445  10.024  17.627  0.00  0.00    +0.000 A 
ATOM     27  C   UNL     1      -2.378   9.893  16.598  0.00  0.00    +0.000 A 
ATOM     28  C   UNL     1      -3.562  10.627  16.637  0.00  0.00    +0.000 A 
ATOM     29  C   UNL     1      -3.805  11.505  17.696  0.00  0.00    +0.000 A 
ENDBRANCH  23  24
ENDBRANCH  22  23
ENDBRANCH  21  22
ENDBRANCH  20  21
ENDBRANCH  19  20
ENDBRANCH  18  19
ENDBRANCH  17  18
ENDBRANCH  16  17
ENDBRANCH   5  16
TORSDOF 13
ENDMDL
MODEL 7
REMARK VINA RESULT:      -6.2      2.553      3.834
REMARK  Name = 
REMARK  15 active torsions:
REMARK  status: ('A' for Active; 'I' for Inactive)
REMARK    1  A    between atoms: C_1  and  C_2
REMARK    2  A    between atoms: N_4  and  C_5
REMARK    3  A    between atoms: C_5  and  C_6
REMARK    4  A    between atoms: C_6  and  N_7
REMARK    5  A    between atoms: N_7  and  C_8
REMARK    6  A    between atoms: N_7  and  C_9
REMARK    7  A    between atoms: C_13  and  O_14
REMARK    8  A    between atoms: O_14  and  C_15
REMARK    9  A    between atoms: C_15  and  C_16
REMARK   10  A    between atoms: C_16  and  C_17
REMARK   11  A    between atoms: C_17  and  C_18
REMARK   12  A    between atoms: C_18  and  C_19
REMARK   13  A    between atoms: C_19  and  C_20
REMARK   14  A    between atoms: C_20  and  O_21
REMARK   15  A    between atoms: O_21  and  C_22
REMARK                            x       y       z     vdW  Elec       q    Type
REMARK                         _______ _______ _______ _____ _____    ______ ____
ROOT
ATOM      1  C   UNL     1      -0.709  11.101  20.469  0.00  0.00    +0.000 A 
ATOM      2  C   UNL     1      -0.995  11.371  21.818  0.00  0.00    +0.000 A 
ATOM      3  C   UNL     1      -0.552  10.539  22.856  0.00  0.00    +0.000 A 
ATOM      4  C   UNL     1       0.216   9.416  22.574  0.00  0.00    +0.000 A 
ATOM      5  C   UNL     1       0.547   9.121  21.258  0.00  0.00    +0.000 A 
ATOM      6  C   UNL     1       0.085   9.959  20.232  0.00  0.00    +0.000 A 
ENDROOT
BRANCH   1   7
ATOM      7  N   UNL     1      -1.198  11.890  19.417  0.00  0.00    +0.000 N 
ATOM      8  C   UNL     1      -2.609  11.776  19.054  0.00  0.00    +0.000 C 
BRANCH   7   9
ATOM      9  C   UNL     1      -0.268  12.701  18.602  0.00  0.00    +0.000 C 
BRANCH   9  10
ATOM     10  C   UNL     1       0.180  14.026  19.241  0.00  0.00    +0.000 C 
BRANCH  10  14
ATOM     11  C   UNL     1      -0.650  17.516  18.043  0.00  0.00    +0.000 C 
ATOM     12  C   UNL     1       0.106  16.446  18.781  0.00  0.00    +0.000 C 
ATOM     13  O   UNL     1       1.130  16.679  19.412  0.00  0.00    +0.000 OA
ATOM     14  N   UNL     1      -0.455  15.198  18.668  0.00  0.00    +0.000 N 
ATOM     15  H   UNL     1      -1.331  15.083  18.171  0.00  0.00    +0.000 HD
ENDBRANCH  10  14
ENDBRANCH   9  10
ENDBRANCH   7   9
ENDBRANCH   1   7
BRANCH   5  16
ATOM     16  O   UNL     1       1.315   7.999  21.090  0.00  0.00    +0.000 OA
BRANCH  16  17
ATOM     17  C   UNL     1       1.869   7.814  19.791  0.00  0.00    +0.000 C 
BRANCH  17  18
ATOM     18  C   UNL     1       2.471   6.415  19.699  0.00  0.00    +0.000 C 
BRANCH  18  19
ATOM     19  C   UNL     1       1.922   5.547  20.827  0.00  0.00    +0.000 C 
BRANCH  19  20
ATOM     20  C   UNL     1       1.017   4.427  20.316  0.00  0.00    +0.000 C 
BRANCH  20  21
ATOM     21  C   UNL     1       1.304   3.085  20.997  0.00  0.00    +0.000 C 
BRANCH  21  22
ATOM     22  C   UNL     1       2.769   2.670  20.874  0.00  0.00    +0.000 C 
BRANCH  22  23
ATOM     23  O   UNL     1       3.025   2.220  19.546  0.00  0.00    +0.000 OA
BRANCH  23  24
ATOM     24  C   UNL     1       3.851   3.038  18.821  0.00  0.00    +0.000 A 
ATOM     25  C   UNL     1       3.473   3.236  17.494  0.00  0.00    +0.000 A 
ATOM     26  C   UNL     1       4.247   4.032  16.650  0.00  0.00    +0.000 A 
ATOM     27  C   UNL     1       5.397   4.654  17.138  0.00  0.00    +0.000 A 
ATOM     28  C   UNL     1       5.763   4.486  18.471  0.00  0.00    +0.000 A 
ATOM     29  C   UNL     1       4.991   3.682  19.313  0.00  0.00    +0.000 A 
ENDBRANCH  23  24
ENDBRANCH  22  23
ENDBRANCH  21  22
ENDBRANCH  20  21
ENDBRANCH  19  20
ENDBRANCH  18  19
ENDBRANCH  17  18
ENDBRANCH  16  17
ENDBRANCH   5  16
TORSDOF 13
ENDMDL
MODEL 8
REMARK VINA RESULT:      -6.2      1.910      2.761
REMARK  Name = 
REMARK  15 active torsions:
REMARK  status: ('A' for Active; 'I' for Inactive)
REMARK    1  A    between atoms: C_1  and  C_2
REMARK    2  A    between atoms: N_4  and  C_5
REMARK    3  A    between atoms: C_5  and  C_6
REMARK    4  A    between atoms: C_6  and  N_7
REMARK    5  A    between atoms: N_7  and  C_8
REMARK    6  A    between atoms: N_7  and  C_9
REMARK    7  A    between atoms: C_13  and  O_14
REMARK    8  A    between atoms: O_14  and  C_15
REMARK    9  A    between atoms: C_15  and  C_16
REMARK   10  A    between atoms: C_16  and  C_17
REMARK   11  A    between atoms: C_17  and  C_18
REMARK   12  A    between atoms: C_18  and  C_19
REMARK   13  A    between atoms: C_19  and  C_20
REMARK   14  A    between atoms: C_20  and  O_21
REMARK   15  A    between atoms: O_21  and  C_22
REMARK                            x       y       z     vdW  Elec       q    Type
REMARK                         _______ _______ _______ _____ _____    ______ ____
ROOT
ATOM      1  C   UNL     1       1.299   8.356  19.940  0.00  0.00    +0.000 A 
ATOM      2  C   UNL     1       2.135   8.239  18.818  0.00  0.00    +0.000 A 
ATOM      3  C   UNL     1       2.944   7.114  18.604  0.00  0.00    +0.000 A 
ATOM      4  C   UNL     1       2.922   6.055  19.502  0.00  0.00    +0.000 A 
ATOM      5  C   UNL     1       2.093   6.112  20.614  0.00  0.00    +0.000 A 
ATOM      6  C   UNL     1       1.300   7.251  20.817  0.00  0.00    +0.000 A 
ENDROOT
BRANCH   1   7
ATOM      7  N   UNL     1       0.533   9.503  20.199  0.00  0.00    +0.000 N 
ATOM      8  C   UNL     1      -0.208   9.580  21.457  0.00  0.00    +0.000 C 
BRANCH   7   9
ATOM      9  C   UNL     1       0.364  10.535  19.154  0.00  0.00    +0.000 C 
BRANCH   9  10
ATOM     10  C   UNL     1      -0.577  10.151  17.999  0.00  0.00    +0.000 C 
BRANCH  10  14
ATOM     11  C   UNL     1      -4.311  10.701  17.770  0.00  0.00    +0.000 C 
ATOM     12  C   UNL     1      -2.895  10.578  17.280  0.00  0.00    +0.000 C 
ATOM     13  O   UNL     1      -2.600  10.642  16.092  0.00  0.00    +0.000 OA
ATOM     14  N   UNL     1      -1.980  10.377  18.285  0.00  0.00    +0.000 N 
ATOM     15  H   UNL     1      -2.286  10.384  19.252  0.00  0.00    +0.000 HD
ENDBRANCH  10  14
ENDBRANCH   9  10
ENDBRANCH   7   9
ENDBRANCH   1   7
BRANCH   5  16
ATOM     16  O   UNL     1       2.138   5.012  21.430  0.00  0.00    +0.000 OA
BRANCH  16  17
ATOM     17  C   UNL     1       2.237   3.753  20.772  0.00  0.00    +0.000 C 
BRANCH  17  18
ATOM     18  C   UNL     1       0.942   3.483  20.012  0.00  0.00    +0.000 C 
BRANCH  18  19
ATOM     19  C   UNL     1       1.235   2.610  18.797  0.00  0.00    +0.000 C 
BRANCH  19  20
ATOM     20  C   UNL     1       2.690   2.712  18.340  0.00  0.00    +0.000 C 
BRANCH  20  21
ATOM     21  C   UNL     1       2.828   3.377  16.967  0.00  0.00    +0.000 C 
BRANCH  21  22
ATOM     22  C   UNL     1       4.251   3.860  16.694  0.00  0.00    +0.000 C 
BRANCH  22  23
ATOM     23  O   UNL     1       4.965   3.954  17.925  0.00  0.00    +0.000 OA
BRANCH  23  24
ATOM     24  C   UNL     1       5.914   4.942  17.955  0.00  0.00    +0.000 A 
ATOM     25  C   UNL     1       6.700   4.974  19.106  0.00  0.00    +0.000 A 
ATOM     26  C   UNL     1       7.686   5.948  19.262  0.00  0.00    +0.000 A 
ATOM     27  C   UNL     1       7.904   6.887  18.253  0.00  0.00    +0.000 A 
ATOM     28  C   UNL     1       7.144   6.842  17.087  0.00  0.00    +0.000 A 
ATOM     29  C   UNL     1       6.152   5.871  16.936  0.00  0.00    +0.000 A 
ENDBRANCH  23  24
ENDBRANCH  22  23
ENDBRANCH  21  22
ENDBRANCH  20  21
ENDBRANCH  19  20
ENDBRANCH  18  19
ENDBRANCH  17  18
ENDBRANCH  16  17
ENDBRANCH   5  16
TORSDOF 13
ENDMDL
MODEL 9
REMARK VINA RESULT:      -6.2      3.976      5.916
REMARK  Name = 
REMARK  15 active torsions:
REMARK  status: ('A' for Active; 'I' for Inactive)
REMARK    1  A    between atoms: C_1  and  C_2
REMARK    2  A    between atoms: N_4  and  C_5
REMARK    3  A    between atoms: C_5  and  C_6
REMARK    4  A    between atoms: C_6  and  N_7
REMARK    5  A    between atoms: N_7  and  C_8
REMARK    6  A    between atoms: N_7  and  C_9
REMARK    7  A    between atoms: C_13  and  O_14
REMARK    8  A    between atoms: O_14  and  C_15
REMARK    9  A    between atoms: C_15  and  C_16
REMARK   10  A    between atoms: C_16  and  C_17
REMARK   11  A    between atoms: C_17  and  C_18
REMARK   12  A    between atoms: C_18  and  C_19
REMARK   13  A    between atoms: C_19  and  C_20
REMARK   14  A    between atoms: C_20  and  O_21
REMARK   15  A    between atoms: O_21  and  C_22
REMARK                            x       y       z     vdW  Elec       q    Type
REMARK                         _______ _______ _______ _____ _____    ______ ____
ROOT
ATOM      1  C   UNL     1       1.652   8.110  19.765  0.00  0.00    +0.000 A 
ATOM      2  C   UNL     1       1.502   7.100  20.729  0.00  0.00    +0.000 A 
ATOM      3  C   UNL     1       1.984   5.799  20.528  0.00  0.00    +0.000 A 
ATOM      4  C   UNL     1       2.655   5.474  19.356  0.00  0.00    +0.000 A 
ATOM      5  C   UNL     1       2.851   6.445  18.383  0.00  0.00    +0.000 A 
ATOM      6  C   UNL     1       2.352   7.739  18.598  0.00  0.00    +0.000 A 
ENDROOT
BRANCH   1   7
ATOM      7  N   UNL     1       1.120   9.399  19.926  0.00  0.00    +0.000 N 
ATOM      8  C   UNL     1       0.863   9.886  21.280  0.00  0.00    +0.000 C 
BRANCH   7   9
ATOM      9  C   UNL     1       0.692  10.179  18.745  0.00  0.00    +0.000 C 
BRANCH   9  10
ATOM     10  C   UNL     1      -0.829  10.324  18.571  0.00  0.00    +0.000 C 
BRANCH  10  14
ATOM     11  C   UNL     1      -2.859   9.957  15.402  0.00  0.00    +0.000 C 
ATOM     12  C   UNL     1      -2.569   9.908  16.876  0.00  0.00    +0.000 C 
ATOM     13  O   UNL     1      -3.420   9.612  17.706  0.00  0.00    +0.000 OA
ATOM     14  N   UNL     1      -1.273  10.235  17.193  0.00  0.00    +0.000 N 
ATOM     15  H   UNL     1      -0.606  10.422  16.453  0.00  0.00    +0.000 HD
ENDBRANCH  10  14
ENDBRANCH   9  10
ENDBRANCH   7   9
ENDBRANCH   1   7
BRANCH   5  16
ATOM     16  O   UNL     1       3.534   6.025  17.272  0.00  0.00    +0.000 OA
BRANCH  16  17
ATOM     17  C   UNL     1       4.808   6.625  17.060  0.00  0.00    +0.000 C 
BRANCH  17  18
ATOM     18  C   UNL     1       5.898   5.656  17.507  0.00  0.00    +0.000 C 
BRANCH  18  19
ATOM     19  C   UNL     1       7.266   6.216  17.131  0.00  0.00    +0.000 C 
BRANCH  19  20
ATOM     20  C   UNL     1       7.813   7.180  18.182  0.00  0.00    +0.000 C 
BRANCH  20  21
ATOM     21  C   UNL     1       7.965   8.607  17.647  0.00  0.00    +0.000 C 
BRANCH  21  22
ATOM     22  C   UNL     1       8.834   9.479  18.551  0.00  0.00    +0.000 C 
BRANCH  22  23
ATOM     23  O   UNL     1       8.409  10.837  18.452  0.00  0.00    +0.000 OA
BRANCH  23  24
ATOM     24  C   UNL     1       9.401  11.717  18.107  0.00  0.00    +0.000 A 
ATOM     25  C   UNL     1       8.987  13.037  17.932  0.00  0.00    +0.000 A 
ATOM     26  C   UNL     1       9.903  14.020  17.559  0.00  0.00    +0.000 A 
ATOM     27  C   UNL     1      11.246  13.691  17.379  0.00  0.00    +0.000 A 
ATOM     28  C   UNL     1      11.673  12.381  17.583  0.00  0.00    +0.000 A 
ATOM     29  C   UNL     1      10.753  11.395  17.949  0.00  0.00    +0.000 A 
ENDBRANCH  23  24
ENDBRANCH  22  23
ENDBRANCH  21  22
ENDBRANCH  20  21
ENDBRANCH  19  20
ENDBRANCH  18  19
ENDBRANCH  17  18
ENDBRANCH  16  17
ENDBRANCH   5  16
TORSDOF 13
ENDMDL
