MODEL 1
REMARK VINA RESULT:      -7.4      0.000      0.000
REMARK  Name = 
REMARK  6 active torsions:
REMARK  status: ('A' for Active; 'I' for Inactive)
REMARK    1  A    between atoms: C_1  and  O_2
REMARK    2  A    between atoms: O_2  and  C_3
REMARK    3  A    between atoms: C_5  and  N_6
REMARK    4  A    between atoms: C_9  and  C_10
REMARK    5  A    between atoms: N_15  and  C_16
REMARK    6  A    between atoms: N_23  and  C_24
REMARK                            x       y       z     vdW  Elec       q    Type
REMARK                         _______ _______ _______ _____ _____    ______ ____
ROOT
ATOM      1  C   UNL     1       9.653  10.938  18.380  0.00  0.00    +0.000 C 
ATOM      2  O   UNL     1      10.054  10.463  19.433  0.00  0.00    +0.000 OA
ATOM      3  N   UNL     1       8.721  10.242  17.633  0.00  0.00    +0.000 N 
ATOM      4  C   UNL     1       8.192   9.026  17.996  0.00  0.00    +0.000 C 
ATOM      5  O   UNL     1       8.539   8.494  19.043  0.00  0.00    +0.000 OA
ATOM      6  N   UNL     1       7.279   8.395  17.187  0.00  0.00    +0.000 N 
ATOM      7  H   UNL     1       8.385  10.633  16.746  0.00  0.00    +0.000 HD
ATOM      8  H   UNL     1       6.996   8.838  16.299  0.00  0.00    +0.000 HD
ENDROOT
BRANCH   6   9
ATOM      9  C   UNL     1       6.692   7.099  17.528  0.00  0.00    +0.000 C 
ATOM     10  C   UNL     1       5.184   7.002  17.157  0.00  0.00    +0.000 C 
ATOM     11  C   UNL     1       4.672   5.519  17.275  0.00  0.00    +0.000 C 
ATOM     12  C   UNL     1       4.842   4.711  15.952  0.00  0.00    +0.000 C 
ATOM     13  C   UNL     1       6.129   3.907  16.141  0.00  0.00    +0.000 C 
ATOM     14  C   UNL     1       6.745   4.572  17.359  0.00  0.00    +0.000 C 
ATOM     15  C   UNL     1       7.431   5.920  16.891  0.00  0.00    +0.000 C 
ATOM     16  N   UNL     1       5.569   4.863  18.236  0.00  0.00    +0.000 NA
ATOM     17  C   UNL     1       4.959   3.701  18.905  0.00  0.00    +0.000 C 
ENDBRANCH   6   9
BRANCH   1  23
ATOM     18  C   UNL     1       9.560  13.506  18.323  0.00  0.00    +0.000 A 
ATOM     19  C   UNL     1      10.106  14.741  17.909  0.00  0.00    +0.000 A 
ATOM     20  C   UNL     1      11.269  14.796  17.144  0.00  0.00    +0.000 A 
ATOM     21  C   UNL     1      11.909  13.612  16.784  0.00  0.00    +0.000 A 
ATOM     22  C   UNL     1      11.393  12.377  17.182  0.00  0.00    +0.000 A 
ATOM     23  C   UNL     1      10.212  12.285  17.955  0.00  0.00    +0.000 A 
BRANCH  20  24
ATOM     24  N   UNL     1      11.793  16.048  16.734  0.00  0.00    +0.000 N 
ATOM     25  H   UNL     1      12.774  16.298  16.932  0.00  0.00    +0.000 HD
ATOM     26  H   UNL     1      11.201  16.732  16.241  0.00  0.00    +0.000 HD
ENDBRANCH  20  24
BRANCH  18  28
ATOM     27  C   UNL     1       8.272  13.970  20.350  0.00  0.00    +0.000 C 
ATOM     28  O   UNL     1       8.415  13.480  19.063  0.00  0.00    +0.000 OA
ENDBRANCH  18  28
ENDBRANCH   1  23
TORSDOF 4
ENDMDL
MODEL 2
REMARK VINA RESULT:      -7.3      6.624     10.425
REMARK  Name = 
REMARK  6 active torsions:
REMARK  status: ('A' for Active; 'I' for Inactive)
REMARK    1  A    between atoms: C_1  and  O_2
REMARK    2  A    between atoms: O_2  and  C_3
REMARK    3  A    between atoms: C_5  and  N_6
REMARK    4  A    between atoms: C_9  and  C_10
REMARK    5  A    between atoms: N_15  and  C_16
REMARK    6  A    between atoms: N_23  and  C_24
REMARK                            x       y       z     vdW  Elec       q    Type
REMARK                         _______ _______ _______ _____ _____    ______ ____
ROOT
ATOM      1  C   UNL     1       3.095   6.479  18.070  0.00  0.00    +0.000 C 
ATOM      2  O   UNL     1       3.747   7.076  17.225  0.00  0.00    +0.000 OA
ATOM      3  N   UNL     1       2.199   7.181  18.855  0.00  0.00    +0.000 N 
ATOM      4  C   UNL     1       1.974   8.533  18.751  0.00  0.00    +0.000 C 
ATOM      5  O   UNL     1       2.582   9.194  17.919  0.00  0.00    +0.000 OA
ATOM      6  N   UNL     1       1.073   9.155  19.580  0.00  0.00    +0.000 N 
ATOM      7  H   UNL     1       1.654   6.687  19.569  0.00  0.00    +0.000 HD
ATOM      8  H   UNL     1       0.569   8.599  20.289  0.00  0.00    +0.000 HD
ENDROOT
BRANCH   6   9
ATOM      9  C   UNL     1       0.803  10.591  19.511  0.00  0.00    +0.000 C 
ATOM     10  C   UNL     1      -0.433  10.932  18.631  0.00  0.00    +0.000 C 
ATOM     11  C   UNL     1      -0.853  12.437  18.812  0.00  0.00    +0.000 C 
ATOM     12  C   UNL     1      -1.875  12.646  19.972  0.00  0.00    +0.000 C 
ATOM     13  C   UNL     1      -1.033  13.106  21.164  0.00  0.00    +0.000 C 
ATOM     14  C   UNL     1       0.376  12.786  20.701  0.00  0.00    +0.000 C 
ATOM     15  C   UNL     1       0.617  11.232  20.888  0.00  0.00    +0.000 C 
ATOM     16  N   UNL     1       0.361  13.139  19.248  0.00  0.00    +0.000 NA
ATOM     17  C   UNL     1       0.348  14.579  18.933  0.00  0.00    +0.000 C 
ENDBRANCH   6   9
BRANCH   1  23
ATOM     18  C   UNL     1       4.396   4.461  18.986  0.00  0.00    +0.000 A 
ATOM     19  C   UNL     1       4.573   3.063  19.086  0.00  0.00    +0.000 A 
ATOM     20  C   UNL     1       3.716   2.178  18.436  0.00  0.00    +0.000 A 
ATOM     21  C   UNL     1       2.662   2.679  17.675  0.00  0.00    +0.000 A 
ATOM     22  C   UNL     1       2.462   4.056  17.560  0.00  0.00    +0.000 A 
ATOM     23  C   UNL     1       3.315   4.983  18.204  0.00  0.00    +0.000 A 
BRANCH  20  24
ATOM     24  N   UNL     1       3.920   0.779  18.547  0.00  0.00    +0.000 N 
ATOM     25  H   UNL     1       3.130   0.147  18.750  0.00  0.00    +0.000 HD
ATOM     26  H   UNL     1       4.860   0.373  18.436  0.00  0.00    +0.000 HD
ENDBRANCH  20  24
BRANCH  18  28
ATOM     27  C   UNL     1       6.578   5.525  19.283  0.00  0.00    +0.000 C 
ATOM     28  O   UNL     1       5.255   5.305  19.625  0.00  0.00    +0.000 OA
ENDBRANCH  18  28
ENDBRANCH   1  23
TORSDOF 4
ENDMDL
MODEL 3
REMARK VINA RESULT:      -7.3      2.189      8.993
REMARK  Name = 
REMARK  6 active torsions:
REMARK  status: ('A' for Active; 'I' for Inactive)
REMARK    1  A    between atoms: C_1  and  O_2
REMARK    2  A    between atoms: O_2  and  C_3
REMARK    3  A    between atoms: C_5  and  N_6
REMARK    4  A    between atoms: C_9  and  C_10
REMARK    5  A    between atoms: N_15  and  C_16
REMARK    6  A    between atoms: N_23  and  C_24
REMARK                            x       y       z     vdW  Elec       q    Type
REMARK                         _______ _______ _______ _____ _____    ______ ____
ROOT
ATOM      1  C   UNL     1       6.438   6.428  17.064  0.00  0.00    +0.000 C 
ATOM      2  O   UNL     1       7.287   6.043  16.272  0.00  0.00    +0.000 OA
ATOM      3  N   UNL     1       6.623   7.627  17.726  0.00  0.00    +0.000 N 
ATOM      4  C   UNL     1       7.715   8.445  17.553  0.00  0.00    +0.000 C 
ATOM      5  O   UNL     1       8.599   8.130  16.768  0.00  0.00    +0.000 OA
ATOM      6  N   UNL     1       7.826   9.616  18.262  0.00  0.00    +0.000 N 
ATOM      7  H   UNL     1       5.918   7.953  18.395  0.00  0.00    +0.000 HD
ATOM      8  H   UNL     1       7.085   9.876  18.932  0.00  0.00    +0.000 HD
ENDROOT
BRANCH   6   9
ATOM      9  C   UNL     1       8.969  10.517  18.116  0.00  0.00    +0.000 C 
ATOM     10  C   UNL     1       8.552  11.968  17.743  0.00  0.00    +0.000 C 
ATOM     11  C   UNL     1       9.771  12.954  17.875  0.00  0.00    +0.000 C 
ATOM     12  C   UNL     1       9.899  13.573  19.301  0.00  0.00    +0.000 C 
ATOM     13  C   UNL     1      10.961  12.728  20.006  0.00  0.00    +0.000 C 
ATOM     14  C   UNL     1      11.080  11.530  19.082  0.00  0.00    +0.000 C 
ATOM     15  C   UNL     1       9.855  10.566  19.363  0.00  0.00    +0.000 C 
ATOM     16  N   UNL     1      10.973  12.125  17.714  0.00  0.00    +0.000 NA
ATOM     17  C   UNL     1      12.147  12.881  17.245  0.00  0.00    +0.000 C 
ENDBRANCH   6   9
BRANCH   1  23
ATOM     18  C   UNL     1       3.942   6.120  17.591  0.00  0.00    +0.000 A 
ATOM     19  C   UNL     1       2.827   5.273  17.780  0.00  0.00    +0.000 A 
ATOM     20  C   UNL     1       2.942   3.890  17.662  0.00  0.00    +0.000 A 
ATOM     21  C   UNL     1       4.179   3.330  17.349  0.00  0.00    +0.000 A 
ATOM     22  C   UNL     1       5.297   4.142  17.155  0.00  0.00    +0.000 A 
ATOM     23  C   UNL     1       5.216   5.550  17.270  0.00  0.00    +0.000 A 
BRANCH  20  24
ATOM     24  N   UNL     1       1.809   3.062  17.864  0.00  0.00    +0.000 N 
ATOM     25  H   UNL     1       0.881   3.347  17.514  0.00  0.00    +0.000 HD
ATOM     26  H   UNL     1       1.892   2.168  18.369  0.00  0.00    +0.000 HD
ENDBRANCH  20  24
BRANCH  18  28
ATOM     27  C   UNL     1       2.614   8.144  17.940  0.00  0.00    +0.000 C 
ATOM     28  O   UNL     1       3.803   7.470  17.722  0.00  0.00    +0.000 OA
ENDBRANCH  18  28
ENDBRANCH   1  23
TORSDOF 4
ENDMDL
MODEL 4
REMARK VINA RESULT:      -7.2      7.140      8.152
REMARK  Name = 
REMARK  6 active torsions:
REMARK  status: ('A' for Active; 'I' for Inactive)
REMARK    1  A    between atoms: C_1  and  O_2
REMARK    2  A    between atoms: O_2  and  C_3
REMARK    3  A    between atoms: C_5  and  N_6
REMARK    4  A    between atoms: C_9  and  C_10
REMARK    5  A    between atoms: N_15  and  C_16
REMARK    6  A    between atoms: N_23  and  C_24
REMARK                            x       y       z     vdW  Elec       q    Type
REMARK                         _______ _______ _______ _____ _____    ______ ____
ROOT
ATOM      1  C   UNL     1       1.576  10.106  18.446  0.00  0.00    +0.000 C 
ATOM      2  O   UNL     1       2.230   9.939  17.426  0.00  0.00    +0.000 OA
ATOM      3  N   UNL     1       1.464   9.070  19.355  0.00  0.00    +0.000 N 
ATOM      4  C   UNL     1       2.052   7.837  19.199  0.00  0.00    +0.000 C 
ATOM      5  O   UNL     1       2.731   7.603  18.208  0.00  0.00    +0.000 OA
ATOM      6  N   UNL     1       1.879   6.859  20.147  0.00  0.00    +0.000 N 
ATOM      7  H   UNL     1       0.912   9.201  20.210  0.00  0.00    +0.000 HD
ATOM      8  H   UNL     1       1.297   7.054  20.977  0.00  0.00    +0.000 HD
ENDROOT
BRANCH   6   9
ATOM      9  C   UNL     1       2.480   5.531  20.024  0.00  0.00    +0.000 C 
ATOM     10  C   UNL     1       2.194   4.621  21.253  0.00  0.00    +0.000 C 
ATOM     11  C   UNL     1       2.610   3.133  20.958  0.00  0.00    +0.000 C 
ATOM     12  C   UNL     1       1.457   2.295  20.324  0.00  0.00    +0.000 C 
ATOM     13  C   UNL     1       1.744   2.300  18.822  0.00  0.00    +0.000 C 
ATOM     14  C   UNL     1       2.788   3.394  18.700  0.00  0.00    +0.000 C 
ATOM     15  C   UNL     1       2.048   4.792  18.755  0.00  0.00    +0.000 C 
ATOM     16  N   UNL     1       3.641   3.206  19.914  0.00  0.00    +0.000 NA
ATOM     17  C   UNL     1       4.541   2.040  19.898  0.00  0.00    +0.000 C 
ENDBRANCH   6   9
BRANCH   1  23
ATOM     18  C   UNL     1      -0.498  11.578  18.810  0.00  0.00    +0.000 A 
ATOM     19  C   UNL     1      -1.075  12.855  18.997  0.00  0.00    +0.000 A 
ATOM     20  C   UNL     1      -0.290  14.005  19.026  0.00  0.00    +0.000 A 
ATOM     21  C   UNL     1       1.090  13.896  18.873  0.00  0.00    +0.000 A 
ATOM     22  C   UNL     1       1.688  12.647  18.690  0.00  0.00    +0.000 A 
ATOM     23  C   UNL     1       0.920  11.460  18.651  0.00  0.00    +0.000 A 
BRANCH  20  24
ATOM     24  N   UNL     1      -0.895  15.274  19.207  0.00  0.00    +0.000 N 
ATOM     25  H   UNL     1      -0.943  15.705  20.143  0.00  0.00    +0.000 HD
ATOM     26  H   UNL     1      -1.303  15.783  18.409  0.00  0.00    +0.000 HD
ENDBRANCH  20  24
BRANCH  18  28
ATOM     27  C   UNL     1      -2.045  10.047  17.696  0.00  0.00    +0.000 C 
ATOM     28  O   UNL     1      -1.291  10.470  18.776  0.00  0.00    +0.000 OA
ENDBRANCH  18  28
ENDBRANCH   1  23
TORSDOF 4
ENDMDL
MODEL 5
REMARK VINA RESULT:      -7.1      7.163      8.632
REMARK  Name = 
REMARK  6 active torsions:
REMARK  status: ('A' for Active; 'I' for Inactive)
REMARK    1  A    between atoms: C_1  and  O_2
REMARK    2  A    between atoms: O_2  and  C_3
REMARK    3  A    between atoms: C_5  and  N_6
REMARK    4  A    between atoms: C_9  and  C_10
REMARK    5  A    between atoms: N_15  and  C_16
REMARK    6  A    between atoms: N_23  and  C_24
REMARK                            x       y       z     vdW  Elec       q    Type
REMARK                         _______ _______ _______ _____ _____    ______ ____
ROOT
ATOM      1  C   UNL     1       0.825  10.449  19.396  0.00  0.00    +0.000 C 
ATOM      2  O   UNL     1       1.354  10.954  18.415  0.00  0.00    +0.000 OA
ATOM      3  N   UNL     1       1.096   9.130  19.708  0.00  0.00    +0.000 N 
ATOM      4  C   UNL     1       1.942   8.323  18.984  0.00  0.00    +0.000 C 
ATOM      5  O   UNL     1       2.515   8.763  17.997  0.00  0.00    +0.000 OA
ATOM      6  N   UNL     1       2.145   7.017  19.358  0.00  0.00    +0.000 N 
ATOM      7  H   UNL     1       0.652   8.699  20.526  0.00  0.00    +0.000 HD
ATOM      8  H   UNL     1       1.653   6.643  20.184  0.00  0.00    +0.000 HD
ENDROOT
BRANCH   6   9
ATOM      9  C   UNL     1       3.031   6.117  18.619  0.00  0.00    +0.000 C 
ATOM     10  C   UNL     1       4.181   5.545  19.495  0.00  0.00    +0.000 C 
ATOM     11  C   UNL     1       4.929   4.380  18.749  0.00  0.00    +0.000 C 
ATOM     12  C   UNL     1       4.297   2.980  19.022  0.00  0.00    +0.000 C 
ATOM     13  C   UNL     1       3.404   2.706  17.811  0.00  0.00    +0.000 C 
ATOM     14  C   UNL     1       3.329   4.072  17.154  0.00  0.00    +0.000 C 
ATOM     15  C   UNL     1       2.289   4.952  17.961  0.00  0.00    +0.000 C 
ATOM     16  N   UNL     1       4.711   4.619  17.317  0.00  0.00    +0.000 NA
ATOM     17  C   UNL     1       5.748   4.019  16.459  0.00  0.00    +0.000 C 
ENDBRANCH   6   9
BRANCH   1  23
ATOM     18  C   UNL     1      -0.146  11.215  21.648  0.00  0.00    +0.000 A 
ATOM     19  C   UNL     1      -1.028  12.037  22.384  0.00  0.00    +0.000 A 
ATOM     20  C   UNL     1      -1.868  12.948  21.746  0.00  0.00    +0.000 A 
ATOM     21  C   UNL     1      -1.834  13.054  20.358  0.00  0.00    +0.000 A 
ATOM     22  C   UNL     1      -0.970  12.256  19.605  0.00  0.00    +0.000 A 
ATOM     23  C   UNL     1      -0.108  11.318  20.220  0.00  0.00    +0.000 A 
BRANCH  20  24
ATOM     24  N   UNL     1      -2.749  13.756  22.507  0.00  0.00    +0.000 N 
ATOM     25  H   UNL     1      -3.727  13.892  22.209  0.00  0.00    +0.000 HD
ATOM     26  H   UNL     1      -2.426  14.227  23.364  0.00  0.00    +0.000 HD
ENDBRANCH  20  24
BRANCH  18  28
ATOM     27  C   UNL     1       0.241   9.378  23.216  0.00  0.00    +0.000 C 
ATOM     28  O   UNL     1       0.658  10.325  22.297  0.00  0.00    +0.000 OA
ENDBRANCH  18  28
ENDBRANCH   1  23
TORSDOF 4
ENDMDL
MODEL 6
REMARK VINA RESULT:      -6.9      7.245     10.635
REMARK  Name = 
REMARK  6 active torsions:
REMARK  status: ('A' for Active; 'I' for Inactive)
REMARK    1  A    between atoms: C_1  and  O_2
REMARK    2  A    between atoms: O_2  and  C_3
REMARK    3  A    between atoms: C_5  and  N_6
REMARK    4  A    between atoms: C_9  and  C_10
REMARK    5  A    between atoms: N_15  and  C_16
REMARK    6  A    between atoms: N_23  and  C_24
REMARK                            x       y       z     vdW  Elec       q    Type
REMARK                         _______ _______ _______ _____ _____    ______ ____
ROOT
ATOM      1  C   UNL     1       2.084   8.034  18.587  0.00  0.00    +0.000 C 
ATOM      2  O   UNL     1       1.554   8.412  17.552  0.00  0.00    +0.000 OA
ATOM      3  N   UNL     1       1.686   8.583  19.792  0.00  0.00    +0.000 N 
ATOM      4  C   UNL     1       0.709   9.543  19.918  0.00  0.00    +0.000 C 
ATOM      5  O   UNL     1       0.128   9.961  18.925  0.00  0.00    +0.000 OA
ATOM      6  N   UNL     1       0.384  10.045  21.154  0.00  0.00    +0.000 N 
ATOM      7  H   UNL     1       2.130   8.274  20.663  0.00  0.00    +0.000 HD
ATOM      8  H   UNL     1       0.882   9.700  21.989  0.00  0.00    +0.000 HD
ENDROOT
BRANCH   6   9
ATOM      9  C   UNL     1      -0.644  11.070  21.340  0.00  0.00    +0.000 C 
ATOM     10  C   UNL     1      -1.205  11.108  22.790  0.00  0.00    +0.000 C 
ATOM     11  C   UNL     1      -2.087  12.391  23.016  0.00  0.00    +0.000 C 
ATOM     12  C   UNL     1      -1.259  13.614  23.519  0.00  0.00    +0.000 C 
ATOM     13  C   UNL     1      -0.991  14.453  22.269  0.00  0.00    +0.000 C 
ATOM     14  C   UNL     1      -1.363  13.491  21.155  0.00  0.00    +0.000 C 
ATOM     15  C   UNL     1      -0.166  12.473  20.961  0.00  0.00    +0.000 C 
ATOM     16  N   UNL     1      -2.569  12.784  21.686  0.00  0.00    +0.000 NA
ATOM     17  C   UNL     1      -3.814  13.569  21.723  0.00  0.00    +0.000 C 
ENDBRANCH   6   9
BRANCH   1  23
ATOM     18  C   UNL     1       3.200   5.863  19.392  0.00  0.00    +0.000 A 
ATOM     19  C   UNL     1       4.217   4.891  19.266  0.00  0.00    +0.000 A 
ATOM     20  C   UNL     1       5.189   4.987  18.272  0.00  0.00    +0.000 A 
ATOM     21  C   UNL     1       5.155   6.058  17.383  0.00  0.00    +0.000 A 
ATOM     22  C   UNL     1       4.160   7.032  17.481  0.00  0.00    +0.000 A 
ATOM     23  C   UNL     1       3.160   6.968  18.481  0.00  0.00    +0.000 A 
BRANCH  20  24
ATOM     24  N   UNL     1       6.203   4.002  18.172  0.00  0.00    +0.000 N 
ATOM     25  H   UNL     1       7.001   4.000  18.827  0.00  0.00    +0.000 HD
ATOM     26  H   UNL     1       6.166   3.278  17.440  0.00  0.00    +0.000 HD
ENDBRANCH  20  24
BRANCH  18  28
ATOM     27  C   UNL     1       1.647   4.579  20.778  0.00  0.00    +0.000 C 
ATOM     28  O   UNL     1       2.267   5.750  20.380  0.00  0.00    +0.000 OA
ENDBRANCH  18  28
ENDBRANCH   1  23
TORSDOF 4
ENDMDL
MODEL 7
REMARK VINA RESULT:      -6.9      6.419      8.099
REMARK  Name = 
REMARK  6 active torsions:
REMARK  status: ('A' for Active; 'I' for Inactive)
REMARK    1  A    between atoms: C_1  and  O_2
REMARK    2  A    between atoms: O_2  and  C_3
REMARK    3  A    between atoms: C_5  and  N_6
REMARK    4  A    between atoms: C_9  and  C_10
REMARK    5  A    between atoms: N_15  and  C_16
REMARK    6  A    between atoms: N_23  and  C_24
REMARK                            x       y       z     vdW  Elec       q    Type
REMARK                         _______ _______ _______ _____ _____    ______ ____
ROOT
ATOM      1  C   UNL     1       0.510  10.175  20.690  0.00  0.00    +0.000 C 
ATOM      2  O   UNL     1       0.388   9.687  21.804  0.00  0.00    +0.000 OA
ATOM      3  N   UNL     1       1.158   9.456  19.703  0.00  0.00    +0.000 N 
ATOM      4  C   UNL     1       1.685   8.198  19.883  0.00  0.00    +0.000 C 
ATOM      5  O   UNL     1       1.590   7.643  20.969  0.00  0.00    +0.000 OA
ATOM      6  N   UNL     1       2.326   7.559  18.850  0.00  0.00    +0.000 N 
ATOM      7  H   UNL     1       1.269   9.861  18.767  0.00  0.00    +0.000 HD
ATOM      8  H   UNL     1       2.416   8.032  17.937  0.00  0.00    +0.000 HD
ENDROOT
BRANCH   6   9
ATOM      9  C   UNL     1       2.906   6.223  18.993  0.00  0.00    +0.000 C 
ATOM     10  C   UNL     1       1.906   5.087  18.635  0.00  0.00    +0.000 C 
ATOM     11  C   UNL     1       2.644   3.703  18.528  0.00  0.00    +0.000 C 
ATOM     12  C   UNL     1       3.178   3.410  17.092  0.00  0.00    +0.000 C 
ATOM     13  C   UNL     1       4.658   3.794  17.133  0.00  0.00    +0.000 C 
ATOM     14  C   UNL     1       4.748   4.578  18.430  0.00  0.00    +0.000 C 
ATOM     15  C   UNL     1       4.181   6.033  18.168  0.00  0.00    +0.000 C 
ATOM     16  N   UNL     1       3.848   3.828  19.359  0.00  0.00    +0.000 NA
ATOM     17  C   UNL     1       4.358   2.535  19.849  0.00  0.00    +0.000 C 
ENDBRANCH   6   9
BRANCH   1  23
ATOM     18  C   UNL     1       0.691  12.577  19.795  0.00  0.00    +0.000 A 
ATOM     19  C   UNL     1       0.123  13.856  19.599  0.00  0.00    +0.000 A 
ATOM     20  C   UNL     1      -1.166  14.148  20.040  0.00  0.00    +0.000 A 
ATOM     21  C   UNL     1      -1.910  13.162  20.683  0.00  0.00    +0.000 A 
ATOM     22  C   UNL     1      -1.375  11.889  20.888  0.00  0.00    +0.000 A 
ATOM     23  C   UNL     1      -0.069  11.559  20.457  0.00  0.00    +0.000 A 
BRANCH  20  24
ATOM     24  N   UNL     1      -1.710  15.441  19.836  0.00  0.00    +0.000 N 
ATOM     25  H   UNL     1      -1.099  16.239  19.604  0.00  0.00    +0.000 HD
ATOM     26  H   UNL     1      -2.723  15.607  19.925  0.00  0.00    +0.000 HD
ENDBRANCH  20  24
BRANCH  18  28
ATOM     27  C   UNL     1       2.528  12.799  18.196  0.00  0.00    +0.000 C 
ATOM     28  O   UNL     1       1.958  12.320  19.363  0.00  0.00    +0.000 OA
ENDBRANCH  18  28
ENDBRANCH   1  23
TORSDOF 4
ENDMDL
MODEL 8
REMARK VINA RESULT:      -6.9      6.728      9.976
REMARK  Name = 
REMARK  6 active torsions:
REMARK  status: ('A' for Active; 'I' for Inactive)
REMARK    1  A    between atoms: C_1  and  O_2
REMARK    2  A    between atoms: O_2  and  C_3
REMARK    3  A    between atoms: C_5  and  N_6
REMARK    4  A    between atoms: C_9  and  C_10
REMARK    5  A    between atoms: N_15  and  C_16
REMARK    6  A    between atoms: N_23  and  C_24
REMARK                            x       y       z     vdW  Elec       q    Type
REMARK                         _______ _______ _______ _____ _____    ______ ____
ROOT
ATOM      1  C   UNL     1       3.280   6.488  18.476  0.00  0.00    +0.000 C 
ATOM      2  O   UNL     1       3.286   6.037  19.613  0.00  0.00    +0.000 OA
ATOM      3  N   UNL     1       2.573   7.647  18.211  0.00  0.00    +0.000 N 
ATOM      4  C   UNL     1       1.862   8.351  19.154  0.00  0.00    +0.000 C 
ATOM      5  O   UNL     1       1.832   7.965  20.315  0.00  0.00    +0.000 OA
ATOM      6  N   UNL     1       1.176   9.487  18.801  0.00  0.00    +0.000 N 
ATOM      7  H   UNL     1       2.560   8.028  17.259  0.00  0.00    +0.000 HD
ATOM      8  H   UNL     1       1.192   9.807  17.820  0.00  0.00    +0.000 HD
ENDROOT
BRANCH   6   9
ATOM      9  C   UNL     1       0.402  10.269  19.766  0.00  0.00    +0.000 C 
ATOM     10  C   UNL     1       1.215  11.440  20.388  0.00  0.00    +0.000 C 
ATOM     11  C   UNL     1       0.274  12.411  21.192  0.00  0.00    +0.000 C 
ATOM     12  C   UNL     1      -0.315  13.554  20.308  0.00  0.00    +0.000 C 
ATOM     13  C   UNL     1      -1.718  13.080  19.930  0.00  0.00    +0.000 C 
ATOM     14  C   UNL     1      -1.674  11.613  20.315  0.00  0.00    +0.000 C 
ATOM     15  C   UNL     1      -0.896  10.828  19.181  0.00  0.00    +0.000 C 
ATOM     16  N   UNL     1      -0.888  11.604  21.587  0.00  0.00    +0.000 NA
ATOM     17  C   UNL     1      -1.582  12.123  22.779  0.00  0.00    +0.000 C 
ENDBRANCH   6   9
BRANCH   1  23
ATOM     18  C   UNL     1       3.953   4.315  17.282  0.00  0.00    +0.000 A 
ATOM     19  C   UNL     1       4.699   3.648  16.284  0.00  0.00    +0.000 A 
ATOM     20  C   UNL     1       5.543   4.347  15.424  0.00  0.00    +0.000 A 
ATOM     21  C   UNL     1       5.653   5.730  15.547  0.00  0.00    +0.000 A 
ATOM     22  C   UNL     1       4.926   6.417  16.522  0.00  0.00    +0.000 A 
ATOM     23  C   UNL     1       4.063   5.737  17.414  0.00  0.00    +0.000 A 
BRANCH  20  24
ATOM     24  N   UNL     1       6.286   3.653  14.437  0.00  0.00    +0.000 N 
ATOM     25  H   UNL     1       6.744   2.756  14.657  0.00  0.00    +0.000 HD
ATOM     26  H   UNL     1       6.387   4.037  13.486  0.00  0.00    +0.000 HD
ENDBRANCH  20  24
BRANCH  18  28
ATOM     27  C   UNL     1       2.759   2.286  17.944  0.00  0.00    +0.000 C 
ATOM     28  O   UNL     1       3.142   3.605  18.116  0.00  0.00    +0.000 OA
ENDBRANCH  18  28
ENDBRANCH   1  23
TORSDOF 4
ENDMDL
MODEL 9
REMARK VINA RESULT:      -6.9      6.942     10.799
REMARK  Name = 
REMARK  6 active torsions:
REMARK  status: ('A' for Active; 'I' for Inactive)
REMARK    1  A    between atoms: C_1  and  O_2
REMARK    2  A    between atoms: O_2  and  C_3
REMARK    3  A    between atoms: C_5  and  N_6
REMARK    4  A    between atoms: C_9  and  C_10
REMARK    5  A    between atoms: N_15  and  C_16
REMARK    6  A    between atoms: N_23  and  C_24
REMARK                            x       y       z     vdW  Elec       q    Type
REMARK                         _______ _______ _______ _____ _____    ______ ____
ROOT
ATOM      1  C   UNL     1       2.492   6.522  19.004  0.00  0.00    +0.000 C 
ATOM      2  O   UNL     1       2.779   7.283  18.091  0.00  0.00    +0.000 OA
ATOM      3  N   UNL     1       1.855   7.018  20.126  0.00  0.00    +0.000 N 
ATOM      4  C   UNL     1       1.506   8.338  20.296  0.00  0.00    +0.000 C 
ATOM      5  O   UNL     1       1.752   9.155  19.419  0.00  0.00    +0.000 OA
ATOM      6  N   UNL     1       0.886   8.750  21.450  0.00  0.00    +0.000 N 
ATOM      7  H   UNL     1       1.616   6.386  20.897  0.00  0.00    +0.000 HD
ATOM      8  H   UNL     1       0.688   8.062  22.194  0.00  0.00    +0.000 HD
ENDROOT
BRANCH   6   9
ATOM      9  C   UNL     1       0.499  10.142  21.680  0.00  0.00    +0.000 C 
ATOM     10  C   UNL     1       0.023  10.860  20.384  0.00  0.00    +0.000 C 
ATOM     11  C   UNL     1      -0.643  12.244  20.723  0.00  0.00    +0.000 C 
ATOM     12  C   UNL     1      -2.177  12.131  20.983  0.00  0.00    +0.000 C 
ATOM     13  C   UNL     1      -2.319  12.093  22.505  0.00  0.00    +0.000 C 
ATOM     14  C   UNL     1      -0.892  11.834  22.952  0.00  0.00    +0.000 C 
ATOM     15  C   UNL     1      -0.583  10.294  22.751  0.00  0.00    +0.000 C 
ATOM     16  N   UNL     1      -0.072  12.657  22.010  0.00  0.00    +0.000 NA
ATOM     17  C   UNL     1      -0.109  14.114  22.226  0.00  0.00    +0.000 C 
ENDBRANCH   6   9
BRANCH   1  23
ATOM     18  C   UNL     1       4.180   4.588  19.126  0.00  0.00    +0.000 A 
ATOM     19  C   UNL     1       4.486   3.219  18.961  0.00  0.00    +0.000 A 
ATOM     20  C   UNL     1       3.523   2.311  18.526  0.00  0.00    +0.000 A 
ATOM     21  C   UNL     1       2.234   2.760  18.250  0.00  0.00    +0.000 A 
ATOM     22  C   UNL     1       1.902   4.107  18.406  0.00  0.00    +0.000 A 
ATOM     23  C   UNL     1       2.857   5.057  18.842  0.00  0.00    +0.000 A 
BRANCH  20  24
ATOM     24  N   UNL     1       3.858   0.943  18.362  0.00  0.00    +0.000 N 
ATOM     25  H   UNL     1       3.380   0.215  18.916  0.00  0.00    +0.000 HD
ATOM     26  H   UNL     1       4.589   0.655  17.696  0.00  0.00    +0.000 HD
ENDBRANCH  20  24
BRANCH  18  28
ATOM     27  C   UNL     1       6.488   5.395  19.217  0.00  0.00    +0.000 C 
ATOM     28  O   UNL     1       5.144   5.457  19.544  0.00  0.00    +0.000 OA
ENDBRANCH  18  28
ENDBRANCH   1  23
TORSDOF 4
ENDMDL
