MODEL 1
REMARK VINA RESULT:      -9.2      0.000      0.000
REMARK  Name = 
REMARK  6 active torsions:
REMARK  status: ('A' for Active; 'I' for Inactive)
REMARK    1  A    between atoms: C_2  and  C_3
REMARK    2  A    between atoms: C_3  and  N_4
REMARK    3  A    between atoms: C_3  and  C_12
REMARK    4  A    between atoms: N_4  and  C_5
REMARK    5  A    between atoms: C_15  and  C_16
REMARK    6  A    between atoms: C_26  and  C_27
REMARK                            x       y       z     vdW  Elec       q    Type
REMARK                         _______ _______ _______ _____ _____    ______ ____
ROOT
ATOM      1  C   UNL     1       2.651   6.620  18.943  0.00  0.00    +0.000 C 
ENDROOT
BRANCH   1   3
ATOM      2  O   UNL     1       2.153   8.593  17.574  0.00  0.00    +0.000 OA
ATOM      3  C   UNL     1       2.070   8.062  18.684  0.00  0.00    +0.000 C 
ATOM      4  N   UNL     1       1.480   8.731  19.753  0.00  0.00    +0.000 N 
ATOM      5  C   UNL     1       1.390   8.236  21.113  0.00  0.00    +0.000 C 
ATOM      6  C   UNL     1       0.522   9.242  21.839  0.00  0.00    +0.000 C 
ATOM      7  C   UNL     1       0.898  10.557  21.172  0.00  0.00    +0.000 C 
ATOM      8  C   UNL     1       1.179  10.173  19.701  0.00  0.00    +0.000 C 
BRANCH   8   9
ATOM      9  C   UNL     1       0.026  10.592  18.821  0.00  0.00    +0.000 A 
ATOM     10  C   UNL     1      -0.939   9.702  18.336  0.00  0.00    +0.000 A 
ATOM     11  C   UNL     1      -2.017  10.168  17.574  0.00  0.00    +0.000 A 
ATOM     12  C   UNL     1      -2.152  11.527  17.291  0.00  0.00    +0.000 A 
ATOM     13  C   UNL     1      -1.205  12.427  17.772  0.00  0.00    +0.000 A 
ATOM     14  C   UNL     1      -0.135  11.957  18.530  0.00  0.00    +0.000 A 
ATOM     15  F   UNL     1       0.743  12.850  19.016  0.00  0.00    +0.000 F 
ENDBRANCH   8   9
ENDBRANCH   1   3
BRANCH   1  16
ATOM     16  C   UNL     1       3.618   6.162  17.839  0.00  0.00    +0.000 A 
ATOM     17  C   UNL     1       4.634   7.007  17.364  0.00  0.00    +0.000 A 
ATOM     18  C   UNL     1       5.563   6.561  16.416  0.00  0.00    +0.000 A 
ATOM     19  C   UNL     1       5.512   5.250  15.926  0.00  0.00    +0.000 A 
ATOM     20  C   UNL     1       4.518   4.393  16.411  0.00  0.00    +0.000 A 
ATOM     21  C   UNL     1       3.591   4.839  17.359  0.00  0.00    +0.000 A 
BRANCH  19  22
ATOM     22  C   UNL     1       6.508   4.757  14.905  0.00  0.00    +0.000 C 
ATOM     23  F   UNL     1       6.103   3.634  14.247  0.00  0.00    +0.000 F 
ATOM     24  F   UNL     1       6.760   5.680  13.935  0.00  0.00    +0.000 F 
ATOM     25  F   UNL     1       7.715   4.452  15.454  0.00  0.00    +0.000 F 
ENDBRANCH  19  22
ENDBRANCH   1  16
BRANCH   1  26
ATOM     26  N   UNL     1       1.539   5.648  19.054  0.00  0.00    +0.000 N 
ATOM     27  H   UNL     1       0.648   6.138  19.175  0.00  0.00    +0.000 HD
BRANCH  26  28
ATOM     28  C   UNL     1       1.623   4.533  19.894  0.00  0.00    +0.000 A 
ATOM     29  C   UNL     1       2.229   4.560  21.154  0.00  0.00    +0.000 A 
ATOM     30  C   UNL     1       2.257   3.425  21.975  0.00  0.00    +0.000 A 
ATOM     31  C   UNL     1       1.742   2.216  21.518  0.00  0.00    +0.000 A 
ATOM     32  C   UNL     1       1.248   2.132  20.220  0.00  0.00    +0.000 A 
ATOM     33  C   UNL     1       1.211   3.275  19.422  0.00  0.00    +0.000 A 
ATOM     34  F   UNL     1       0.748   3.161  18.167  0.00  0.00    +0.000 F 
ENDBRANCH  26  28
ENDBRANCH   1  26
TORSDOF 6
ENDMDL
MODEL 2
REMARK VINA RESULT:      -9.1      1.048      1.245
REMARK  Name = 
REMARK  6 active torsions:
REMARK  status: ('A' for Active; 'I' for Inactive)
REMARK    1  A    between atoms: C_2  and  C_3
REMARK    2  A    between atoms: C_3  and  N_4
REMARK    3  A    between atoms: C_3  and  C_12
REMARK    4  A    between atoms: N_4  and  C_5
REMARK    5  A    between atoms: C_15  and  C_16
REMARK    6  A    between atoms: C_26  and  C_27
REMARK                            x       y       z     vdW  Elec       q    Type
REMARK                         _______ _______ _______ _____ _____    ______ ____
ROOT
ATOM      1  C   UNL     1       2.384   6.741  19.832  0.00  0.00    +0.000 C 
ENDROOT
BRANCH   1   3
ATOM      2  O   UNL     1       2.131   8.681  18.353  0.00  0.00    +0.000 OA
ATOM      3  C   UNL     1       1.901   8.195  19.463  0.00  0.00    +0.000 C 
ATOM      4  N   UNL     1       1.227   8.928  20.436  0.00  0.00    +0.000 N 
ATOM      5  C   UNL     1       0.965   8.488  21.793  0.00  0.00    +0.000 C 
ATOM      6  C   UNL     1       0.068   9.555  22.384  0.00  0.00    +0.000 C 
ATOM      7  C   UNL     1       0.575  10.828  21.721  0.00  0.00    +0.000 C 
ATOM      8  C   UNL     1       1.000  10.378  20.305  0.00  0.00    +0.000 C 
BRANCH   8   9
ATOM      9  C   UNL     1      -0.029  10.812  19.287  0.00  0.00    +0.000 A 
ATOM     10  C   UNL     1      -1.059   9.982  18.828  0.00  0.00    +0.000 A 
ATOM     11  C   UNL     1      -2.015  10.467  17.929  0.00  0.00    +0.000 A 
ATOM     12  C   UNL     1      -1.963  11.787  17.480  0.00  0.00    +0.000 A 
ATOM     13  C   UNL     1      -0.949  12.628  17.933  0.00  0.00    +0.000 A 
ATOM     14  C   UNL     1      -0.001  12.138  18.828  0.00  0.00    +0.000 A 
ATOM     15  F   UNL     1       0.943  12.980  19.280  0.00  0.00    +0.000 F 
ENDBRANCH   8   9
ENDBRANCH   1   3
BRANCH   1  16
ATOM     16  C   UNL     1       3.566   6.271  18.968  0.00  0.00    +0.000 A 
ATOM     17  C   UNL     1       4.588   5.472  19.503  0.00  0.00    +0.000 A 
ATOM     18  C   UNL     1       5.620   4.979  18.696  0.00  0.00    +0.000 A 
ATOM     19  C   UNL     1       5.652   5.259  17.324  0.00  0.00    +0.000 A 
ATOM     20  C   UNL     1       4.624   6.035  16.776  0.00  0.00    +0.000 A 
ATOM     21  C   UNL     1       3.593   6.526  17.584  0.00  0.00    +0.000 A 
BRANCH  19  22
ATOM     22  C   UNL     1       6.759   4.733  16.444  0.00  0.00    +0.000 C 
ATOM     23  F   UNL     1       6.389   3.659  15.688  0.00  0.00    +0.000 F 
ATOM     24  F   UNL     1       7.209   5.666  15.560  0.00  0.00    +0.000 F 
ATOM     25  F   UNL     1       7.849   4.332  17.152  0.00  0.00    +0.000 F 
ENDBRANCH  19  22
ENDBRANCH   1  16
BRANCH   1  26
ATOM     26  N   UNL     1       1.259   5.791  19.683  0.00  0.00    +0.000 N 
ATOM     27  H   UNL     1       0.449   6.110  20.221  0.00  0.00    +0.000 HD
BRANCH  26  28
ATOM     28  C   UNL     1       1.445   4.411  19.816  0.00  0.00    +0.000 A 
ATOM     29  C   UNL     1       1.770   3.789  21.026  0.00  0.00    +0.000 A 
ATOM     30  C   UNL     1       1.910   2.398  21.117  0.00  0.00    +0.000 A 
ATOM     31  C   UNL     1       1.801   1.606  19.978  0.00  0.00    +0.000 A 
ATOM     32  C   UNL     1       1.604   2.212  18.742  0.00  0.00    +0.000 A 
ATOM     33  C   UNL     1       1.448   3.596  18.670  0.00  0.00    +0.000 A 
ATOM     34  F   UNL     1       1.280   4.157  17.462  0.00  0.00    +0.000 F 
ENDBRANCH  26  28
ENDBRANCH   1  26
TORSDOF 6
ENDMDL
MODEL 3
REMARK VINA RESULT:      -9.0      1.300      1.762
REMARK  Name = 
REMARK  6 active torsions:
REMARK  status: ('A' for Active; 'I' for Inactive)
REMARK    1  A    between atoms: C_2  and  C_3
REMARK    2  A    between atoms: C_3  and  N_4
REMARK    3  A    between atoms: C_3  and  C_12
REMARK    4  A    between atoms: N_4  and  C_5
REMARK    5  A    between atoms: C_15  and  C_16
REMARK    6  A    between atoms: C_26  and  C_27
REMARK                            x       y       z     vdW  Elec       q    Type
REMARK                         _______ _______ _______ _____ _____    ______ ____
ROOT
ATOM      1  C   UNL     1       2.442   6.685  19.817  0.00  0.00    +0.000 C 
ENDROOT
BRANCH   1   3
ATOM      2  O   UNL     1       2.113   8.610  18.332  0.00  0.00    +0.000 OA
ATOM      3  C   UNL     1       1.909   8.122  19.447  0.00  0.00    +0.000 C 
ATOM      4  N   UNL     1       1.222   8.837  20.424  0.00  0.00    +0.000 N 
ATOM      5  C   UNL     1       0.987   8.394  21.785  0.00  0.00    +0.000 C 
ATOM      6  C   UNL     1       0.062   9.434  22.380  0.00  0.00    +0.000 C 
ATOM      7  C   UNL     1       0.521  10.720  21.708  0.00  0.00    +0.000 C 
ATOM      8  C   UNL     1       0.947  10.279  20.289  0.00  0.00    +0.000 C 
BRANCH   8   9
ATOM      9  C   UNL     1      -0.105  10.675  19.279  0.00  0.00    +0.000 A 
ATOM     10  C   UNL     1      -1.150   9.833  18.882  0.00  0.00    +0.000 A 
ATOM     11  C   UNL     1      -2.126  10.286  17.987  0.00  0.00    +0.000 A 
ATOM     12  C   UNL     1      -2.078  11.585  17.481  0.00  0.00    +0.000 A 
ATOM     13  C   UNL     1      -1.049  12.438  17.873  0.00  0.00    +0.000 A 
ATOM     14  C   UNL     1      -0.081  11.981  18.764  0.00  0.00    +0.000 A 
ATOM     15  F   UNL     1       0.878  12.835  19.156  0.00  0.00    +0.000 F 
ENDBRANCH   8   9
ENDBRANCH   1   3
BRANCH   1  16
ATOM     16  C   UNL     1       3.645   6.260  18.959  0.00  0.00    +0.000 A 
ATOM     17  C   UNL     1       4.719   5.544  19.512  0.00  0.00    +0.000 A 
ATOM     18  C   UNL     1       5.774   5.089  18.714  0.00  0.00    +0.000 A 
ATOM     19  C   UNL     1       5.779   5.322  17.333  0.00  0.00    +0.000 A 
ATOM     20  C   UNL     1       4.702   6.013  16.767  0.00  0.00    +0.000 A 
ATOM     21  C   UNL     1       3.647   6.467  17.567  0.00  0.00    +0.000 A 
BRANCH  19  22
ATOM     22  C   UNL     1       6.911   4.835  16.461  0.00  0.00    +0.000 C 
ATOM     23  F   UNL     1       7.917   4.235  17.160  0.00  0.00    +0.000 F 
ATOM     24  F   UNL     1       6.502   3.915  15.543  0.00  0.00    +0.000 F 
ATOM     25  F   UNL     1       7.497   5.837  15.752  0.00  0.00    +0.000 F 
ENDBRANCH  19  22
ENDBRANCH   1  16
BRANCH   1  26
ATOM     26  N   UNL     1       1.353   5.696  19.659  0.00  0.00    +0.000 N 
ATOM     27  H   UNL     1       0.636   5.837  20.376  0.00  0.00    +0.000 HD
BRANCH  26  28
ATOM     28  C   UNL     1       1.622   4.336  19.471  0.00  0.00    +0.000 A 
ATOM     29  C   UNL     1       1.479   3.684  18.242  0.00  0.00    +0.000 A 
ATOM     30  C   UNL     1       1.796   2.327  18.095  0.00  0.00    +0.000 A 
ATOM     31  C   UNL     1       2.192   1.576  19.197  0.00  0.00    +0.000 A 
ATOM     32  C   UNL     1       2.220   2.171  20.454  0.00  0.00    +0.000 A 
ATOM     33  C   UNL     1       1.919   3.526  20.581  0.00  0.00    +0.000 A 
ATOM     34  F   UNL     1       1.934   4.071  21.808  0.00  0.00    +0.000 F 
ENDBRANCH  26  28
ENDBRANCH   1  26
TORSDOF 6
ENDMDL
MODEL 4
REMARK VINA RESULT:      -8.9      1.076      1.428
REMARK  Name = 
REMARK  6 active torsions:
REMARK  status: ('A' for Active; 'I' for Inactive)
REMARK    1  A    between atoms: C_2  and  C_3
REMARK    2  A    between atoms: C_3  and  N_4
REMARK    3  A    between atoms: C_3  and  C_12
REMARK    4  A    between atoms: N_4  and  C_5
REMARK    5  A    between atoms: C_15  and  C_16
REMARK    6  A    between atoms: C_26  and  C_27
REMARK                            x       y       z     vdW  Elec       q    Type
REMARK                         _______ _______ _______ _____ _____    ______ ____
ROOT
ATOM      1  C   UNL     1       2.344   6.752  19.954  0.00  0.00    +0.000 C 
ENDROOT
BRANCH   1   3
ATOM      2  O   UNL     1       2.078   8.638  18.409  0.00  0.00    +0.000 OA
ATOM      3  C   UNL     1       1.853   8.190  19.536  0.00  0.00    +0.000 C 
ATOM      4  N   UNL     1       1.176   8.952  20.484  0.00  0.00    +0.000 N 
ATOM      5  C   UNL     1       0.918   8.557  21.856  0.00  0.00    +0.000 C 
ATOM      6  C   UNL     1       0.016   9.639  22.411  0.00  0.00    +0.000 C 
ATOM      7  C   UNL     1       0.515  10.891  21.704  0.00  0.00    +0.000 C 
ATOM      8  C   UNL     1       0.941  10.396  20.303  0.00  0.00    +0.000 C 
BRANCH   8   9
ATOM      9  C   UNL     1      -0.091  10.789  19.273  0.00  0.00    +0.000 A 
ATOM     10  C   UNL     1      -1.125   9.943  18.853  0.00  0.00    +0.000 A 
ATOM     11  C   UNL     1      -2.084  10.393  17.938  0.00  0.00    +0.000 A 
ATOM     12  C   UNL     1      -2.031  11.693  17.435  0.00  0.00    +0.000 A 
ATOM     13  C   UNL     1      -1.013  12.549  17.848  0.00  0.00    +0.000 A 
ATOM     14  C   UNL     1      -0.062  12.095  18.759  0.00  0.00    +0.000 A 
ATOM     15  F   UNL     1       0.885  12.953  19.171  0.00  0.00    +0.000 F 
ENDBRANCH   8   9
ENDBRANCH   1   3
BRANCH   1  16
ATOM     16  C   UNL     1       3.456   6.215  19.038  0.00  0.00    +0.000 A 
ATOM     17  C   UNL     1       3.532   6.589  17.687  0.00  0.00    +0.000 A 
ATOM     18  C   UNL     1       4.590   6.163  16.876  0.00  0.00    +0.000 A 
ATOM     19  C   UNL     1       5.614   5.362  17.397  0.00  0.00    +0.000 A 
ATOM     20  C   UNL     1       5.561   5.004  18.749  0.00  0.00    +0.000 A 
ATOM     21  C   UNL     1       4.503   5.431  19.559  0.00  0.00    +0.000 A 
BRANCH  19  22
ATOM     22  C   UNL     1       6.761   4.897  16.533  0.00  0.00    +0.000 C 
ATOM     23  F   UNL     1       7.315   5.892  15.783  0.00  0.00    +0.000 F 
ATOM     24  F   UNL     1       7.785   4.375  17.264  0.00  0.00    +0.000 F 
ATOM     25  F   UNL     1       6.396   3.927  15.652  0.00  0.00    +0.000 F 
ENDBRANCH  19  22
ENDBRANCH   1  16
BRANCH   1  26
ATOM     26  N   UNL     1       1.200   5.812  19.938  0.00  0.00    +0.000 N 
ATOM     27  H   UNL     1       0.509   6.080  20.645  0.00  0.00    +0.000 HD
BRANCH  26  28
ATOM     28  C   UNL     1       1.392   4.427  19.915  0.00  0.00    +0.000 A 
ATOM     29  C   UNL     1       1.781   3.683  21.034  0.00  0.00    +0.000 A 
ATOM     30  C   UNL     1       1.925   2.291  20.971  0.00  0.00    +0.000 A 
ATOM     31  C   UNL     1       1.756   1.622  19.762  0.00  0.00    +0.000 A 
ATOM     32  C   UNL     1       1.494   2.354  18.609  0.00  0.00    +0.000 A 
ATOM     33  C   UNL     1       1.335   3.737  18.692  0.00  0.00    +0.000 A 
ATOM     34  F   UNL     1       1.103   4.421  17.560  0.00  0.00    +0.000 F 
ENDBRANCH  26  28
ENDBRANCH   1  26
TORSDOF 6
ENDMDL
MODEL 5
REMARK VINA RESULT:      -8.8      3.345      6.459
REMARK  Name = 
REMARK  6 active torsions:
REMARK  status: ('A' for Active; 'I' for Inactive)
REMARK    1  A    between atoms: C_2  and  C_3
REMARK    2  A    between atoms: C_3  and  N_4
REMARK    3  A    between atoms: C_3  and  C_12
REMARK    4  A    between atoms: N_4  and  C_5
REMARK    5  A    between atoms: C_15  and  C_16
REMARK    6  A    between atoms: C_26  and  C_27
REMARK                            x       y       z     vdW  Elec       q    Type
REMARK                         _______ _______ _______ _____ _____    ______ ____
ROOT
ATOM      1  C   UNL     1       0.353  10.715  18.924  0.00  0.00    +0.000 C 
ENDROOT
BRANCH   1   3
ATOM      2  O   UNL     1       2.179  12.011  17.924  0.00  0.00    +0.000 OA
ATOM      3  C   UNL     1       1.363  11.922  18.844  0.00  0.00    +0.000 C 
ATOM      4  N   UNL     1       1.323  12.877  19.857  0.00  0.00    +0.000 N 
ATOM      5  C   UNL     1       0.458  12.837  21.021  0.00  0.00    +0.000 C 
ATOM      6  C   UNL     1       0.673  14.166  21.714  0.00  0.00    +0.000 C 
ATOM      7  C   UNL     1       2.144  14.451  21.448  0.00  0.00    +0.000 C 
ATOM      8  C   UNL     1       2.400  13.866  20.041  0.00  0.00    +0.000 C 
BRANCH   8   9
ATOM      9  C   UNL     1       2.481  14.975  19.019  0.00  0.00    +0.000 A 
ATOM     10  C   UNL     1       1.565  16.032  18.952  0.00  0.00    +0.000 A 
ATOM     11  C   UNL     1       1.734  17.060  18.018  0.00  0.00    +0.000 A 
ATOM     12  C   UNL     1       2.820  17.054  17.143  0.00  0.00    +0.000 A 
ATOM     13  C   UNL     1       3.744  16.013  17.202  0.00  0.00    +0.000 A 
ATOM     14  C   UNL     1       3.571  14.994  18.134  0.00  0.00    +0.000 A 
ATOM     15  F   UNL     1       4.497  14.024  18.197  0.00  0.00    +0.000 F 
ENDBRANCH   8   9
ENDBRANCH   1   3
BRANCH   1  16
ATOM     16  C   UNL     1       1.061   9.356  19.058  0.00  0.00    +0.000 A 
ATOM     17  C   UNL     1       1.741   8.779  17.974  0.00  0.00    +0.000 A 
ATOM     18  C   UNL     1       2.452   7.582  18.120  0.00  0.00    +0.000 A 
ATOM     19  C   UNL     1       2.517   6.935  19.360  0.00  0.00    +0.000 A 
ATOM     20  C   UNL     1       1.863   7.515  20.453  0.00  0.00    +0.000 A 
ATOM     21  C   UNL     1       1.153   8.712  20.306  0.00  0.00    +0.000 A 
BRANCH  19  22
ATOM     22  C   UNL     1       3.282   5.645  19.531  0.00  0.00    +0.000 C 
ATOM     23  F   UNL     1       2.920   4.939  20.640  0.00  0.00    +0.000 F 
ATOM     24  F   UNL     1       3.107   4.793  18.482  0.00  0.00    +0.000 F 
ATOM     25  F   UNL     1       4.624   5.839  19.636  0.00  0.00    +0.000 F 
ENDBRANCH  19  22
ENDBRANCH   1  16
BRANCH   1  26
ATOM     26  N   UNL     1      -0.505  10.703  17.718  0.00  0.00    +0.000 N 
ATOM     27  H   UNL     1      -0.039  11.188  16.945  0.00  0.00    +0.000 HD
BRANCH  26  28
ATOM     28  C   UNL     1      -1.862  11.036  17.782  0.00  0.00    +0.000 A 
ATOM     29  C   UNL     1      -2.457  11.636  18.896  0.00  0.00    +0.000 A 
ATOM     30  C   UNL     1      -3.814  11.984  18.899  0.00  0.00    +0.000 A 
ATOM     31  C   UNL     1      -4.622  11.670  17.810  0.00  0.00    +0.000 A 
ATOM     32  C   UNL     1      -4.081  10.960  16.742  0.00  0.00    +0.000 A 
ATOM     33  C   UNL     1      -2.725  10.638  16.746  0.00  0.00    +0.000 A 
ATOM     34  F   UNL     1      -2.234   9.934  15.713  0.00  0.00    +0.000 F 
ENDBRANCH  26  28
ENDBRANCH   1  26
TORSDOF 6
ENDMDL
MODEL 6
REMARK VINA RESULT:      -8.8      1.294      1.640
REMARK  Name = 
REMARK  6 active torsions:
REMARK  status: ('A' for Active; 'I' for Inactive)
REMARK    1  A    between atoms: C_2  and  C_3
REMARK    2  A    between atoms: C_3  and  N_4
REMARK    3  A    between atoms: C_3  and  C_12
REMARK    4  A    between atoms: N_4  and  C_5
REMARK    5  A    between atoms: C_15  and  C_16
REMARK    6  A    between atoms: C_26  and  C_27
REMARK                            x       y       z     vdW  Elec       q    Type
REMARK                         _______ _______ _______ _____ _____    ______ ____
ROOT
ATOM      1  C   UNL     1       2.441   6.778  19.889  0.00  0.00    +0.000 C 
ENDROOT
BRANCH   1   3
ATOM      2  O   UNL     1       2.048   8.632  18.332  0.00  0.00    +0.000 OA
ATOM      3  C   UNL     1       1.873   8.187  19.469  0.00  0.00    +0.000 C 
ATOM      4  N   UNL     1       1.187   8.929  20.427  0.00  0.00    +0.000 N 
ATOM      5  C   UNL     1       0.984   8.538  21.810  0.00  0.00    +0.000 C 
ATOM      6  C   UNL     1       0.048   9.585  22.378  0.00  0.00    +0.000 C 
ATOM      7  C   UNL     1       0.470  10.850  21.644  0.00  0.00    +0.000 C 
ATOM      8  C   UNL     1       0.881  10.358  20.238  0.00  0.00    +0.000 C 
BRANCH   8   9
ATOM      9  C   UNL     1      -0.195  10.691  19.231  0.00  0.00    +0.000 A 
ATOM     10  C   UNL     1      -1.212   9.801  18.864  0.00  0.00    +0.000 A 
ATOM     11  C   UNL     1      -2.213  10.196  17.970  0.00  0.00    +0.000 A 
ATOM     12  C   UNL     1      -2.219  11.484  17.435  0.00  0.00    +0.000 A 
ATOM     13  C   UNL     1      -1.219  12.384  17.795  0.00  0.00    +0.000 A 
ATOM     14  C   UNL     1      -0.226  11.984  18.686  0.00  0.00    +0.000 A 
ATOM     15  F   UNL     1       0.704  12.883  19.048  0.00  0.00    +0.000 F 
ENDBRANCH   8   9
ENDBRANCH   1   3
BRANCH   1  16
ATOM     16  C   UNL     1       3.570   6.293  18.964  0.00  0.00    +0.000 A 
ATOM     17  C   UNL     1       3.632   6.692  17.619  0.00  0.00    +0.000 A 
ATOM     18  C   UNL     1       4.703   6.315  16.801  0.00  0.00    +0.000 A 
ATOM     19  C   UNL     1       5.752   5.538  17.308  0.00  0.00    +0.000 A 
ATOM     20  C   UNL     1       5.712   5.156  18.654  0.00  0.00    +0.000 A 
ATOM     21  C   UNL     1       4.641   5.535  19.471  0.00  0.00    +0.000 A 
BRANCH  19  22
ATOM     22  C   UNL     1       6.913   5.126  16.437  0.00  0.00    +0.000 C 
ATOM     23  F   UNL     1       6.534   4.501  15.285  0.00  0.00    +0.000 F 
ATOM     24  F   UNL     1       7.674   6.187  16.045  0.00  0.00    +0.000 F 
ATOM     25  F   UNL     1       7.763   4.268  17.063  0.00  0.00    +0.000 F 
ENDBRANCH  19  22
ENDBRANCH   1  16
BRANCH   1  26
ATOM     26  N   UNL     1       1.346   5.781  19.890  0.00  0.00    +0.000 N 
ATOM     27  H   UNL     1       0.767   5.889  20.728  0.00  0.00    +0.000 HD
BRANCH  26  28
ATOM     28  C   UNL     1       1.586   4.432  19.609  0.00  0.00    +0.000 A 
ATOM     29  C   UNL     1       1.380   3.858  18.351  0.00  0.00    +0.000 A 
ATOM     30  C   UNL     1       1.669   2.509  18.109  0.00  0.00    +0.000 A 
ATOM     31  C   UNL     1       2.100   1.686  19.145  0.00  0.00    +0.000 A 
ATOM     32  C   UNL     1       2.192   2.204  20.433  0.00  0.00    +0.000 A 
ATOM     33  C   UNL     1       1.919   3.553  20.654  0.00  0.00    +0.000 A 
ATOM     34  F   UNL     1       1.995   4.021  21.911  0.00  0.00    +0.000 F 
ENDBRANCH  26  28
ENDBRANCH   1  26
TORSDOF 6
ENDMDL
MODEL 7
REMARK VINA RESULT:      -8.7      3.221      6.475
REMARK  Name = 
REMARK  6 active torsions:
REMARK  status: ('A' for Active; 'I' for Inactive)
REMARK    1  A    between atoms: C_2  and  C_3
REMARK    2  A    between atoms: C_3  and  N_4
REMARK    3  A    between atoms: C_3  and  C_12
REMARK    4  A    between atoms: N_4  and  C_5
REMARK    5  A    between atoms: C_15  and  C_16
REMARK    6  A    between atoms: C_26  and  C_27
REMARK                            x       y       z     vdW  Elec       q    Type
REMARK                         _______ _______ _______ _____ _____    ______ ____
ROOT
ATOM      1  C   UNL     1       0.504  10.701  19.031  0.00  0.00    +0.000 C 
ENDROOT
BRANCH   1   3
ATOM      2  O   UNL     1       2.288  12.030  18.000  0.00  0.00    +0.000 OA
ATOM      3  C   UNL     1       1.481  11.933  18.927  0.00  0.00    +0.000 C 
ATOM      4  N   UNL     1       1.425  12.899  19.928  0.00  0.00    +0.000 N 
ATOM      5  C   UNL     1       0.569  12.853  21.099  0.00  0.00    +0.000 C 
ATOM      6  C   UNL     1       0.755  14.196  21.772  0.00  0.00    +0.000 C 
ATOM      7  C   UNL     1       2.217  14.515  21.492  0.00  0.00    +0.000 C 
ATOM      8  C   UNL     1       2.477  13.918  20.091  0.00  0.00    +0.000 C 
BRANCH   8   9
ATOM      9  C   UNL     1       2.521  15.016  19.054  0.00  0.00    +0.000 A 
ATOM     10  C   UNL     1       1.572  16.042  18.974  0.00  0.00    +0.000 A 
ATOM     11  C   UNL     1       1.707  17.062  18.026  0.00  0.00    +0.000 A 
ATOM     12  C   UNL     1       2.792  17.079  17.149  0.00  0.00    +0.000 A 
ATOM     13  C   UNL     1       3.749  16.069  17.220  0.00  0.00    +0.000 A 
ATOM     14  C   UNL     1       3.609  15.057  18.167  0.00  0.00    +0.000 A 
ATOM     15  F   UNL     1       4.566  14.118  18.241  0.00  0.00    +0.000 F 
ENDBRANCH   8   9
ENDBRANCH   1   3
BRANCH   1  16
ATOM     16  C   UNL     1       1.247   9.368  19.223  0.00  0.00    +0.000 A 
ATOM     17  C   UNL     1       1.217   8.688  20.451  0.00  0.00    +0.000 A 
ATOM     18  C   UNL     1       1.826   7.437  20.600  0.00  0.00    +0.000 A 
ATOM     19  C   UNL     1       2.473   6.822  19.520  0.00  0.00    +0.000 A 
ATOM     20  C   UNL     1       2.487   7.481  18.286  0.00  0.00    +0.000 A 
ATOM     21  C   UNL     1       1.877   8.731  18.138  0.00  0.00    +0.000 A 
BRANCH  19  22
ATOM     22  C   UNL     1       3.133   5.473  19.669  0.00  0.00    +0.000 C 
ATOM     23  F   UNL     1       2.844   4.611  18.652  0.00  0.00    +0.000 F 
ATOM     24  F   UNL     1       4.492   5.559  19.703  0.00  0.00    +0.000 F 
ATOM     25  F   UNL     1       2.770   4.833  20.813  0.00  0.00    +0.000 F 
ENDBRANCH  19  22
ENDBRANCH   1  16
BRANCH   1  26
ATOM     26  N   UNL     1      -0.331  10.625  17.811  0.00  0.00    +0.000 N 
ATOM     27  H   UNL     1       0.016  11.276  17.100  0.00  0.00    +0.000 HD
BRANCH  26  28
ATOM     28  C   UNL     1      -1.728  10.644  17.878  0.00  0.00    +0.000 A 
ATOM     29  C   UNL     1      -2.540   9.632  17.355  0.00  0.00    +0.000 A 
ATOM     30  C   UNL     1      -3.934   9.679  17.479  0.00  0.00    +0.000 A 
ATOM     31  C   UNL     1      -4.551  10.781  18.065  0.00  0.00    +0.000 A 
ATOM     32  C   UNL     1      -3.772  11.858  18.478  0.00  0.00    +0.000 A 
ATOM     33  C   UNL     1      -2.384  11.788  18.365  0.00  0.00    +0.000 A 
ATOM     34  F   UNL     1      -1.659  12.850  18.752  0.00  0.00    +0.000 F 
ENDBRANCH  26  28
ENDBRANCH   1  26
TORSDOF 6
ENDMDL
MODEL 8
REMARK VINA RESULT:      -8.6      3.326      6.512
REMARK  Name = 
REMARK  6 active torsions:
REMARK  status: ('A' for Active; 'I' for Inactive)
REMARK    1  A    between atoms: C_2  and  C_3
REMARK    2  A    between atoms: C_3  and  N_4
REMARK    3  A    between atoms: C_3  and  C_12
REMARK    4  A    between atoms: N_4  and  C_5
REMARK    5  A    between atoms: C_15  and  C_16
REMARK    6  A    between atoms: C_26  and  C_27
REMARK                            x       y       z     vdW  Elec       q    Type
REMARK                         _______ _______ _______ _____ _____    ______ ____
ROOT
ATOM      1  C   UNL     1      -0.045  10.782  18.932  0.00  0.00    +0.000 C 
ENDROOT
BRANCH   1   3
ATOM      2  O   UNL     1       1.590  12.451  18.187  0.00  0.00    +0.000 OA
ATOM      3  C   UNL     1       0.746  12.142  19.031  0.00  0.00    +0.000 C 
ATOM      4  N   UNL     1       0.480  12.977  20.113  0.00  0.00    +0.000 N 
ATOM      5  C   UNL     1      -0.436  12.685  21.199  0.00  0.00    +0.000 C 
ATOM      6  C   UNL     1      -0.496  13.959  22.014  0.00  0.00    +0.000 C 
ATOM      7  C   UNL     1       0.918  14.508  21.888  0.00  0.00    +0.000 C 
ATOM      8  C   UNL     1       1.358  14.108  20.461  0.00  0.00    +0.000 C 
BRANCH   8   9
ATOM      9  C   UNL     1       1.310  15.308  19.544  0.00  0.00    +0.000 A 
ATOM     10  C   UNL     1       0.125  15.822  19.005  0.00  0.00    +0.000 A 
ATOM     11  C   UNL     1       0.147  16.973  18.210  0.00  0.00    +0.000 A 
ATOM     12  C   UNL     1       1.347  17.632  17.947  0.00  0.00    +0.000 A 
ATOM     13  C   UNL     1       2.535  17.138  18.481  0.00  0.00    +0.000 A 
ATOM     14  C   UNL     1       2.506  15.992  19.272  0.00  0.00    +0.000 A 
ATOM     15  F   UNL     1       3.659  15.559  19.807  0.00  0.00    +0.000 F 
ENDBRANCH   8   9
ENDBRANCH   1   3
BRANCH   1  16
ATOM     16  C   UNL     1       0.876   9.553  19.011  0.00  0.00    +0.000 A 
ATOM     17  C   UNL     1       1.062   8.857  20.216  0.00  0.00    +0.000 A 
ATOM     18  C   UNL     1       1.837   7.693  20.267  0.00  0.00    +0.000 A 
ATOM     19  C   UNL     1       2.437   7.181  19.110  0.00  0.00    +0.000 A 
ATOM     20  C   UNL     1       2.238   7.854  17.900  0.00  0.00    +0.000 A 
ATOM     21  C   UNL     1       1.463   9.017  17.849  0.00  0.00    +0.000 A 
BRANCH  19  22
ATOM     22  C   UNL     1       3.274   5.926  19.153  0.00  0.00    +0.000 C 
ATOM     23  F   UNL     1       2.820   4.940  18.327  0.00  0.00    +0.000 F 
ATOM     24  F   UNL     1       4.566   6.148  18.783  0.00  0.00    +0.000 F 
ATOM     25  F   UNL     1       3.330   5.373  20.395  0.00  0.00    +0.000 F 
ENDBRANCH  19  22
ENDBRANCH   1  16
BRANCH   1  26
ATOM     26  N   UNL     1      -0.809  10.742  17.665  0.00  0.00    +0.000 N 
ATOM     27  H   UNL     1      -0.287  11.211  16.919  0.00  0.00    +0.000 HD
BRANCH  26  28
ATOM     28  C   UNL     1      -2.167  11.073  17.619  0.00  0.00    +0.000 A 
ATOM     29  C   UNL     1      -2.890  11.521  18.729  0.00  0.00    +0.000 A 
ATOM     30  C   UNL     1      -4.241  11.876  18.624  0.00  0.00    +0.000 A 
ATOM     31  C   UNL     1      -4.917  11.718  17.418  0.00  0.00    +0.000 A 
ATOM     32  C   UNL     1      -4.253  11.155  16.332  0.00  0.00    +0.000 A 
ATOM     33  C   UNL     1      -2.903  10.825  16.447  0.00  0.00    +0.000 A 
ATOM     34  F   UNL     1      -2.292  10.265  15.391  0.00  0.00    +0.000 F 
ENDBRANCH  26  28
ENDBRANCH   1  26
TORSDOF 6
ENDMDL
MODEL 9
REMARK VINA RESULT:      -8.3      0.899      1.399
REMARK  Name = 
REMARK  6 active torsions:
REMARK  status: ('A' for Active; 'I' for Inactive)
REMARK    1  A    between atoms: C_2  and  C_3
REMARK    2  A    between atoms: C_3  and  N_4
REMARK    3  A    between atoms: C_3  and  C_12
REMARK    4  A    between atoms: N_4  and  C_5
REMARK    5  A    between atoms: C_15  and  C_16
REMARK    6  A    between atoms: C_26  and  C_27
REMARK                            x       y       z     vdW  Elec       q    Type
REMARK                         _______ _______ _______ _____ _____    ______ ____
ROOT
ATOM      1  C   UNL     1       2.525   6.644  19.027  0.00  0.00    +0.000 C 
ENDROOT
BRANCH   1   3
ATOM      2  O   UNL     1       2.042   8.616  17.651  0.00  0.00    +0.000 OA
ATOM      3  C   UNL     1       1.969   8.096  18.767  0.00  0.00    +0.000 C 
ATOM      4  N   UNL     1       1.412   8.785  19.841  0.00  0.00    +0.000 N 
ATOM      5  C   UNL     1       1.338   8.303  21.207  0.00  0.00    +0.000 C 
ATOM      6  C   UNL     1       0.504   9.331  21.941  0.00  0.00    +0.000 C 
ATOM      7  C   UNL     1       0.894  10.633  21.256  0.00  0.00    +0.000 C 
ATOM      8  C   UNL     1       1.141  10.233  19.783  0.00  0.00    +0.000 C 
BRANCH   8   9
ATOM      9  C   UNL     1      -0.020  10.669  18.921  0.00  0.00    +0.000 A 
ATOM     10  C   UNL     1      -1.063   9.815  18.540  0.00  0.00    +0.000 A 
ATOM     11  C   UNL     1      -2.140  10.301  17.789  0.00  0.00    +0.000 A 
ATOM     12  C   UNL     1      -2.197  11.643  17.414  0.00  0.00    +0.000 A 
ATOM     13  C   UNL     1      -1.171  12.507  17.792  0.00  0.00    +0.000 A 
ATOM     14  C   UNL     1      -0.103  12.017  18.539  0.00  0.00    +0.000 A 
ATOM     15  F   UNL     1       0.852  12.879  18.924  0.00  0.00    +0.000 F 
ENDBRANCH   8   9
ENDBRANCH   1   3
BRANCH   1  16
ATOM     16  C   UNL     1       3.445   6.150  17.898  0.00  0.00    +0.000 A 
ATOM     17  C   UNL     1       4.364   7.012  17.277  0.00  0.00    +0.000 A 
ATOM     18  C   UNL     1       5.255   6.541  16.306  0.00  0.00    +0.000 A 
ATOM     19  C   UNL     1       5.265   5.190  15.938  0.00  0.00    +0.000 A 
ATOM     20  C   UNL     1       4.370   4.319  16.569  0.00  0.00    +0.000 A 
ATOM     21  C   UNL     1       3.480   4.790  17.540  0.00  0.00    +0.000 A 
BRANCH  19  22
ATOM     22  C   UNL     1       6.222   4.671  14.893  0.00  0.00    +0.000 C 
ATOM     23  F   UNL     1       7.302   5.480  14.693  0.00  0.00    +0.000 F 
ATOM     24  F   UNL     1       6.733   3.450  15.216  0.00  0.00    +0.000 F 
ATOM     25  F   UNL     1       5.638   4.521  13.673  0.00  0.00    +0.000 F 
ENDBRANCH  19  22
ENDBRANCH   1  16
BRANCH   1  26
ATOM     26  N   UNL     1       1.396   5.700  19.187  0.00  0.00    +0.000 N 
ATOM     27  H   UNL     1       0.581   6.182  19.576  0.00  0.00    +0.000 HD
BRANCH  26  28
ATOM     28  C   UNL     1       1.571   4.444  19.776  0.00  0.00    +0.000 A 
ATOM     29  C   UNL     1       1.098   3.254  19.212  0.00  0.00    +0.000 A 
ATOM     30  C   UNL     1       1.330   2.015  19.822  0.00  0.00    +0.000 A 
ATOM     31  C   UNL     1       1.978   1.949  21.052  0.00  0.00    +0.000 A 
ATOM     32  C   UNL     1       2.346   3.127  21.694  0.00  0.00    +0.000 A 
ATOM     33  C   UNL     1       2.125   4.351  21.065  0.00  0.00    +0.000 A 
ATOM     34  F   UNL     1       2.471   5.474  21.716  0.00  0.00    +0.000 F 
ENDBRANCH  26  28
ENDBRANCH   1  26
TORSDOF 6
ENDMDL
