MODEL 1
REMARK VINA RESULT:      -6.7      0.000      0.000
REMARK  Name = 
REMARK  3 active torsions:
REMARK  status: ('A' for Active; 'I' for Inactive)
REMARK    1  A    between atoms: C_2  and  O_3
REMARK    2  A    between atoms: C_2  and  C_4
REMARK    3  A    between atoms: C_4  and  C_5
REMARK                            x       y       z     vdW  Elec       q    Type
REMARK                         _______ _______ _______ _____ _____    ______ ____
ROOT
ATOM      1  C   UNL     1       4.746   5.248  16.827  0.00  0.00    +0.000 A 
ATOM      2  C   UNL     1       4.790   6.624  16.689  0.00  0.00    +0.000 A 
ATOM      3  N   UNL     1       3.979   7.185  17.632  0.00  0.00    +0.000 N 
ATOM      4  C   UNL     1       3.356   6.202  18.364  0.00  0.00    +0.000 A 
ATOM      5  C   UNL     1       2.447   6.337  19.423  0.00  0.00    +0.000 A 
ATOM      6  C   UNL     1       1.929   5.175  19.998  0.00  0.00    +0.000 A 
ATOM      7  C   UNL     1       2.305   3.919  19.530  0.00  0.00    +0.000 A 
ATOM      8 CL   UNL     1       1.587   2.537  20.279  0.00  0.00    +0.000 Cl
ATOM      9  C   UNL     1       3.229   3.806  18.482  0.00  0.00    +0.000 A 
ATOM     10 CL   UNL     1       3.709   2.295  17.829  0.00  0.00    +0.000 Cl
ATOM     11  C   UNL     1       3.788   4.961  17.875  0.00  0.00    +0.000 A 
ATOM     12  H   UNL     1       3.850   8.178  17.777  0.00  0.00    +0.000 HD
ENDROOT
BRANCH   1  13
ATOM     13  C   UNL     1       5.580   4.291  16.021  0.00  0.00    +0.000 C 
BRANCH  13  15
ATOM     14  O   UNL     1       7.517   5.231  14.956  0.00  0.00    +0.000 OA
ATOM     15  C   UNL     1       7.058   4.611  15.907  0.00  0.00    +0.000 C 
BRANCH  15  16
ATOM     16  O   UNL     1       7.865   4.137  16.882  0.00  0.00    +0.000 OA
ATOM     17  H   UNL     1       7.437   4.056  17.756  0.00  0.00    +0.000 HD
ENDBRANCH  15  16
ENDBRANCH  13  15
ENDBRANCH   1  13
TORSDOF 3
ENDMDL
MODEL 2
REMARK VINA RESULT:      -6.5      2.505      3.128
REMARK  Name = 
REMARK  3 active torsions:
REMARK  status: ('A' for Active; 'I' for Inactive)
REMARK    1  A    between atoms: C_2  and  O_3
REMARK    2  A    between atoms: C_2  and  C_4
REMARK    3  A    between atoms: C_4  and  C_5
REMARK                            x       y       z     vdW  Elec       q    Type
REMARK                         _______ _______ _______ _____ _____    ______ ____
ROOT
ATOM      1  C   UNL     1       3.759   3.312  17.571  0.00  0.00    +0.000 A 
ATOM      2  C   UNL     1       3.555   1.944  17.628  0.00  0.00    +0.000 A 
ATOM      3  N   UNL     1       2.607   1.683  18.573  0.00  0.00    +0.000 N 
ATOM      4  C   UNL     1       2.213   2.851  19.183  0.00  0.00    +0.000 A 
ATOM      5  C   UNL     1       1.269   3.035  20.203  0.00  0.00    +0.000 A 
ATOM      6  C   UNL     1       1.058   4.331  20.678  0.00  0.00    +0.000 A 
ATOM      7  C   UNL     1       1.768   5.408  20.153  0.00  0.00    +0.000 A 
ATOM      8 CL   UNL     1       1.467   6.971  20.826  0.00  0.00    +0.000 Cl
ATOM      9  C   UNL     1       2.695   5.204  19.121  0.00  0.00    +0.000 A 
ATOM     10 CL   UNL     1       3.632   6.474  18.454  0.00  0.00    +0.000 Cl
ATOM     11  C   UNL     1       2.934   3.904  18.602  0.00  0.00    +0.000 A 
ATOM     12  H   UNL     1       2.242   0.766  18.799  0.00  0.00    +0.000 HD
ENDROOT
BRANCH   1  13
ATOM     13  C   UNL     1       4.669   3.989  16.582  0.00  0.00    +0.000 C 
BRANCH  13  15
ATOM     14  O   UNL     1       6.999   4.436  16.211  0.00  0.00    +0.000 OA
ATOM     15  C   UNL     1       6.109   4.189  17.014  0.00  0.00    +0.000 C 
BRANCH  15  16
ATOM     16  O   UNL     1       6.382   4.032  18.328  0.00  0.00    +0.000 OA
ATOM     17  H   UNL     1       5.775   3.431  18.799  0.00  0.00    +0.000 HD
ENDBRANCH  15  16
ENDBRANCH  13  15
ENDBRANCH   1  13
TORSDOF 3
ENDMDL
MODEL 3
REMARK VINA RESULT:      -6.5      0.941      1.233
REMARK  Name = 
REMARK  3 active torsions:
REMARK  status: ('A' for Active; 'I' for Inactive)
REMARK    1  A    between atoms: C_2  and  O_3
REMARK    2  A    between atoms: C_2  and  C_4
REMARK    3  A    between atoms: C_4  and  C_5
REMARK                            x       y       z     vdW  Elec       q    Type
REMARK                         _______ _______ _______ _____ _____    ______ ____
ROOT
ATOM      1  C   UNL     1       4.681   5.170  17.487  0.00  0.00    +0.000 A 
ATOM      2  C   UNL     1       4.530   6.459  17.008  0.00  0.00    +0.000 A 
ATOM      3  N   UNL     1       3.650   7.123  17.812  0.00  0.00    +0.000 N 
ATOM      4  C   UNL     1       3.174   6.281  18.789  0.00  0.00    +0.000 A 
ATOM      5  C   UNL     1       2.257   6.553  19.814  0.00  0.00    +0.000 A 
ATOM      6  C   UNL     1       1.910   5.514  20.679  0.00  0.00    +0.000 A 
ATOM      7  C   UNL     1       2.459   4.244  20.525  0.00  0.00    +0.000 A 
ATOM      8 CL   UNL     1       1.945   3.011  21.621  0.00  0.00    +0.000 Cl
ATOM      9  C   UNL     1       3.388   3.998  19.504  0.00  0.00    +0.000 A 
ATOM     10 CL   UNL     1       4.075   2.451  19.231  0.00  0.00    +0.000 Cl
ATOM     11  C   UNL     1       3.776   5.028  18.608  0.00  0.00    +0.000 A 
ATOM     12  H   UNL     1       3.382   8.094  17.710  0.00  0.00    +0.000 HD
ENDROOT
BRANCH   1  13
ATOM     13  C   UNL     1       5.641   4.164  16.913  0.00  0.00    +0.000 C 
BRANCH  13  15
ATOM     14  O   UNL     1       7.740   4.452  18.044  0.00  0.00    +0.000 OA
ATOM     15  C   UNL     1       7.114   4.512  16.993  0.00  0.00    +0.000 C 
BRANCH  15  16
ATOM     16  O   UNL     1       7.706   4.942  15.856  0.00  0.00    +0.000 OA
ATOM     17  H   UNL     1       7.667   5.908  15.721  0.00  0.00    +0.000 HD
ENDBRANCH  15  16
ENDBRANCH  13  15
ENDBRANCH   1  13
TORSDOF 3
ENDMDL
MODEL 4
REMARK VINA RESULT:      -6.5      3.169      4.948
REMARK  Name = 
REMARK  3 active torsions:
REMARK  status: ('A' for Active; 'I' for Inactive)
REMARK    1  A    between atoms: C_2  and  O_3
REMARK    2  A    between atoms: C_2  and  C_4
REMARK    3  A    between atoms: C_4  and  C_5
REMARK                            x       y       z     vdW  Elec       q    Type
REMARK                         _______ _______ _______ _____ _____    ______ ____
ROOT
ATOM      1  C   UNL     1       2.110   4.612  19.838  0.00  0.00    +0.000 A 
ATOM      2  C   UNL     1       1.854   5.808  20.486  0.00  0.00    +0.000 A 
ATOM      3  N   UNL     1       2.494   6.811  19.818  0.00  0.00    +0.000 N 
ATOM      4  C   UNL     1       3.213   6.296  18.766  0.00  0.00    +0.000 A 
ATOM      5  C   UNL     1       4.009   6.972  17.831  0.00  0.00    +0.000 A 
ATOM      6  C   UNL     1       4.665   6.216  16.857  0.00  0.00    +0.000 A 
ATOM      7  C   UNL     1       4.531   4.831  16.818  0.00  0.00    +0.000 A 
ATOM      8 CL   UNL     1       5.406   3.974  15.599  0.00  0.00    +0.000 Cl
ATOM      9  C   UNL     1       3.715   4.176  17.753  0.00  0.00    +0.000 A 
ATOM     10 CL   UNL     1       3.533   2.472  17.790  0.00  0.00    +0.000 Cl
ATOM     11  C   UNL     1       3.023   4.907  18.754  0.00  0.00    +0.000 A 
ATOM     12  H   UNL     1       2.450   7.794  20.058  0.00  0.00    +0.000 HD
ENDROOT
BRANCH   1  13
ATOM     13  C   UNL     1       1.501   3.294  20.229  0.00  0.00    +0.000 C 
BRANCH  13  15
ATOM     14  O   UNL     1       1.353   2.370  22.442  0.00  0.00    +0.000 OA
ATOM     15  C   UNL     1       2.058   2.634  21.476  0.00  0.00    +0.000 C 
BRANCH  15  16
ATOM     16  O   UNL     1       3.387   2.391  21.499  0.00  0.00    +0.000 OA
ATOM     17  H   UNL     1       3.624   1.452  21.619  0.00  0.00    +0.000 HD
ENDBRANCH  15  16
ENDBRANCH  13  15
ENDBRANCH   1  13
TORSDOF 3
ENDMDL
MODEL 5
REMARK VINA RESULT:      -6.2      3.139      4.335
REMARK  Name = 
REMARK  3 active torsions:
REMARK  status: ('A' for Active; 'I' for Inactive)
REMARK    1  A    between atoms: C_2  and  O_3
REMARK    2  A    between atoms: C_2  and  C_4
REMARK    3  A    between atoms: C_4  and  C_5
REMARK                            x       y       z     vdW  Elec       q    Type
REMARK                         _______ _______ _______ _____ _____    ______ ____
ROOT
ATOM      1  C   UNL     1       3.187   3.985  19.972  0.00  0.00    +0.000 A 
ATOM      2  C   UNL     1       2.351   4.436  20.978  0.00  0.00    +0.000 A 
ATOM      3  N   UNL     1       1.982   5.719  20.699  0.00  0.00    +0.000 N 
ATOM      4  C   UNL     1       2.600   6.148  19.548  0.00  0.00    +0.000 A 
ATOM      5  C   UNL     1       2.503   7.392  18.909  0.00  0.00    +0.000 A 
ATOM      6  C   UNL     1       3.255   7.598  17.750  0.00  0.00    +0.000 A 
ATOM      7  C   UNL     1       4.079   6.594  17.247  0.00  0.00    +0.000 A 
ATOM      8 CL   UNL     1       4.999   6.950  15.829  0.00  0.00    +0.000 Cl
ATOM      9  C   UNL     1       4.149   5.351  17.892  0.00  0.00    +0.000 A 
ATOM     10 CL   UNL     1       5.170   4.085  17.353  0.00  0.00    +0.000 Cl
ATOM     11  C   UNL     1       3.394   5.096  19.067  0.00  0.00    +0.000 A 
ATOM     12  H   UNL     1       1.347   6.279  21.252  0.00  0.00    +0.000 HD
ENDROOT
BRANCH   1  13
ATOM     13  C   UNL     1       3.727   2.584  19.887  0.00  0.00    +0.000 C 
BRANCH  13  15
ATOM     14  O   UNL     1       2.207   1.992  18.124  0.00  0.00    +0.000 OA
ATOM     15  C   UNL     1       3.246   1.742  18.721  0.00  0.00    +0.000 C 
BRANCH  15  16
ATOM     16  O   UNL     1       3.993   0.664  18.394  0.00  0.00    +0.000 OA
ATOM     17  H   UNL     1       4.413   0.715  17.515  0.00  0.00    +0.000 HD
ENDBRANCH  15  16
ENDBRANCH  13  15
ENDBRANCH   1  13
TORSDOF 3
ENDMDL
MODEL 6
REMARK VINA RESULT:      -6.2      0.675      1.020
REMARK  Name = 
REMARK  3 active torsions:
REMARK  status: ('A' for Active; 'I' for Inactive)
REMARK    1  A    between atoms: C_2  and  O_3
REMARK    2  A    between atoms: C_2  and  C_4
REMARK    3  A    between atoms: C_4  and  C_5
REMARK                            x       y       z     vdW  Elec       q    Type
REMARK                         _______ _______ _______ _____ _____    ______ ____
ROOT
ATOM      1  C   UNL     1       4.841   4.990  16.720  0.00  0.00    +0.000 A 
ATOM      2  C   UNL     1       4.951   6.353  16.507  0.00  0.00    +0.000 A 
ATOM      3  N   UNL     1       4.150   7.001  17.401  0.00  0.00    +0.000 N 
ATOM      4  C   UNL     1       3.469   6.090  18.173  0.00  0.00    +0.000 A 
ATOM      5  C   UNL     1       2.548   6.325  19.203  0.00  0.00    +0.000 A 
ATOM      6  C   UNL     1       1.966   5.221  19.830  0.00  0.00    +0.000 A 
ATOM      7  C   UNL     1       2.293   3.925  19.440  0.00  0.00    +0.000 A 
ATOM      8 CL   UNL     1       1.498   2.621  20.248  0.00  0.00    +0.000 Cl
ATOM      9  C   UNL     1       3.230   3.712  18.419  0.00  0.00    +0.000 A 
ATOM     10 CL   UNL     1       3.651   2.147  17.860  0.00  0.00    +0.000 Cl
ATOM     11  C   UNL     1       3.852   4.805  17.761  0.00  0.00    +0.000 A 
ATOM     12  H   UNL     1       4.065   8.006  17.489  0.00  0.00    +0.000 HD
ENDROOT
BRANCH   1  13
ATOM     13  C   UNL     1       5.644   3.953  15.984  0.00  0.00    +0.000 C 
BRANCH  13  15
ATOM     14  O   UNL     1       7.535   5.145  15.104  0.00  0.00    +0.000 OA
ATOM     15  C   UNL     1       6.548   4.458  14.876  0.00  0.00    +0.000 C 
BRANCH  15  16
ATOM     16  O   UNL     1       6.189   4.156  13.607  0.00  0.00    +0.000 OA
ATOM     17  H   UNL     1       5.299   3.766  13.521  0.00  0.00    +0.000 HD
ENDBRANCH  15  16
ENDBRANCH  13  15
ENDBRANCH   1  13
TORSDOF 3
ENDMDL
MODEL 7
REMARK VINA RESULT:      -6.2      2.246      2.997
REMARK  Name = 
REMARK  3 active torsions:
REMARK  status: ('A' for Active; 'I' for Inactive)
REMARK    1  A    between atoms: C_2  and  O_3
REMARK    2  A    between atoms: C_2  and  C_4
REMARK    3  A    between atoms: C_4  and  C_5
REMARK                            x       y       z     vdW  Elec       q    Type
REMARK                         _______ _______ _______ _____ _____    ______ ____
ROOT
ATOM      1  C   UNL     1       5.161   5.139  17.328  0.00  0.00    +0.000 A 
ATOM      2  C   UNL     1       5.829   4.206  16.555  0.00  0.00    +0.000 A 
ATOM      3  N   UNL     1       5.148   3.025  16.609  0.00  0.00    +0.000 N 
ATOM      4  C   UNL     1       4.063   3.143  17.446  0.00  0.00    +0.000 A 
ATOM      5  C   UNL     1       3.104   2.178  17.785  0.00  0.00    +0.000 A 
ATOM      6  C   UNL     1       2.099   2.536  18.685  0.00  0.00    +0.000 A 
ATOM      7  C   UNL     1       2.052   3.817  19.230  0.00  0.00    +0.000 A 
ATOM      8 CL   UNL     1       0.793   4.161  20.361  0.00  0.00    +0.000 Cl
ATOM      9  C   UNL     1       3.011   4.773  18.864  0.00  0.00    +0.000 A 
ATOM     10 CL   UNL     1       3.039   6.354  19.524  0.00  0.00    +0.000 Cl
ATOM     11  C   UNL     1       4.045   4.454  17.945  0.00  0.00    +0.000 A 
ATOM     12  H   UNL     1       5.398   2.181  16.109  0.00  0.00    +0.000 HD
ENDROOT
BRANCH   1  13
ATOM     13  C   UNL     1       5.563   6.584  17.441  0.00  0.00    +0.000 C 
BRANCH  13  15
ATOM     14  O   UNL     1       7.621   6.435  18.671  0.00  0.00    +0.000 OA
ATOM     15  C   UNL     1       7.034   6.860  17.685  0.00  0.00    +0.000 C 
BRANCH  15  16
ATOM     16  O   UNL     1       7.667   7.645  16.785  0.00  0.00    +0.000 OA
ATOM     17  H   UNL     1       8.329   8.250  17.171  0.00  0.00    +0.000 HD
ENDBRANCH  15  16
ENDBRANCH  13  15
ENDBRANCH   1  13
TORSDOF 3
ENDMDL
MODEL 8
REMARK VINA RESULT:      -6.2      2.898      3.856
REMARK  Name = 
REMARK  3 active torsions:
REMARK  status: ('A' for Active; 'I' for Inactive)
REMARK    1  A    between atoms: C_2  and  O_3
REMARK    2  A    between atoms: C_2  and  C_4
REMARK    3  A    between atoms: C_4  and  C_5
REMARK                            x       y       z     vdW  Elec       q    Type
REMARK                         _______ _______ _______ _____ _____    ______ ____
ROOT
ATOM      1  C   UNL     1       4.168   4.203  18.422  0.00  0.00    +0.000 A 
ATOM      2  C   UNL     1       4.745   4.395  17.178  0.00  0.00    +0.000 A 
ATOM      3  N   UNL     1       4.487   5.670  16.768  0.00  0.00    +0.000 N 
ATOM      4  C   UNL     1       3.704   6.316  17.696  0.00  0.00    +0.000 A 
ATOM      5  C   UNL     1       3.211   7.628  17.670  0.00  0.00    +0.000 A 
ATOM      6  C   UNL     1       2.409   8.051  18.732  0.00  0.00    +0.000 A 
ATOM      7  C   UNL     1       2.109   7.191  19.785  0.00  0.00    +0.000 A 
ATOM      8 CL   UNL     1       1.081   7.789  21.039  0.00  0.00    +0.000 Cl
ATOM      9  C   UNL     1       2.627   5.888  19.801  0.00  0.00    +0.000 A 
ATOM     10 CL   UNL     1       2.269   4.764  21.044  0.00  0.00    +0.000 Cl
ATOM     11  C   UNL     1       3.454   5.420  18.746  0.00  0.00    +0.000 A 
ATOM     12  H   UNL     1       4.820   6.087  15.908  0.00  0.00    +0.000 HD
ENDROOT
BRANCH   1  13
ATOM     13  C   UNL     1       4.315   2.947  19.236  0.00  0.00    +0.000 C 
BRANCH  13  15
ATOM     14  O   UNL     1       2.206   1.813  19.053  0.00  0.00    +0.000 OA
ATOM     15  C   UNL     1       3.414   1.787  18.859  0.00  0.00    +0.000 C 
BRANCH  15  16
ATOM     16  O   UNL     1       4.011   0.691  18.340  0.00  0.00    +0.000 OA
ATOM     17  H   UNL     1       3.570   0.327  17.550  0.00  0.00    +0.000 HD
ENDBRANCH  15  16
ENDBRANCH  13  15
ENDBRANCH   1  13
TORSDOF 3
ENDMDL
MODEL 9
REMARK VINA RESULT:      -6.1      2.606      3.163
REMARK  Name = 
REMARK  3 active torsions:
REMARK  status: ('A' for Active; 'I' for Inactive)
REMARK    1  A    between atoms: C_2  and  O_3
REMARK    2  A    between atoms: C_2  and  C_4
REMARK    3  A    between atoms: C_4  and  C_5
REMARK                            x       y       z     vdW  Elec       q    Type
REMARK                         _______ _______ _______ _____ _____    ______ ____
ROOT
ATOM      1  C   UNL     1       4.904   4.234  17.729  0.00  0.00    +0.000 A 
ATOM      2  C   UNL     1       4.836   3.273  18.722  0.00  0.00    +0.000 A 
ATOM      3  N   UNL     1       3.946   3.685  19.670  0.00  0.00    +0.000 N 
ATOM      4  C   UNL     1       3.457   4.930  19.349  0.00  0.00    +0.000 A 
ATOM      5  C   UNL     1       2.528   5.716  20.046  0.00  0.00    +0.000 A 
ATOM      6  C   UNL     1       2.205   6.970  19.524  0.00  0.00    +0.000 A 
ATOM      7  C   UNL     1       2.790   7.425  18.345  0.00  0.00    +0.000 A 
ATOM      8 CL   UNL     1       2.356   9.003  17.792  0.00  0.00    +0.000 Cl
ATOM      9  C   UNL     1       3.703   6.615  17.654  0.00  0.00    +0.000 A 
ATOM     10 CL   UNL     1       4.491   7.124  16.220  0.00  0.00    +0.000 Cl
ATOM     11  C   UNL     1       4.054   5.330  18.145  0.00  0.00    +0.000 A 
ATOM     12  H   UNL     1       3.679   3.158  20.492  0.00  0.00    +0.000 HD
ENDROOT
BRANCH   1  13
ATOM     13  C   UNL     1       5.714   4.091  16.470  0.00  0.00    +0.000 C 
BRANCH  13  15
ATOM     14  O   UNL     1       7.908   4.405  17.396  0.00  0.00    +0.000 OA
ATOM     15  C   UNL     1       7.117   4.665  16.498  0.00  0.00    +0.000 C 
BRANCH  15  16
ATOM     16  O   UNL     1       7.448   5.523  15.508  0.00  0.00    +0.000 OA
ATOM     17  H   UNL     1       6.752   6.168  15.282  0.00  0.00    +0.000 HD
ENDBRANCH  15  16
ENDBRANCH  13  15
ENDBRANCH   1  13
TORSDOF 3
ENDMDL
