MODEL 1
REMARK VINA RESULT:      -7.9      0.000      0.000
REMARK  Name = 
REMARK  8 active torsions:
REMARK  status: ('A' for Active; 'I' for Inactive)
REMARK    1  A    between atoms: C_1  and  N_2
REMARK    2  A    between atoms: N_2  and  C_3
REMARK    3  A    between atoms: C_5  and  C_6
REMARK    4  A    between atoms: C_6  and  C_7
REMARK    5  A    between atoms: C_7  and  C_8
REMARK    6  A    between atoms: C_18  and  C_19
REMARK    7  A    between atoms: C_19  and  O_21
REMARK    8  A    between atoms: C_22  and  C_23
REMARK                            x       y       z     vdW  Elec       q    Type
REMARK                         _______ _______ _______ _____ _____    ______ ____
ROOT
ATOM      1  C   UNL     1       2.842   6.370  19.512  0.00  0.00    +0.000 A 
ATOM      2  N   UNL     1       2.076   7.481  19.312  0.00  0.00    +0.000 NA
ATOM      3  C   UNL     1       2.277   8.271  18.246  0.00  0.00    +0.000 A 
ATOM      4  N   UNL     1       3.165   8.042  17.286  0.00  0.00    +0.000 NA
ATOM      5  C   UNL     1       3.900   6.948  17.480  0.00  0.00    +0.000 A 
ATOM      6  S   UNL     1       5.069   6.562  16.328  0.00  0.00    +0.000 S 
ATOM      7  C   UNL     1       5.555   5.160  17.169  0.00  0.00    +0.000 A 
ATOM      8  C   UNL     1       4.832   4.989  18.355  0.00  0.00    +0.000 A 
ATOM      9  C   UNL     1       5.030   3.860  19.322  0.00  0.00    +0.000 C 
ATOM     10  C   UNL     1       3.831   6.058  18.535  0.00  0.00    +0.000 A 
ENDROOT
BRANCH   1  12
ATOM     11  C   UNL     1       1.479   4.731  20.630  0.00  0.00    +0.000 C 
ATOM     12  N   UNL     1       2.626   5.622  20.672  0.00  0.00    +0.000 N 
ATOM     13  H   UNL     1       3.459   5.205  21.061  0.00  0.00    +0.000 HD
ENDBRANCH   1  12
BRANCH   7  14
ATOM     14  C   UNL     1       6.621   4.334  16.587  0.00  0.00    +0.000 C 
ATOM     15  O   UNL     1       7.823   4.504  16.737  0.00  0.00    +0.000 OA
BRANCH  14  16
ATOM     16  O   UNL     1       6.149   3.307  15.839  0.00  0.00    +0.000 OA
ATOM     17  H   UNL     1       5.765   2.594  16.379  0.00  0.00    +0.000 HD
ENDBRANCH  14  16
ENDBRANCH   7  14
BRANCH   3  18
ATOM     18  C   UNL     1       1.417   9.489  18.028  0.00  0.00    +0.000 C 
BRANCH  18  19
ATOM     19  C   UNL     1       0.487   9.841  19.186  0.00  0.00    +0.000 C 
BRANCH  19  20
ATOM     20  C   UNL     1      -0.836  10.377  18.680  0.00  0.00    +0.000 A 
ATOM     21  C   UNL     1      -1.521  11.386  19.376  0.00  0.00    +0.000 A 
ATOM     22  C   UNL     1      -2.740  11.881  18.901  0.00  0.00    +0.000 A 
ATOM     23  C   UNL     1      -3.281  11.382  17.717  0.00  0.00    +0.000 A 
ATOM     24  C   UNL     1      -2.596  10.396  17.019  0.00  0.00    +0.000 A 
ATOM     25  F   UNL     1      -3.111   9.921  15.876  0.00  0.00    +0.000 F 
ATOM     26  C   UNL     1      -1.384   9.893  17.485  0.00  0.00    +0.000 A 
ENDBRANCH  19  20
ENDBRANCH  18  19
ENDBRANCH   3  18
TORSDOF 6
ENDMDL
MODEL 2
REMARK VINA RESULT:      -7.9      0.971      1.381
REMARK  Name = 
REMARK  8 active torsions:
REMARK  status: ('A' for Active; 'I' for Inactive)
REMARK    1  A    between atoms: C_1  and  N_2
REMARK    2  A    between atoms: N_2  and  C_3
REMARK    3  A    between atoms: C_5  and  C_6
REMARK    4  A    between atoms: C_6  and  C_7
REMARK    5  A    between atoms: C_7  and  C_8
REMARK    6  A    between atoms: C_18  and  C_19
REMARK    7  A    between atoms: C_19  and  O_21
REMARK    8  A    between atoms: C_22  and  C_23
REMARK                            x       y       z     vdW  Elec       q    Type
REMARK                         _______ _______ _______ _____ _____    ______ ____
ROOT
ATOM      1  C   UNL     1       2.810   6.357  19.458  0.00  0.00    +0.000 A 
ATOM      2  N   UNL     1       2.070   7.488  19.270  0.00  0.00    +0.000 NA
ATOM      3  C   UNL     1       2.312   8.301  18.229  0.00  0.00    +0.000 A 
ATOM      4  N   UNL     1       3.217   8.079  17.285  0.00  0.00    +0.000 NA
ATOM      5  C   UNL     1       3.927   6.967  17.467  0.00  0.00    +0.000 A 
ATOM      6  S   UNL     1       5.115   6.589  16.333  0.00  0.00    +0.000 S 
ATOM      7  C   UNL     1       5.555   5.156  17.148  0.00  0.00    +0.000 A 
ATOM      8  C   UNL     1       4.801   4.969  18.312  0.00  0.00    +0.000 A 
ATOM      9  C   UNL     1       4.955   3.812  19.254  0.00  0.00    +0.000 C 
ATOM     10  C   UNL     1       3.817   6.052  18.497  0.00  0.00    +0.000 A 
ENDROOT
BRANCH   1  12
ATOM     11  C   UNL     1       1.465   4.631  20.459  0.00  0.00    +0.000 C 
ATOM     12  N   UNL     1       2.553   5.584  20.593  0.00  0.00    +0.000 N 
ATOM     13  H   UNL     1       3.378   5.211  21.039  0.00  0.00    +0.000 HD
ENDBRANCH   1  12
BRANCH   7  14
ATOM     14  C   UNL     1       6.619   4.325  16.569  0.00  0.00    +0.000 C 
ATOM     15  O   UNL     1       7.819   4.453  16.771  0.00  0.00    +0.000 OA
BRANCH  14  16
ATOM     16  O   UNL     1       6.148   3.345  15.760  0.00  0.00    +0.000 OA
ATOM     17  H   UNL     1       5.188   3.409  15.612  0.00  0.00    +0.000 HD
ENDBRANCH  14  16
ENDBRANCH   7  14
BRANCH   3  18
ATOM     18  C   UNL     1       1.479   9.540  18.023  0.00  0.00    +0.000 C 
BRANCH  18  19
ATOM     19  C   UNL     1       0.556   9.902  19.183  0.00  0.00    +0.000 C 
BRANCH  19  20
ATOM     20  C   UNL     1      -0.777  10.416  18.681  0.00  0.00    +0.000 A 
ATOM     21  C   UNL     1      -1.340   9.924  17.493  0.00  0.00    +0.000 A 
ATOM     22  C   UNL     1      -2.575  10.398  17.038  0.00  0.00    +0.000 A 
ATOM     23  C   UNL     1      -3.266  11.360  17.772  0.00  0.00    +0.000 A 
ATOM     24  C   UNL     1      -2.717  11.836  18.956  0.00  0.00    +0.000 A 
ATOM     25  F   UNL     1      -3.384  12.756  19.667  0.00  0.00    +0.000 F 
ATOM     26  C   UNL     1      -1.487  11.374  19.417  0.00  0.00    +0.000 A 
ENDBRANCH  19  20
ENDBRANCH  18  19
ENDBRANCH   3  18
TORSDOF 6
ENDMDL
MODEL 3
REMARK VINA RESULT:      -7.6      4.266      7.905
REMARK  Name = 
REMARK  8 active torsions:
REMARK  status: ('A' for Active; 'I' for Inactive)
REMARK    1  A    between atoms: C_1  and  N_2
REMARK    2  A    between atoms: N_2  and  C_3
REMARK    3  A    between atoms: C_5  and  C_6
REMARK    4  A    between atoms: C_6  and  C_7
REMARK    5  A    between atoms: C_7  and  C_8
REMARK    6  A    between atoms: C_18  and  C_19
REMARK    7  A    between atoms: C_19  and  O_21
REMARK    8  A    between atoms: C_22  and  C_23
REMARK                            x       y       z     vdW  Elec       q    Type
REMARK                         _______ _______ _______ _____ _____    ______ ____
ROOT
ATOM      1  C   UNL     1       3.181   7.066  18.385  0.00  0.00    +0.000 A 
ATOM      2  N   UNL     1       4.101   7.174  17.384  0.00  0.00    +0.000 NA
ATOM      3  C   UNL     1       4.897   6.140  17.069  0.00  0.00    +0.000 A 
ATOM      4  N   UNL     1       4.844   4.940  17.633  0.00  0.00    +0.000 NA
ATOM      5  C   UNL     1       3.934   4.838  18.601  0.00  0.00    +0.000 A 
ATOM      6  S   UNL     1       3.785   3.359  19.397  0.00  0.00    +0.000 S 
ATOM      7  C   UNL     1       2.532   3.933  20.403  0.00  0.00    +0.000 A 
ATOM      8  C   UNL     1       2.233   5.276  20.145  0.00  0.00    +0.000 A 
ATOM      9  C   UNL     1       1.189   6.073  20.868  0.00  0.00    +0.000 C 
ATOM     10  C   UNL     1       3.068   5.814  19.056  0.00  0.00    +0.000 A 
ENDROOT
BRANCH   1  12
ATOM     11  C   UNL     1       1.567   8.691  17.643  0.00  0.00    +0.000 C 
ATOM     12  N   UNL     1       2.425   8.197  18.708  0.00  0.00    +0.000 N 
ATOM     13  H   UNL     1       1.980   8.156  19.612  0.00  0.00    +0.000 HD
ENDBRANCH   1  12
BRANCH   7  14
ATOM     14  C   UNL     1       1.940   3.005  21.376  0.00  0.00    +0.000 C 
ATOM     15  O   UNL     1       2.517   2.502  22.331  0.00  0.00    +0.000 OA
BRANCH  14  16
ATOM     16  O   UNL     1       0.634   2.740  21.131  0.00  0.00    +0.000 OA
ATOM     17  H   UNL     1       0.450   1.786  21.060  0.00  0.00    +0.000 HD
ENDBRANCH  14  16
ENDBRANCH   7  14
BRANCH   3  18
ATOM     18  C   UNL     1       5.901   6.264  15.952  0.00  0.00    +0.000 C 
BRANCH  18  19
ATOM     19  C   UNL     1       6.756   5.024  15.708  0.00  0.00    +0.000 C 
BRANCH  19  20
ATOM     20  C   UNL     1       6.828   4.692  14.231  0.00  0.00    +0.000 A 
ATOM     21  C   UNL     1       7.708   5.377  13.379  0.00  0.00    +0.000 A 
ATOM     22  C   UNL     1       7.775   5.062  12.018  0.00  0.00    +0.000 A 
ATOM     23  C   UNL     1       6.971   4.050  11.496  0.00  0.00    +0.000 A 
ATOM     24  C   UNL     1       6.112   3.360  12.342  0.00  0.00    +0.000 A 
ATOM     25  F   UNL     1       5.344   2.381  11.844  0.00  0.00    +0.000 F 
ATOM     26  C   UNL     1       6.034   3.668  13.698  0.00  0.00    +0.000 A 
ENDBRANCH  19  20
ENDBRANCH  18  19
ENDBRANCH   3  18
TORSDOF 6
ENDMDL
MODEL 4
REMARK VINA RESULT:      -7.6      2.146      2.661
REMARK  Name = 
REMARK  8 active torsions:
REMARK  status: ('A' for Active; 'I' for Inactive)
REMARK    1  A    between atoms: C_1  and  N_2
REMARK    2  A    between atoms: N_2  and  C_3
REMARK    3  A    between atoms: C_5  and  C_6
REMARK    4  A    between atoms: C_6  and  C_7
REMARK    5  A    between atoms: C_7  and  C_8
REMARK    6  A    between atoms: C_18  and  C_19
REMARK    7  A    between atoms: C_19  and  O_21
REMARK    8  A    between atoms: C_22  and  C_23
REMARK                            x       y       z     vdW  Elec       q    Type
REMARK                         _______ _______ _______ _____ _____    ______ ____
ROOT
ATOM      1  C   UNL     1       2.697   6.271  19.686  0.00  0.00    +0.000 A 
ATOM      2  N   UNL     1       1.989   7.434  19.597  0.00  0.00    +0.000 NA
ATOM      3  C   UNL     1       2.239   8.318  18.619  0.00  0.00    +0.000 A 
ATOM      4  N   UNL     1       3.124   8.144  17.645  0.00  0.00    +0.000 NA
ATOM      5  C   UNL     1       3.803   7.000  17.729  0.00  0.00    +0.000 A 
ATOM      6  S   UNL     1       4.963   6.677  16.550  0.00  0.00    +0.000 S 
ATOM      7  C   UNL     1       5.371   5.174  17.245  0.00  0.00    +0.000 A 
ATOM      8  C   UNL     1       4.629   4.919  18.404  0.00  0.00    +0.000 A 
ATOM      9  C   UNL     1       4.762   3.689  19.251  0.00  0.00    +0.000 C 
ATOM     10  C   UNL     1       3.680   6.012  18.687  0.00  0.00    +0.000 A 
ENDROOT
BRANCH   1  12
ATOM     11  C   UNL     1       1.311   4.517  20.576  0.00  0.00    +0.000 C 
ATOM     12  N   UNL     1       2.434   5.421  20.763  0.00  0.00    +0.000 N 
ATOM     13  H   UNL     1       3.253   4.986  21.161  0.00  0.00    +0.000 HD
ENDBRANCH   1  12
BRANCH   7  14
ATOM     14  C   UNL     1       6.402   4.359  16.586  0.00  0.00    +0.000 C 
ATOM     15  O   UNL     1       7.607   4.568  16.613  0.00  0.00    +0.000 OA
BRANCH  14  16
ATOM     16  O   UNL     1       5.892   3.295  15.920  0.00  0.00    +0.000 OA
ATOM     17  H   UNL     1       6.356   3.118  15.083  0.00  0.00    +0.000 HD
ENDBRANCH  14  16
ENDBRANCH   7  14
BRANCH   3  18
ATOM     18  C   UNL     1       1.442   9.593  18.522  0.00  0.00    +0.000 C 
BRANCH  18  19
ATOM     19  C   UNL     1      -0.032   9.465  18.899  0.00  0.00    +0.000 C 
BRANCH  19  20
ATOM     20  C   UNL     1      -0.325  10.174  20.205  0.00  0.00    +0.000 A 
ATOM     21  C   UNL     1      -0.862  11.471  20.218  0.00  0.00    +0.000 A 
ATOM     22  C   UNL     1      -1.137  12.118  21.428  0.00  0.00    +0.000 A 
ATOM     23  C   UNL     1      -0.889  11.471  22.637  0.00  0.00    +0.000 A 
ATOM     24  C   UNL     1      -0.372  10.182  22.625  0.00  0.00    +0.000 A 
ATOM     25  F   UNL     1      -0.140   9.555  23.786  0.00  0.00    +0.000 F 
ATOM     26  C   UNL     1      -0.091   9.529  21.427  0.00  0.00    +0.000 A 
ENDBRANCH  19  20
ENDBRANCH  18  19
ENDBRANCH   3  18
TORSDOF 6
ENDMDL
MODEL 5
REMARK VINA RESULT:      -7.6      4.291      7.444
REMARK  Name = 
REMARK  8 active torsions:
REMARK  status: ('A' for Active; 'I' for Inactive)
REMARK    1  A    between atoms: C_1  and  N_2
REMARK    2  A    between atoms: N_2  and  C_3
REMARK    3  A    between atoms: C_5  and  C_6
REMARK    4  A    between atoms: C_6  and  C_7
REMARK    5  A    between atoms: C_7  and  C_8
REMARK    6  A    between atoms: C_18  and  C_19
REMARK    7  A    between atoms: C_19  and  O_21
REMARK    8  A    between atoms: C_22  and  C_23
REMARK                            x       y       z     vdW  Elec       q    Type
REMARK                         _______ _______ _______ _____ _____    ______ ____
ROOT
ATOM      1  C   UNL     1       2.604   5.599  20.072  0.00  0.00    +0.000 A 
ATOM      2  N   UNL     1       3.251   4.759  19.213  0.00  0.00    +0.000 NA
ATOM      3  C   UNL     1       3.511   5.135  17.950  0.00  0.00    +0.000 A 
ATOM      4  N   UNL     1       3.229   6.327  17.439  0.00  0.00    +0.000 NA
ATOM      5  C   UNL     1       2.611   7.147  18.288  0.00  0.00    +0.000 A 
ATOM      6  S   UNL     1       2.194   8.687  17.743  0.00  0.00    +0.000 S 
ATOM      7  C   UNL     1       1.510   9.124  19.243  0.00  0.00    +0.000 A 
ATOM      8  C   UNL     1       1.580   8.078  20.170  0.00  0.00    +0.000 A 
ATOM      9  C   UNL     1       1.057   8.143  21.574  0.00  0.00    +0.000 C 
ATOM     10  C   UNL     1       2.251   6.895  19.598  0.00  0.00    +0.000 A 
ENDROOT
BRANCH   1  12
ATOM     11  C   UNL     1       2.153   3.686  21.461  0.00  0.00    +0.000 C 
ATOM     12  N   UNL     1       2.307   5.127  21.353  0.00  0.00    +0.000 N 
ATOM     13  H   UNL     1       2.860   5.540  22.089  0.00  0.00    +0.000 HD
ENDBRANCH   1  12
BRANCH   7  14
ATOM     14  C   UNL     1       0.953  10.476  19.386  0.00  0.00    +0.000 C 
ATOM     15  O   UNL     1       1.019  11.176  20.387  0.00  0.00    +0.000 OA
BRANCH  14  16
ATOM     16  O   UNL     1       0.335  10.918  18.264  0.00  0.00    +0.000 OA
ATOM     17  H   UNL     1      -0.227  11.697  18.426  0.00  0.00    +0.000 HD
ENDBRANCH  14  16
ENDBRANCH   7  14
BRANCH   3  18
ATOM     18  C   UNL     1       4.237   4.205  17.014  0.00  0.00    +0.000 C 
BRANCH  18  19
ATOM     19  C   UNL     1       5.351   4.851  16.194  0.00  0.00    +0.000 C 
BRANCH  19  20
ATOM     20  C   UNL     1       6.341   5.570  17.089  0.00  0.00    +0.000 A 
ATOM     21  C   UNL     1       6.989   4.897  18.136  0.00  0.00    +0.000 A 
ATOM     22  C   UNL     1       7.907   5.564  18.954  0.00  0.00    +0.000 A 
ATOM     23  C   UNL     1       8.195   6.909  18.726  0.00  0.00    +0.000 A 
ATOM     24  C   UNL     1       7.566   7.571  17.681  0.00  0.00    +0.000 A 
ATOM     25  F   UNL     1       7.848   8.862  17.455  0.00  0.00    +0.000 F 
ATOM     26  C   UNL     1       6.648   6.918  16.862  0.00  0.00    +0.000 A 
ENDBRANCH  19  20
ENDBRANCH  18  19
ENDBRANCH   3  18
TORSDOF 6
ENDMDL
MODEL 6
REMARK VINA RESULT:      -7.5      4.577      7.488
REMARK  Name = 
REMARK  8 active torsions:
REMARK  status: ('A' for Active; 'I' for Inactive)
REMARK    1  A    between atoms: C_1  and  N_2
REMARK    2  A    between atoms: N_2  and  C_3
REMARK    3  A    between atoms: C_5  and  C_6
REMARK    4  A    between atoms: C_6  and  C_7
REMARK    5  A    between atoms: C_7  and  C_8
REMARK    6  A    between atoms: C_18  and  C_19
REMARK    7  A    between atoms: C_19  and  O_21
REMARK    8  A    between atoms: C_22  and  C_23
REMARK                            x       y       z     vdW  Elec       q    Type
REMARK                         _______ _______ _______ _____ _____    ______ ____
ROOT
ATOM      1  C   UNL     1       3.480   3.836  18.477  0.00  0.00    +0.000 A 
ATOM      2  N   UNL     1       4.225   3.646  17.350  0.00  0.00    +0.000 NA
ATOM      3  C   UNL     1       4.511   4.673  16.534  0.00  0.00    +0.000 A 
ATOM      4  N   UNL     1       4.162   5.935  16.750  0.00  0.00    +0.000 NA
ATOM      5  C   UNL     1       3.446   6.116  17.859  0.00  0.00    +0.000 A 
ATOM      6  S   UNL     1       2.938   7.680  18.230  0.00  0.00    +0.000 S 
ATOM      7  C   UNL     1       2.157   7.177  19.661  0.00  0.00    +0.000 A 
ATOM      8  C   UNL     1       2.267   5.795  19.853  0.00  0.00    +0.000 A 
ATOM      9  C   UNL     1       1.679   5.044  21.010  0.00  0.00    +0.000 C 
ATOM     10  C   UNL     1       3.050   5.161  18.776  0.00  0.00    +0.000 A 
ENDROOT
BRANCH   1  12
ATOM     11  C   UNL     1       4.202   2.290  20.174  0.00  0.00    +0.000 C 
ATOM     12  N   UNL     1       3.163   2.717  19.252  0.00  0.00    +0.000 N 
ATOM     13  H   UNL     1       2.237   2.736  19.653  0.00  0.00    +0.000 HD
ENDBRANCH   1  12
BRANCH   7  14
ATOM     14  C   UNL     1       1.493   8.195  20.486  0.00  0.00    +0.000 C 
ATOM     15  O   UNL     1       0.647   8.991  20.100  0.00  0.00    +0.000 OA
BRANCH  14  16
ATOM     16  O   UNL     1       1.899   8.179  21.779  0.00  0.00    +0.000 OA
ATOM     17  H   UNL     1       2.600   7.525  21.945  0.00  0.00    +0.000 HD
ENDBRANCH  14  16
ENDBRANCH   7  14
BRANCH   3  18
ATOM     18  C   UNL     1       5.347   4.455  15.300  0.00  0.00    +0.000 C 
BRANCH  18  19
ATOM     19  C   UNL     1       6.852   4.378  15.541  0.00  0.00    +0.000 C 
BRANCH  19  20
ATOM     20  C   UNL     1       7.263   5.254  16.706  0.00  0.00    +0.000 A 
ATOM     21  C   UNL     1       7.624   4.692  17.941  0.00  0.00    +0.000 A 
ATOM     22  C   UNL     1       8.009   5.506  19.012  0.00  0.00    +0.000 A 
ATOM     23  C   UNL     1       8.051   6.890  18.855  0.00  0.00    +0.000 A 
ATOM     24  C   UNL     1       7.711   7.447  17.629  0.00  0.00    +0.000 A 
ATOM     25  F   UNL     1       7.758   8.777  17.474  0.00  0.00    +0.000 F 
ATOM     26  C   UNL     1       7.322   6.646  16.557  0.00  0.00    +0.000 A 
ENDBRANCH  19  20
ENDBRANCH  18  19
ENDBRANCH   3  18
TORSDOF 6
ENDMDL
MODEL 7
REMARK VINA RESULT:      -7.4      5.122      8.300
REMARK  Name = 
REMARK  8 active torsions:
REMARK  status: ('A' for Active; 'I' for Inactive)
REMARK    1  A    between atoms: C_1  and  N_2
REMARK    2  A    between atoms: N_2  and  C_3
REMARK    3  A    between atoms: C_5  and  C_6
REMARK    4  A    between atoms: C_6  and  C_7
REMARK    5  A    between atoms: C_7  and  C_8
REMARK    6  A    between atoms: C_18  and  C_19
REMARK    7  A    between atoms: C_19  and  O_21
REMARK    8  A    between atoms: C_22  and  C_23
REMARK                            x       y       z     vdW  Elec       q    Type
REMARK                         _______ _______ _______ _____ _____    ______ ____
ROOT
ATOM      1  C   UNL     1      -0.384  10.199  18.187  0.00  0.00    +0.000 A 
ATOM      2  N   UNL     1       0.531   9.273  17.779  0.00  0.00    +0.000 NA
ATOM      3  C   UNL     1       1.375   8.708  18.657  0.00  0.00    +0.000 A 
ATOM      4  N   UNL     1       1.377   8.936  19.964  0.00  0.00    +0.000 NA
ATOM      5  C   UNL     1       0.472   9.831  20.359  0.00  0.00    +0.000 A 
ATOM      6  S   UNL     1       0.391  10.209  21.999  0.00  0.00    +0.000 S 
ATOM      7  C   UNL     1      -0.888  11.314  21.767  0.00  0.00    +0.000 A 
ATOM      8  C   UNL     1      -1.249  11.414  20.419  0.00  0.00    +0.000 A 
ATOM      9  C   UNL     1      -2.330  12.307  19.887  0.00  0.00    +0.000 C 
ATOM     10  C   UNL     1      -0.438  10.515  19.576  0.00  0.00    +0.000 A 
ENDROOT
BRANCH   1  12
ATOM     11  C   UNL     1      -2.317   9.994  16.768  0.00  0.00    +0.000 C 
ATOM     12  N   UNL     1      -1.192  10.797  17.217  0.00  0.00    +0.000 N 
ATOM     13  H   UNL     1      -1.420  11.762  17.402  0.00  0.00    +0.000 HD
ENDBRANCH   1  12
BRANCH   7  14
ATOM     14  C   UNL     1      -1.436  12.001  22.944  0.00  0.00    +0.000 C 
ATOM     15  O   UNL     1      -2.498  11.743  23.494  0.00  0.00    +0.000 OA
BRANCH  14  16
ATOM     16  O   UNL     1      -0.631  12.987  23.408  0.00  0.00    +0.000 OA
ATOM     17  H   UNL     1      -0.285  13.556  22.697  0.00  0.00    +0.000 HD
ENDBRANCH  14  16
ENDBRANCH   7  14
BRANCH   3  18
ATOM     18  C   UNL     1       2.372   7.676  18.199  0.00  0.00    +0.000 C 
BRANCH  18  19
ATOM     19  C   UNL     1       2.950   6.797  19.304  0.00  0.00    +0.000 C 
BRANCH  19  20
ATOM     20  C   UNL     1       2.338   5.412  19.277  0.00  0.00    +0.000 A 
ATOM     21  C   UNL     1       1.507   4.968  20.318  0.00  0.00    +0.000 A 
ATOM     22  C   UNL     1       0.938   3.690  20.284  0.00  0.00    +0.000 A 
ATOM     23  C   UNL     1       1.185   2.846  19.203  0.00  0.00    +0.000 A 
ATOM     24  C   UNL     1       1.994   3.290  18.165  0.00  0.00    +0.000 A 
ATOM     25  F   UNL     1       2.227   2.482  17.120  0.00  0.00    +0.000 F 
ATOM     26  C   UNL     1       2.568   4.558  18.190  0.00  0.00    +0.000 A 
ENDBRANCH  19  20
ENDBRANCH  18  19
ENDBRANCH   3  18
TORSDOF 6
ENDMDL
MODEL 8
REMARK VINA RESULT:      -7.4      4.435      7.505
REMARK  Name = 
REMARK  8 active torsions:
REMARK  status: ('A' for Active; 'I' for Inactive)
REMARK    1  A    between atoms: C_1  and  N_2
REMARK    2  A    between atoms: N_2  and  C_3
REMARK    3  A    between atoms: C_5  and  C_6
REMARK    4  A    between atoms: C_6  and  C_7
REMARK    5  A    between atoms: C_7  and  C_8
REMARK    6  A    between atoms: C_18  and  C_19
REMARK    7  A    between atoms: C_19  and  O_21
REMARK    8  A    between atoms: C_22  and  C_23
REMARK                            x       y       z     vdW  Elec       q    Type
REMARK                         _______ _______ _______ _____ _____    ______ ____
ROOT
ATOM      1  C   UNL     1       3.613   6.515  17.735  0.00  0.00    +0.000 A 
ATOM      2  N   UNL     1       4.333   6.273  16.602  0.00  0.00    +0.000 NA
ATOM      3  C   UNL     1       4.695   5.023  16.272  0.00  0.00    +0.000 A 
ATOM      4  N   UNL     1       4.364   3.932  16.950  0.00  0.00    +0.000 NA
ATOM      5  C   UNL     1       3.649   4.174  18.048  0.00  0.00    +0.000 A 
ATOM      6  S   UNL     1       3.180   2.861  18.996  0.00  0.00    +0.000 S 
ATOM      7  C   UNL     1       2.365   3.855  20.117  0.00  0.00    +0.000 A 
ATOM      8  C   UNL     1       2.466   5.209  19.780  0.00  0.00    +0.000 A 
ATOM      9  C   UNL     1       1.868   6.334  20.571  0.00  0.00    +0.000 C 
ATOM     10  C   UNL     1       3.228   5.398  18.531  0.00  0.00    +0.000 A 
ENDROOT
BRANCH   1  12
ATOM     11  C   UNL     1       2.004   8.303  17.647  0.00  0.00    +0.000 C 
ATOM     12  N   UNL     1       3.320   7.843  18.057  0.00  0.00    +0.000 N 
ATOM     13  H   UNL     1       3.579   8.111  18.995  0.00  0.00    +0.000 HD
ENDBRANCH   1  12
BRANCH   7  14
ATOM     14  C   UNL     1       1.687   3.213  21.252  0.00  0.00    +0.000 C 
ATOM     15  O   UNL     1       2.147   3.074  22.377  0.00  0.00    +0.000 OA
BRANCH  14  16
ATOM     16  O   UNL     1       0.442   2.772  20.947  0.00  0.00    +0.000 OA
ATOM     17  H   UNL     1       0.111   3.133  20.106  0.00  0.00    +0.000 HD
ENDBRANCH  14  16
ENDBRANCH   7  14
BRANCH   3  18
ATOM     18  C   UNL     1       5.479   4.765  15.011  0.00  0.00    +0.000 C 
BRANCH  18  19
ATOM     19  C   UNL     1       6.975   5.054  15.107  0.00  0.00    +0.000 C 
BRANCH  19  20
ATOM     20  C   UNL     1       7.349   5.544  16.491  0.00  0.00    +0.000 A 
ATOM     21  C   UNL     1       7.566   4.641  17.543  0.00  0.00    +0.000 A 
ATOM     22  C   UNL     1       7.918   5.100  18.817  0.00  0.00    +0.000 A 
ATOM     23  C   UNL     1       8.068   6.466  19.049  0.00  0.00    +0.000 A 
ATOM     24  C   UNL     1       7.869   7.359  18.005  0.00  0.00    +0.000 A 
ATOM     25  F   UNL     1       8.020   8.673  18.224  0.00  0.00    +0.000 F 
ATOM     26  C   UNL     1       7.515   6.914  16.733  0.00  0.00    +0.000 A 
ENDBRANCH  19  20
ENDBRANCH  18  19
ENDBRANCH   3  18
TORSDOF 6
ENDMDL
MODEL 9
REMARK VINA RESULT:      -7.4      5.514      8.726
REMARK  Name = 
REMARK  8 active torsions:
REMARK  status: ('A' for Active; 'I' for Inactive)
REMARK    1  A    between atoms: C_1  and  N_2
REMARK    2  A    between atoms: N_2  and  C_3
REMARK    3  A    between atoms: C_5  and  C_6
REMARK    4  A    between atoms: C_6  and  C_7
REMARK    5  A    between atoms: C_7  and  C_8
REMARK    6  A    between atoms: C_18  and  C_19
REMARK    7  A    between atoms: C_19  and  O_21
REMARK    8  A    between atoms: C_22  and  C_23
REMARK                            x       y       z     vdW  Elec       q    Type
REMARK                         _______ _______ _______ _____ _____    ______ ____
ROOT
ATOM      1  C   UNL     1       0.114  10.051  19.137  0.00  0.00    +0.000 A 
ATOM      2  N   UNL     1       0.984   9.003  19.064  0.00  0.00    +0.000 NA
ATOM      3  C   UNL     1       1.406   8.382  20.176  0.00  0.00    +0.000 A 
ATOM      4  N   UNL     1       1.004   8.671  21.407  0.00  0.00    +0.000 NA
ATOM      5  C   UNL     1       0.144   9.687  21.471  0.00  0.00    +0.000 A 
ATOM      6  S   UNL     1      -0.428  10.150  22.987  0.00  0.00    +0.000 S 
ATOM      7  C   UNL     1      -1.401  11.390  22.334  0.00  0.00    +0.000 A 
ATOM      8  C   UNL     1      -1.277  11.468  20.943  0.00  0.00    +0.000 A 
ATOM      9  C   UNL     1      -1.993  12.460  20.075  0.00  0.00    +0.000 C 
ATOM     10  C   UNL     1      -0.357  10.438  20.424  0.00  0.00    +0.000 A 
ENDROOT
BRANCH   1  12
ATOM     11  C   UNL     1      -1.433  10.182  17.297  0.00  0.00    +0.000 C 
ATOM     12  N   UNL     1      -0.240  10.696  17.948  0.00  0.00    +0.000 N 
ATOM     13  H   UNL     1      -0.193  11.703  17.991  0.00  0.00    +0.000 HD
ENDBRANCH   1  12
BRANCH   7  14
ATOM     14  C   UNL     1      -2.215  12.194  23.256  0.00  0.00    +0.000 C 
ATOM     15  O   UNL     1      -3.299  11.871  23.723  0.00  0.00    +0.000 OA
BRANCH  14  16
ATOM     16  O   UNL     1      -1.642  13.379  23.576  0.00  0.00    +0.000 OA
ATOM     17  H   UNL     1      -1.208  13.805  22.816  0.00  0.00    +0.000 HD
ENDBRANCH  14  16
ENDBRANCH   7  14
BRANCH   3  18
ATOM     18  C   UNL     1       2.356   7.216  20.084  0.00  0.00    +0.000 C 
BRANCH  18  19
ATOM     19  C   UNL     1       2.356   6.485  18.744  0.00  0.00    +0.000 C 
BRANCH  19  20
ATOM     20  C   UNL     1       2.007   5.022  18.920  0.00  0.00    +0.000 A 
ATOM     21  C   UNL     1       2.129   4.117  17.854  0.00  0.00    +0.000 A 
ATOM     22  C   UNL     1       1.812   2.765  18.024  0.00  0.00    +0.000 A 
ATOM     23  C   UNL     1       1.382   2.301  19.266  0.00  0.00    +0.000 A 
ATOM     24  C   UNL     1       1.276   3.193  20.326  0.00  0.00    +0.000 A 
ATOM     25  F   UNL     1       0.871   2.747  21.523  0.00  0.00    +0.000 F 
ATOM     26  C   UNL     1       1.586   4.541  20.167  0.00  0.00    +0.000 A 
ENDBRANCH  19  20
ENDBRANCH  18  19
ENDBRANCH   3  18
TORSDOF 6
ENDMDL
