MODEL 1
REMARK VINA RESULT:      -8.4      0.000      0.000
REMARK  Name = 
REMARK  6 active torsions:
REMARK  status: ('A' for Active; 'I' for Inactive)
REMARK    1  A    between atoms: C_1  and  C_2
REMARK    2  A    between atoms: C_2  and  C_3
REMARK    3  A    between atoms: C_3  and  O_4
REMARK    4  A    between atoms: C_3  and  C_13
REMARK    5  A    between atoms: O_4  and  C_5
REMARK    6  A    between atoms: C_17  and  C_19
REMARK                            x       y       z     vdW  Elec       q    Type
REMARK                         _______ _______ _______ _____ _____    ______ ____
ROOT
ATOM      1  C   UNL     1       2.414   4.261  18.872  0.00  0.00    +0.000 C 
ATOM      2  C   UNL     1       2.359   5.296  17.725  0.00  0.00    +0.000 C 
ATOM      3  C   UNL     1       2.798   6.701  18.162  0.00  0.00    +0.000 C 
ATOM      4  N   UNL     1       2.095   7.138  19.368  0.00  0.00    +0.000 N 
ATOM      5  C   UNL     1       1.587   8.439  19.445  0.00  0.00    +0.000 C 
ATOM      6  O   UNL     1       1.762   9.237  18.510  0.00  0.00    +0.000 OA
ATOM      7  C   UNL     1       2.130   6.206  20.488  0.00  0.00    +0.000 C 
ATOM      8  C   UNL     1       1.587   4.859  20.031  0.00  0.00    +0.000 C 
ENDROOT
BRANCH   5   9
ATOM      9  C   UNL     1       0.775   8.836  20.714  0.00  0.00    +0.000 C 
ATOM     10  C   UNL     1       1.254  10.082  21.503  0.00  0.00    +0.000 C 
ATOM     11  C   UNL     1      -0.226  10.509  21.656  0.00  0.00    +0.000 C 
ATOM     12  C   UNL     1      -0.911  10.300  22.994  0.00  0.00    +0.000 C 
ATOM     13  O   UNL     1      -1.055  11.615  23.566  0.00  0.00    +0.000 OA
ATOM     14  C   UNL     1      -0.857  12.550  22.591  0.00  0.00    +0.000 C 
ATOM     15  O   UNL     1      -1.001  13.751  22.728  0.00  0.00    +0.000 OA
ATOM     16  N   UNL     1      -0.442  11.925  21.451  0.00  0.00    +0.000 N 
ATOM     17  C   UNL     1      -0.572   9.582  20.480  0.00  0.00    +0.000 C 
ATOM     18  H   UNL     1      -0.191  12.486  20.652  0.00  0.00    +0.000 HD
ENDBRANCH   5   9
BRANCH   1  19
ATOM     19  C   UNL     1       3.871   3.808  19.245  0.00  0.00    +0.000 C 
BRANCH  19  21
ATOM     20  C   UNL     1       3.613   1.349  18.422  0.00  0.00    +0.000 C 
ATOM     21  C   UNL     1       3.938   2.291  19.573  0.00  0.00    +0.000 C 
ENDBRANCH  19  21
BRANCH  19  22
ATOM     22  O   UNL     1       4.732   4.073  18.102  0.00  0.00    +0.000 OA
BRANCH  22  23
ATOM     23  C   UNL     1       5.776   4.961  18.248  0.00  0.00    +0.000 A 
ATOM     24  C   UNL     1       6.564   5.043  19.407  0.00  0.00    +0.000 A 
ATOM     25  C   UNL     1       7.615   5.957  19.503  0.00  0.00    +0.000 A 
ATOM     26  C   UNL     1       7.880   6.815  18.451  0.00  0.00    +0.000 A 
ATOM     27  F   UNL     1       8.864   7.716  18.570  0.00  0.00    +0.000 F 
ATOM     28  C   UNL     1       7.139   6.752  17.279  0.00  0.00    +0.000 A 
ATOM     29  C   UNL     1       6.099   5.812  17.173  0.00  0.00    +0.000 A 
ATOM     30 CL   UNL     1       5.231   5.756  15.680  0.00  0.00    +0.000 Cl
ENDBRANCH  22  23
ENDBRANCH  19  22
ENDBRANCH   1  19
TORSDOF 5
ENDMDL
MODEL 2
REMARK VINA RESULT:      -7.8      4.325      8.948
REMARK  Name = 
REMARK  6 active torsions:
REMARK  status: ('A' for Active; 'I' for Inactive)
REMARK    1  A    between atoms: C_1  and  C_2
REMARK    2  A    between atoms: C_2  and  C_3
REMARK    3  A    between atoms: C_3  and  O_4
REMARK    4  A    between atoms: C_3  and  C_13
REMARK    5  A    between atoms: O_4  and  C_5
REMARK    6  A    between atoms: C_17  and  C_19
REMARK                            x       y       z     vdW  Elec       q    Type
REMARK                         _______ _______ _______ _____ _____    ______ ____
ROOT
ATOM      1  C   UNL     1       3.991   4.517  19.267  0.00  0.00    +0.000 C 
ATOM      2  C   UNL     1       5.243   5.417  19.383  0.00  0.00    +0.000 C 
ATOM      3  C   UNL     1       5.586   6.141  18.074  0.00  0.00    +0.000 C 
ATOM      4  N   UNL     1       5.642   5.216  16.941  0.00  0.00    +0.000 N 
ATOM      5  C   UNL     1       6.687   5.311  16.016  0.00  0.00    +0.000 C 
ATOM      6  O   UNL     1       7.547   6.198  16.130  0.00  0.00    +0.000 OA
ATOM      7  C   UNL     1       4.478   4.355  16.775  0.00  0.00    +0.000 C 
ATOM      8  C   UNL     1       4.243   3.581  18.065  0.00  0.00    +0.000 C 
ENDROOT
BRANCH   5   9
ATOM      9  C   UNL     1       6.753   4.254  14.873  0.00  0.00    +0.000 C 
ATOM     10  C   UNL     1       5.433   3.532  14.496  0.00  0.00    +0.000 C 
ATOM     11  C   UNL     1       5.816   3.688  13.004  0.00  0.00    +0.000 C 
ATOM     12  C   UNL     1       6.339   2.477  12.254  0.00  0.00    +0.000 C 
ATOM     13  O   UNL     1       5.277   2.084  11.363  0.00  0.00    +0.000 OA
ATOM     14  C   UNL     1       4.374   3.104  11.267  0.00  0.00    +0.000 C 
ATOM     15  O   UNL     1       3.412   3.126  10.522  0.00  0.00    +0.000 OA
ATOM     16  N   UNL     1       4.706   4.079  12.162  0.00  0.00    +0.000 N 
ATOM     17  C   UNL     1       6.795   4.800  13.414  0.00  0.00    +0.000 C 
ATOM     18  H   UNL     1       4.099   4.878  12.260  0.00  0.00    +0.000 HD
ENDBRANCH   5   9
BRANCH   1  19
ATOM     19  C   UNL     1       2.640   5.317  19.229  0.00  0.00    +0.000 C 
BRANCH  19  21
ATOM     20  C   UNL     1       1.964   3.649  21.112  0.00  0.00    +0.000 C 
ATOM     21  C   UNL     1       1.508   4.578  19.995  0.00  0.00    +0.000 C 
ENDBRANCH  19  21
BRANCH  19  22
ATOM     22  O   UNL     1       2.862   6.608  19.862  0.00  0.00    +0.000 OA
BRANCH  22  23
ATOM     23  C   UNL     1       2.178   7.708  19.390  0.00  0.00    +0.000 A 
ATOM     24  C   UNL     1       2.234   8.136  18.054  0.00  0.00    +0.000 A 
ATOM     25  C   UNL     1       1.518   9.254  17.624  0.00  0.00    +0.000 A 
ATOM     26  C   UNL     1       0.753   9.972  18.526  0.00  0.00    +0.000 A 
ATOM     27  F   UNL     1       0.103  11.068  18.110  0.00  0.00    +0.000 F 
ATOM     28  C   UNL     1       0.654   9.570  19.850  0.00  0.00    +0.000 A 
ATOM     29  C   UNL     1       1.353   8.427  20.276  0.00  0.00    +0.000 A 
ATOM     30 CL   UNL     1       1.167   7.954  21.928  0.00  0.00    +0.000 Cl
ENDBRANCH  22  23
ENDBRANCH  19  22
ENDBRANCH   1  19
TORSDOF 5
ENDMDL
MODEL 3
REMARK VINA RESULT:      -7.5      1.146      1.274
REMARK  Name = 
REMARK  6 active torsions:
REMARK  status: ('A' for Active; 'I' for Inactive)
REMARK    1  A    between atoms: C_1  and  C_2
REMARK    2  A    between atoms: C_2  and  C_3
REMARK    3  A    between atoms: C_3  and  O_4
REMARK    4  A    between atoms: C_3  and  C_13
REMARK    5  A    between atoms: O_4  and  C_5
REMARK    6  A    between atoms: C_17  and  C_19
REMARK                            x       y       z     vdW  Elec       q    Type
REMARK                         _______ _______ _______ _____ _____    ______ ____
ROOT
ATOM      1  C   UNL     1       2.185   4.489  19.368  0.00  0.00    +0.000 C 
ATOM      2  C   UNL     1       2.135   5.281  18.041  0.00  0.00    +0.000 C 
ATOM      3  C   UNL     1       2.696   6.703  18.170  0.00  0.00    +0.000 C 
ATOM      4  N   UNL     1       2.098   7.423  19.295  0.00  0.00    +0.000 N 
ATOM      5  C   UNL     1       1.688   8.751  19.133  0.00  0.00    +0.000 C 
ATOM      6  O   UNL     1       1.862   9.333  18.051  0.00  0.00    +0.000 OA
ATOM      7  C   UNL     1       2.134   6.728  20.575  0.00  0.00    +0.000 C 
ATOM      8  C   UNL     1       1.472   5.366  20.420  0.00  0.00    +0.000 C 
ENDROOT
BRANCH   5   9
ATOM      9  C   UNL     1       0.982   9.452  20.331  0.00  0.00    +0.000 C 
ATOM     10  C   UNL     1       0.924  11.002  20.315  0.00  0.00    +0.000 C 
ATOM     11  C   UNL     1      -0.541  10.916  20.809  0.00  0.00    +0.000 C 
ATOM     12  C   UNL     1      -0.839  11.222  22.264  0.00  0.00    +0.000 C 
ATOM     13  O   UNL     1      -1.502  12.501  22.264  0.00  0.00    +0.000 OA
ATOM     14  C   UNL     1      -1.917  12.788  20.995  0.00  0.00    +0.000 C 
ATOM     15  O   UNL     1      -2.591  13.750  20.676  0.00  0.00    +0.000 OA
ATOM     16  N   UNL     1      -1.429  11.842  20.141  0.00  0.00    +0.000 N 
ATOM     17  C   UNL     1      -0.575   9.458  20.324  0.00  0.00    +0.000 C 
ATOM     18  H   UNL     1      -1.595  11.947  19.153  0.00  0.00    +0.000 HD
ENDBRANCH   5   9
BRANCH   1  19
ATOM     19  C   UNL     1       3.626   4.001  19.759  0.00  0.00    +0.000 C 
BRANCH  19  21
ATOM     20  C   UNL     1       2.461   2.502  21.542  0.00  0.00    +0.000 C 
ATOM     21  C   UNL     1       3.591   2.655  20.534  0.00  0.00    +0.000 C 
ENDBRANCH  19  21
BRANCH  19  22
ATOM     22  O   UNL     1       4.386   3.811  18.533  0.00  0.00    +0.000 OA
BRANCH  22  23
ATOM     23  C   UNL     1       5.385   4.709  18.223  0.00  0.00    +0.000 A 
ATOM     24  C   UNL     1       6.191   5.330  19.189  0.00  0.00    +0.000 A 
ATOM     25  C   UNL     1       7.195   6.229  18.823  0.00  0.00    +0.000 A 
ATOM     26  C   UNL     1       7.393   6.534  17.488  0.00  0.00    +0.000 A 
ATOM     27  F   UNL     1       8.331   7.430  17.151  0.00  0.00    +0.000 F 
ATOM     28  C   UNL     1       6.633   5.925  16.500  0.00  0.00    +0.000 A 
ATOM     29  C   UNL     1       5.640   4.999  16.868  0.00  0.00    +0.000 A 
ATOM     30 CL   UNL     1       4.746   4.248  15.595  0.00  0.00    +0.000 Cl
ENDBRANCH  22  23
ENDBRANCH  19  22
ENDBRANCH   1  19
TORSDOF 5
ENDMDL
MODEL 4
REMARK VINA RESULT:      -7.5      4.150      9.637
REMARK  Name = 
REMARK  6 active torsions:
REMARK  status: ('A' for Active; 'I' for Inactive)
REMARK    1  A    between atoms: C_1  and  C_2
REMARK    2  A    between atoms: C_2  and  C_3
REMARK    3  A    between atoms: C_3  and  O_4
REMARK    4  A    between atoms: C_3  and  C_13
REMARK    5  A    between atoms: O_4  and  C_5
REMARK    6  A    between atoms: C_17  and  C_19
REMARK                            x       y       z     vdW  Elec       q    Type
REMARK                         _______ _______ _______ _____ _____    ______ ____
ROOT
ATOM      1  C   UNL     1       0.066  10.394  19.239  0.00  0.00    +0.000 C 
ATOM      2  C   UNL     1      -0.129   9.289  20.303  0.00  0.00    +0.000 C 
ATOM      3  C   UNL     1       1.174   8.560  20.658  0.00  0.00    +0.000 C 
ATOM      4  N   UNL     1       1.877   8.093  19.463  0.00  0.00    +0.000 N 
ATOM      5  C   UNL     1       2.420   6.804  19.434  0.00  0.00    +0.000 C 
ATOM      6  O   UNL     1       2.341   6.067  20.429  0.00  0.00    +0.000 OA
ATOM      7  C   UNL     1       2.103   9.099  18.433  0.00  0.00    +0.000 C 
ATOM      8  C   UNL     1       0.769   9.718  18.041  0.00  0.00    +0.000 C 
ENDROOT
BRANCH   5   9
ATOM      9  C   UNL     1       3.088   6.319  18.113  0.00  0.00    +0.000 C 
ATOM     10  C   UNL     1       4.567   6.722  17.874  0.00  0.00    +0.000 C 
ATOM     11  C   UNL     1       4.835   5.290  17.350  0.00  0.00    +0.000 C 
ATOM     12  C   UNL     1       4.968   5.074  15.854  0.00  0.00    +0.000 C 
ATOM     13  O   UNL     1       6.368   4.819  15.622  0.00  0.00    +0.000 OA
ATOM     14  C   UNL     1       6.971   4.527  16.812  0.00  0.00    +0.000 C 
ATOM     15  O   UNL     1       8.127   4.172  16.946  0.00  0.00    +0.000 OA
ATOM     16  N   UNL     1       6.079   4.726  17.825  0.00  0.00    +0.000 N 
ATOM     17  C   UNL     1       3.553   4.833  18.065  0.00  0.00    +0.000 C 
ATOM     18  H   UNL     1       6.390   4.613  18.777  0.00  0.00    +0.000 HD
ENDBRANCH   5   9
BRANCH   1  19
ATOM     19  C   UNL     1       0.766  11.686  19.793  0.00  0.00    +0.000 C 
BRANCH  19  21
ATOM     20  C   UNL     1       1.722  13.522  18.209  0.00  0.00    +0.000 C 
ATOM     21  C   UNL     1       1.919  12.162  18.866  0.00  0.00    +0.000 C 
ENDBRANCH  19  21
BRANCH  19  22
ATOM     22  O   UNL     1      -0.231  12.742  19.871  0.00  0.00    +0.000 OA
BRANCH  22  23
ATOM     23  C   UNL     1      -1.001  12.848  21.010  0.00  0.00    +0.000 A 
ATOM     24  C   UNL     1      -0.485  13.231  22.257  0.00  0.00    +0.000 A 
ATOM     25  C   UNL     1      -1.308  13.328  23.380  0.00  0.00    +0.000 A 
ATOM     26  C   UNL     1      -2.654  13.024  23.276  0.00  0.00    +0.000 A 
ATOM     27  F   UNL     1      -3.427  13.081  24.370  0.00  0.00    +0.000 F 
ATOM     28  C   UNL     1      -3.208  12.663  22.057  0.00  0.00    +0.000 A 
ATOM     29  C   UNL     1      -2.383  12.592  20.920  0.00  0.00    +0.000 A 
ATOM     30 CL   UNL     1      -3.133  12.168  19.422  0.00  0.00    +0.000 Cl
ENDBRANCH  22  23
ENDBRANCH  19  22
ENDBRANCH   1  19
TORSDOF 5
ENDMDL
MODEL 5
REMARK VINA RESULT:      -7.5      4.170      8.874
REMARK  Name = 
REMARK  6 active torsions:
REMARK  status: ('A' for Active; 'I' for Inactive)
REMARK    1  A    between atoms: C_1  and  C_2
REMARK    2  A    between atoms: C_2  and  C_3
REMARK    3  A    between atoms: C_3  and  O_4
REMARK    4  A    between atoms: C_3  and  C_13
REMARK    5  A    between atoms: O_4  and  C_5
REMARK    6  A    between atoms: C_17  and  C_19
REMARK                            x       y       z     vdW  Elec       q    Type
REMARK                         _______ _______ _______ _____ _____    ______ ____
ROOT
ATOM      1  C   UNL     1       4.122   4.411  19.307  0.00  0.00    +0.000 C 
ATOM      2  C   UNL     1       5.411   5.260  19.407  0.00  0.00    +0.000 C 
ATOM      3  C   UNL     1       5.748   5.997  18.103  0.00  0.00    +0.000 C 
ATOM      4  N   UNL     1       5.739   5.093  16.952  0.00  0.00    +0.000 N 
ATOM      5  C   UNL     1       6.763   5.166  16.001  0.00  0.00    +0.000 C 
ATOM      6  O   UNL     1       7.659   6.018  16.110  0.00  0.00    +0.000 OA
ATOM      7  C   UNL     1       4.538   4.280  16.800  0.00  0.00    +0.000 C 
ATOM      8  C   UNL     1       4.307   3.491  18.081  0.00  0.00    +0.000 C 
ENDROOT
BRANCH   5   9
ATOM      9  C   UNL     1       6.758   4.132  14.837  0.00  0.00    +0.000 C 
ATOM     10  C   UNL     1       5.396   3.493  14.459  0.00  0.00    +0.000 C 
ATOM     11  C   UNL     1       5.774   3.657  12.967  0.00  0.00    +0.000 C 
ATOM     12  C   UNL     1       6.221   2.434  12.188  0.00  0.00    +0.000 C 
ATOM     13  O   UNL     1       5.130   2.121  11.300  0.00  0.00    +0.000 OA
ATOM     14  C   UNL     1       4.287   3.192  11.233  0.00  0.00    +0.000 C 
ATOM     15  O   UNL     1       3.321   3.283  10.498  0.00  0.00    +0.000 OA
ATOM     16  N   UNL     1       4.682   4.128  12.144  0.00  0.00    +0.000 N 
ATOM     17  C   UNL     1       6.818   4.703  13.389  0.00  0.00    +0.000 C 
ATOM     18  H   UNL     1       4.122   4.958  12.264  0.00  0.00    +0.000 HD
ENDBRANCH   5   9
BRANCH   1  19
ATOM     19  C   UNL     1       2.803   5.263  19.320  0.00  0.00    +0.000 C 
BRANCH  19  21
ATOM     20  C   UNL     1       0.989   3.396  19.431  0.00  0.00    +0.000 C 
ATOM     21  C   UNL     1       1.672   4.566  20.126  0.00  0.00    +0.000 C 
ENDBRANCH  19  21
BRANCH  19  22
ATOM     22  O   UNL     1       3.097   6.543  19.947  0.00  0.00    +0.000 OA
BRANCH  22  23
ATOM     23  C   UNL     1       2.172   7.560  19.850  0.00  0.00    +0.000 A 
ATOM     24  C   UNL     1       1.334   7.943  20.909  0.00  0.00    +0.000 A 
ATOM     25  C   UNL     1       0.416   8.985  20.762  0.00  0.00    +0.000 A 
ATOM     26  C   UNL     1       0.310   9.644  19.550  0.00  0.00    +0.000 A 
ATOM     27  F   UNL     1      -0.604  10.614  19.408  0.00  0.00    +0.000 F 
ATOM     28  C   UNL     1       1.135   9.311  18.486  0.00  0.00    +0.000 A 
ATOM     29  C   UNL     1       2.078   8.280  18.643  0.00  0.00    +0.000 A 
ATOM     30 CL   UNL     1       3.101   7.929  17.296  0.00  0.00    +0.000 Cl
ENDBRANCH  22  23
ENDBRANCH  19  22
ENDBRANCH   1  19
TORSDOF 5
ENDMDL
MODEL 6
REMARK VINA RESULT:      -7.4      4.625      9.768
REMARK  Name = 
REMARK  6 active torsions:
REMARK  status: ('A' for Active; 'I' for Inactive)
REMARK    1  A    between atoms: C_1  and  C_2
REMARK    2  A    between atoms: C_2  and  C_3
REMARK    3  A    between atoms: C_3  and  O_4
REMARK    4  A    between atoms: C_3  and  C_13
REMARK    5  A    between atoms: O_4  and  C_5
REMARK    6  A    between atoms: C_17  and  C_19
REMARK                            x       y       z     vdW  Elec       q    Type
REMARK                         _______ _______ _______ _____ _____    ______ ____
ROOT
ATOM      1  C   UNL     1       0.417  11.452  21.063  0.00  0.00    +0.000 C 
ATOM      2  C   UNL     1       0.897  11.792  19.633  0.00  0.00    +0.000 C 
ATOM      3  C   UNL     1       0.720  10.629  18.647  0.00  0.00    +0.000 C 
ATOM      4  N   UNL     1       1.290   9.386  19.168  0.00  0.00    +0.000 N 
ATOM      5  C   UNL     1       2.059   8.569  18.331  0.00  0.00    +0.000 C 
ATOM      6  O   UNL     1       2.230   8.875  17.141  0.00  0.00    +0.000 OA
ATOM      7  C   UNL     1       0.858   9.009  20.507  0.00  0.00    +0.000 C 
ATOM      8  C   UNL     1       1.151  10.154  21.466  0.00  0.00    +0.000 C 
ENDROOT
BRANCH   5   9
ATOM      9  C   UNL     1       2.714   7.298  18.948  0.00  0.00    +0.000 C 
ATOM     10  C   UNL     1       1.843   6.018  19.032  0.00  0.00    +0.000 C 
ATOM     11  C   UNL     1       3.070   5.195  18.571  0.00  0.00    +0.000 C 
ATOM     12  C   UNL     1       3.830   4.379  19.599  0.00  0.00    +0.000 C 
ATOM     13  O   UNL     1       3.504   3.003  19.320  0.00  0.00    +0.000 OA
ATOM     14  C   UNL     1       2.946   2.920  18.078  0.00  0.00    +0.000 C 
ATOM     15  O   UNL     1       2.647   1.886  17.508  0.00  0.00    +0.000 OA
ATOM     16  N   UNL     1       2.748   4.180  17.592  0.00  0.00    +0.000 N 
ATOM     17  C   UNL     1       3.689   6.496  18.035  0.00  0.00    +0.000 C 
ATOM     18  H   UNL     1       2.282   4.292  16.705  0.00  0.00    +0.000 HD
ENDBRANCH   5   9
BRANCH   1  19
ATOM     19  C   UNL     1      -1.146  11.420  21.213  0.00  0.00    +0.000 C 
BRANCH  19  21
ATOM     20  C   UNL     1      -1.252  13.064  23.232  0.00  0.00    +0.000 C 
ATOM     21  C   UNL     1      -1.592  11.687  22.677  0.00  0.00    +0.000 C 
ENDBRANCH  19  21
BRANCH  19  22
ATOM     22  O   UNL     1      -1.703  12.461  20.362  0.00  0.00    +0.000 OA
BRANCH  22  23
ATOM     23  C   UNL     1      -2.804  12.168  19.587  0.00  0.00    +0.000 A 
ATOM     24  C   UNL     1      -2.751  11.349  18.448  0.00  0.00    +0.000 A 
ATOM     25  C   UNL     1      -3.897  11.078  17.699  0.00  0.00    +0.000 A 
ATOM     26  C   UNL     1      -5.108  11.638  18.065  0.00  0.00    +0.000 A 
ATOM     27  F   UNL     1      -6.193  11.405  17.315  0.00  0.00    +0.000 F 
ATOM     28  C   UNL     1      -5.208  12.435  19.196  0.00  0.00    +0.000 A 
ATOM     29  C   UNL     1      -4.058  12.685  19.966  0.00  0.00    +0.000 A 
ATOM     30 CL   UNL     1      -4.248  13.657  21.382  0.00  0.00    +0.000 Cl
ENDBRANCH  22  23
ENDBRANCH  19  22
ENDBRANCH   1  19
TORSDOF 5
ENDMDL
MODEL 7
REMARK VINA RESULT:      -7.2      3.995      8.458
REMARK  Name = 
REMARK  6 active torsions:
REMARK  status: ('A' for Active; 'I' for Inactive)
REMARK    1  A    between atoms: C_1  and  C_2
REMARK    2  A    between atoms: C_2  and  C_3
REMARK    3  A    between atoms: C_3  and  O_4
REMARK    4  A    between atoms: C_3  and  C_13
REMARK    5  A    between atoms: O_4  and  C_5
REMARK    6  A    between atoms: C_17  and  C_19
REMARK                            x       y       z     vdW  Elec       q    Type
REMARK                         _______ _______ _______ _____ _____    ______ ____
ROOT
ATOM      1  C   UNL     1       2.973   3.467  18.767  0.00  0.00    +0.000 C 
ATOM      2  C   UNL     1       4.207   3.421  19.698  0.00  0.00    +0.000 C 
ATOM      3  C   UNL     1       5.185   4.579  19.456  0.00  0.00    +0.000 C 
ATOM      4  N   UNL     1       5.535   4.706  18.041  0.00  0.00    +0.000 N 
ATOM      5  C   UNL     1       6.867   4.917  17.669  0.00  0.00    +0.000 C 
ATOM      6  O   UNL     1       7.749   5.033  18.534  0.00  0.00    +0.000 OA
ATOM      7  C   UNL     1       4.408   4.771  17.119  0.00  0.00    +0.000 C 
ATOM      8  C   UNL     1       3.524   3.549  17.327  0.00  0.00    +0.000 C 
ENDROOT
BRANCH   5   9
ATOM      9  C   UNL     1       7.205   4.965  16.149  0.00  0.00    +0.000 C 
ATOM     10  C   UNL     1       7.018   3.657  15.337  0.00  0.00    +0.000 C 
ATOM     11  C   UNL     1       6.396   4.496  14.195  0.00  0.00    +0.000 C 
ATOM     12  C   UNL     1       7.232   4.784  12.963  0.00  0.00    +0.000 C 
ATOM     13  O   UNL     1       6.671   3.969  11.915  0.00  0.00    +0.000 OA
ATOM     14  C   UNL     1       5.438   3.530  12.302  0.00  0.00    +0.000 C 
ATOM     15  O   UNL     1       4.665   2.899  11.606  0.00  0.00    +0.000 OA
ATOM     16  N   UNL     1       5.227   3.885  13.603  0.00  0.00    +0.000 N 
ATOM     17  C   UNL     1       6.145   5.619  15.214  0.00  0.00    +0.000 C 
ATOM     18  H   UNL     1       4.382   3.578  14.060  0.00  0.00    +0.000 HD
ENDBRANCH   5   9
BRANCH   1  19
ATOM     19  C   UNL     1       1.929   4.575  19.156  0.00  0.00    +0.000 C 
BRANCH  19  21
ATOM     20  C   UNL     1       1.313   3.245  21.310  0.00  0.00    +0.000 C 
ATOM     21  C   UNL     1       0.822   4.022  20.095  0.00  0.00    +0.000 C 
ENDBRANCH  19  21
BRANCH  19  22
ATOM     22  O   UNL     1       2.638   5.639  19.850  0.00  0.00    +0.000 OA
BRANCH  22  23
ATOM     23  C   UNL     1       2.020   6.862  20.001  0.00  0.00    +0.000 A 
ATOM     24  C   UNL     1       1.263   7.210  21.130  0.00  0.00    +0.000 A 
ATOM     25  C   UNL     1       0.662   8.466  21.237  0.00  0.00    +0.000 A 
ATOM     26  C   UNL     1       0.791   9.382  20.208  0.00  0.00    +0.000 A 
ATOM     27  F   UNL     1       0.175  10.568  20.304  0.00  0.00    +0.000 F 
ATOM     28  C   UNL     1       1.549   9.085  19.085  0.00  0.00    +0.000 A 
ATOM     29  C   UNL     1       2.177   7.831  18.990  0.00  0.00    +0.000 A 
ATOM     30 CL   UNL     1       3.134   7.528  17.584  0.00  0.00    +0.000 Cl
ENDBRANCH  22  23
ENDBRANCH  19  22
ENDBRANCH   1  19
TORSDOF 5
ENDMDL
MODEL 8
REMARK VINA RESULT:      -7.2      4.158      8.422
REMARK  Name = 
REMARK  6 active torsions:
REMARK  status: ('A' for Active; 'I' for Inactive)
REMARK    1  A    between atoms: C_1  and  C_2
REMARK    2  A    between atoms: C_2  and  C_3
REMARK    3  A    between atoms: C_3  and  O_4
REMARK    4  A    between atoms: C_3  and  C_13
REMARK    5  A    between atoms: O_4  and  C_5
REMARK    6  A    between atoms: C_17  and  C_19
REMARK                            x       y       z     vdW  Elec       q    Type
REMARK                         _______ _______ _______ _____ _____    ______ ____
ROOT
ATOM      1  C   UNL     1       2.911   3.493  18.745  0.00  0.00    +0.000 C 
ATOM      2  C   UNL     1       4.127   3.477  19.701  0.00  0.00    +0.000 C 
ATOM      3  C   UNL     1       5.083   4.656  19.476  0.00  0.00    +0.000 C 
ATOM      4  N   UNL     1       5.458   4.789  18.067  0.00  0.00    +0.000 N 
ATOM      5  C   UNL     1       6.792   5.030  17.722  0.00  0.00    +0.000 C 
ATOM      6  O   UNL     1       7.653   5.168  18.604  0.00  0.00    +0.000 OA
ATOM      7  C   UNL     1       4.348   4.827  17.123  0.00  0.00    +0.000 C 
ATOM      8  C   UNL     1       3.489   3.585  17.316  0.00  0.00    +0.000 C 
ENDROOT
BRANCH   5   9
ATOM      9  C   UNL     1       7.159   5.083  16.209  0.00  0.00    +0.000 C 
ATOM     10  C   UNL     1       7.073   3.757  15.409  0.00  0.00    +0.000 C 
ATOM     11  C   UNL     1       6.424   4.542  14.244  0.00  0.00    +0.000 C 
ATOM     12  C   UNL     1       7.266   4.870  13.026  0.00  0.00    +0.000 C 
ATOM     13  O   UNL     1       6.781   4.010  11.976  0.00  0.00    +0.000 OA
ATOM     14  C   UNL     1       5.571   3.497  12.343  0.00  0.00    +0.000 C 
ATOM     15  O   UNL     1       4.854   2.810  11.639  0.00  0.00    +0.000 OA
ATOM     16  N   UNL     1       5.309   3.851  13.635  0.00  0.00    +0.000 N 
ATOM     17  C   UNL     1       6.080   5.658  15.244  0.00  0.00    +0.000 C 
ATOM     18  H   UNL     1       4.476   3.496  14.078  0.00  0.00    +0.000 HD
ENDBRANCH   5   9
BRANCH   1  19
ATOM     19  C   UNL     1       1.835   4.577  19.111  0.00  0.00    +0.000 C 
BRANCH  19  21
ATOM     20  C   UNL     1       1.310   3.247  21.289  0.00  0.00    +0.000 C 
ATOM     21  C   UNL     1       0.769   4.024  20.096  0.00  0.00    +0.000 C 
ENDBRANCH  19  21
BRANCH  19  22
ATOM     22  O   UNL     1       2.517   5.695  19.745  0.00  0.00    +0.000 OA
BRANCH  22  23
ATOM     23  C   UNL     1       2.269   6.972  19.289  0.00  0.00    +0.000 A 
ATOM     24  C   UNL     1       2.688   7.438  18.034  0.00  0.00    +0.000 A 
ATOM     25  C   UNL     1       2.406   8.740  17.616  0.00  0.00    +0.000 A 
ATOM     26  C   UNL     1       1.720   9.600  18.456  0.00  0.00    +0.000 A 
ATOM     27  F   UNL     1       1.492  10.860  18.061  0.00  0.00    +0.000 F 
ATOM     28  C   UNL     1       1.269   9.172  19.696  0.00  0.00    +0.000 A 
ATOM     29  C   UNL     1       1.530   7.851  20.104  0.00  0.00    +0.000 A 
ATOM     30 CL   UNL     1       0.917   7.363  21.644  0.00  0.00    +0.000 Cl
ENDBRANCH  22  23
ENDBRANCH  19  22
ENDBRANCH   1  19
TORSDOF 5
ENDMDL
MODEL 9
REMARK VINA RESULT:      -7.1      2.345      2.760
REMARK  Name = 
REMARK  6 active torsions:
REMARK  status: ('A' for Active; 'I' for Inactive)
REMARK    1  A    between atoms: C_1  and  C_2
REMARK    2  A    between atoms: C_2  and  C_3
REMARK    3  A    between atoms: C_3  and  O_4
REMARK    4  A    between atoms: C_3  and  C_13
REMARK    5  A    between atoms: O_4  and  C_5
REMARK    6  A    between atoms: C_17  and  C_19
REMARK                            x       y       z     vdW  Elec       q    Type
REMARK                         _______ _______ _______ _____ _____    ______ ____
ROOT
ATOM      1  C   UNL     1       1.603   4.999  19.756  0.00  0.00    +0.000 C 
ATOM      2  C   UNL     1       1.806   5.414  18.281  0.00  0.00    +0.000 C 
ATOM      3  C   UNL     1       2.574   6.734  18.128  0.00  0.00    +0.000 C 
ATOM      4  N   UNL     1       1.996   7.796  18.952  0.00  0.00    +0.000 N 
ATOM      5  C   UNL     1       1.821   9.077  18.415  0.00  0.00    +0.000 C 
ATOM      6  O   UNL     1       2.187   9.326  17.256  0.00  0.00    +0.000 OA
ATOM      7  C   UNL     1       1.799   7.464  20.357  0.00  0.00    +0.000 C 
ATOM      8  C   UNL     1       0.945   6.208  20.456  0.00  0.00    +0.000 C 
ENDROOT
BRANCH   5   9
ATOM      9  C   UNL     1       1.127  10.154  19.301  0.00  0.00    +0.000 C 
ATOM     10  C   UNL     1       1.698  11.595  19.246  0.00  0.00    +0.000 C 
ATOM     11  C   UNL     1       0.246  12.131  19.224  0.00  0.00    +0.000 C 
ATOM     12  C   UNL     1      -0.329  12.732  20.492  0.00  0.00    +0.000 C 
ATOM     13  O   UNL     1      -0.394  14.152  20.254  0.00  0.00    +0.000 OA
ATOM     14  C   UNL     1      -0.257  14.387  18.916  0.00  0.00    +0.000 C 
ATOM     15  O   UNL     1      -0.362  15.474  18.378  0.00  0.00    +0.000 OA
ATOM     16  N   UNL     1       0.047  13.215  18.286  0.00  0.00    +0.000 N 
ATOM     17  C   UNL     1      -0.218  10.737  18.773  0.00  0.00    +0.000 C 
ATOM     18  H   UNL     1       0.243  13.230  17.298  0.00  0.00    +0.000 HD
ENDBRANCH   5   9
BRANCH   1  19
ATOM     19  C   UNL     1       2.905   4.448  20.442  0.00  0.00    +0.000 C 
BRANCH  19  21
ATOM     20  C   UNL     1       1.594   2.619  21.755  0.00  0.00    +0.000 C 
ATOM     21  C   UNL     1       2.597   3.765  21.802  0.00  0.00    +0.000 C 
ENDBRANCH  19  21
BRANCH  19  22
ATOM     22  O   UNL     1       3.501   3.462  19.552  0.00  0.00    +0.000 OA
BRANCH  22  23
ATOM     23  C   UNL     1       4.482   3.867  18.672  0.00  0.00    +0.000 A 
ATOM     24  C   UNL     1       5.600   4.623  19.057  0.00  0.00    +0.000 A 
ATOM     25  C   UNL     1       6.569   5.003  18.127  0.00  0.00    +0.000 A 
ATOM     26  C   UNL     1       6.424   4.650  16.797  0.00  0.00    +0.000 A 
ATOM     27  F   UNL     1       7.339   5.056  15.906  0.00  0.00    +0.000 F 
ATOM     28  C   UNL     1       5.345   3.885  16.379  0.00  0.00    +0.000 A 
ATOM     29  C   UNL     1       4.383   3.479  17.321  0.00  0.00    +0.000 A 
ATOM     30 CL   UNL     1       3.079   2.501  16.751  0.00  0.00    +0.000 Cl
ENDBRANCH  22  23
ENDBRANCH  19  22
ENDBRANCH   1  19
TORSDOF 5
ENDMDL
