MODEL 1
REMARK VINA RESULT:      -8.5      0.000      0.000
REMARK  Name = 
REMARK  8 active torsions:
REMARK  status: ('A' for Active; 'I' for Inactive)
REMARK    1  A    between atoms: C_1  and  C_2
REMARK    2  A    between atoms: C_2  and  C_3
REMARK    3  A    between atoms: C_6  and  N_7
REMARK    4  A    between atoms: C_8  and  C_10
REMARK    5  A    between atoms: C_14  and  C_15
REMARK    6  A    between atoms: C_15  and  N_16
REMARK    7  A    between atoms: N_20  and  C_21
REMARK    8  A    between atoms: C_21  and  C_22
REMARK                            x       y       z     vdW  Elec       q    Type
REMARK                         _______ _______ _______ _____ _____    ______ ____
ROOT
ATOM      1  C   UNL     1       0.778   9.685  19.857  0.00  0.00    +0.000 A 
ATOM      2  C   UNL     1       1.432   9.870  18.635  0.00  0.00    +0.000 A 
ATOM      3  C   UNL     1       2.284   8.870  18.146  0.00  0.00    +0.000 A 
ATOM      4  C   UNL     1       2.455   7.673  18.847  0.00  0.00    +0.000 A 
ATOM      5  C   UNL     1       1.800   7.453  20.066  0.00  0.00    +0.000 A 
ATOM      6  C   UNL     1       0.988   8.481  20.571  0.00  0.00    +0.000 A 
ENDROOT
BRANCH   1   8
ATOM      7  N   UNL     1      -0.126  10.999  21.766  0.00  0.00    +0.000 N 
ATOM      8  C   UNL     1      -0.220  10.656  20.417  0.00  0.00    +0.000 C 
ATOM      9  O   UNL     1      -1.052  11.097  19.631  0.00  0.00    +0.000 OA
ATOM     10  H   UNL     1       0.487  10.448  22.357  0.00  0.00    +0.000 HD
BRANCH   7  14
ATOM     11  C   UNL     1      -2.456  13.943  23.758  0.00  0.00    +0.000 A 
ATOM     12  C   UNL     1      -1.264  14.301  23.128  0.00  0.00    +0.000 A 
ATOM     13  C   UNL     1      -0.485  13.341  22.475  0.00  0.00    +0.000 A 
ATOM     14  C   UNL     1      -0.878  12.002  22.423  0.00  0.00    +0.000 A 
ATOM     15  C   UNL     1      -2.064  11.638  23.075  0.00  0.00    +0.000 A 
ATOM     16  C   UNL     1      -2.847  12.601  23.738  0.00  0.00    +0.000 A 
BRANCH  11  18
ATOM     17  C   UNL     1      -3.947  15.861  23.239  0.00  0.00    +0.000 C 
ATOM     18  C   UNL     1      -3.337  15.014  24.347  0.00  0.00    +0.000 C 
ENDBRANCH  11  18
ENDBRANCH   7  14
ENDBRANCH   1   8
BRANCH   5  19
ATOM     19  C   UNL     1       1.957   6.123  20.798  0.00  0.00    +0.000 C 
BRANCH  19  20
ATOM     20  N   UNL     1       1.812   4.885  19.988  0.00  0.00    +0.000 NA
ATOM     21  C   UNL     1       2.614   3.780  20.520  0.00  0.00    +0.000 C 
ATOM     22  C   UNL     1       2.356   2.368  19.981  0.00  0.00    +0.000 C 
ATOM     23  C   UNL     1       2.706   2.014  18.533  0.00  0.00    +0.000 C 
ATOM     24  N   UNL     1       3.017   3.074  17.583  0.00  0.00    +0.000 NA
ATOM     25  C   UNL     1       1.913   4.041  17.536  0.00  0.00    +0.000 C 
ATOM     26  C   UNL     1       1.935   5.191  18.557  0.00  0.00    +0.000 C 
BRANCH  24  27
ATOM     27  C   UNL     1       4.364   3.668  17.699  0.00  0.00    +0.000 C 
BRANCH  27  28
ATOM     28  C   UNL     1       4.847   4.368  16.398  0.00  0.00    +0.000 C 
ATOM     29  C   UNL     1       4.743   5.893  16.485  0.00  0.00    +0.000 C 
ATOM     30  C   UNL     1       5.786   6.485  17.428  0.00  0.00    +0.000 C 
ATOM     31  C   UNL     1       7.204   6.120  17.004  0.00  0.00    +0.000 C 
ATOM     32  C   UNL     1       7.410   4.636  16.718  0.00  0.00    +0.000 C 
ATOM     33  C   UNL     1       6.266   3.961  15.965  0.00  0.00    +0.000 C 
ENDBRANCH  27  28
ENDBRANCH  24  27
ENDBRANCH  19  20
ENDBRANCH   5  19
TORSDOF 7
ENDMDL
MODEL 2
REMARK VINA RESULT:      -8.4      1.000      1.195
REMARK  Name = 
REMARK  8 active torsions:
REMARK  status: ('A' for Active; 'I' for Inactive)
REMARK    1  A    between atoms: C_1  and  C_2
REMARK    2  A    between atoms: C_2  and  C_3
REMARK    3  A    between atoms: C_6  and  N_7
REMARK    4  A    between atoms: C_8  and  C_10
REMARK    5  A    between atoms: C_14  and  C_15
REMARK    6  A    between atoms: C_15  and  N_16
REMARK    7  A    between atoms: N_20  and  C_21
REMARK    8  A    between atoms: C_21  and  C_22
REMARK                            x       y       z     vdW  Elec       q    Type
REMARK                         _______ _______ _______ _____ _____    ______ ____
ROOT
ATOM      1  C   UNL     1       1.091   8.855  19.868  0.00  0.00    +0.000 A 
ATOM      2  C   UNL     1       1.834   8.905  18.684  0.00  0.00    +0.000 A 
ATOM      3  C   UNL     1       2.633   7.812  18.320  0.00  0.00    +0.000 A 
ATOM      4  C   UNL     1       2.663   6.658  19.108  0.00  0.00    +0.000 A 
ATOM      5  C   UNL     1       1.918   6.573  20.291  0.00  0.00    +0.000 A 
ATOM      6  C   UNL     1       1.160   7.692  20.671  0.00  0.00    +0.000 A 
ENDROOT
BRANCH   1   8
ATOM      7  N   UNL     1       0.270  10.463  21.579  0.00  0.00    +0.000 N 
ATOM      8  C   UNL     1       0.140   9.935  20.295  0.00  0.00    +0.000 C 
ATOM      9  O   UNL     1      -0.688  10.292  19.463  0.00  0.00    +0.000 OA
ATOM     10  H   UNL     1       0.871   9.978  22.236  0.00  0.00    +0.000 HD
BRANCH   7  14
ATOM     11  C   UNL     1      -1.909  13.750  23.165  0.00  0.00    +0.000 A 
ATOM     12  C   UNL     1      -0.788  13.973  22.364  0.00  0.00    +0.000 A 
ATOM     13  C   UNL     1      -0.060  12.900  21.842  0.00  0.00    +0.000 A 
ATOM     14  C   UNL     1      -0.433  11.579  22.094  0.00  0.00    +0.000 A 
ATOM     15  C   UNL     1      -1.545  11.354  22.917  0.00  0.00    +0.000 A 
ATOM     16  C   UNL     1      -2.277  12.431  23.448  0.00  0.00    +0.000 A 
BRANCH  11  18
ATOM     17  C   UNL     1      -3.693  15.345  22.498  0.00  0.00    +0.000 C 
ATOM     18  C   UNL     1      -2.748  14.918  23.613  0.00  0.00    +0.000 C 
ENDBRANCH  11  18
ENDBRANCH   7  14
ENDBRANCH   1   8
BRANCH   5  19
ATOM     19  C   UNL     1       1.922   5.290  21.116  0.00  0.00    +0.000 C 
BRANCH  19  20
ATOM     20  N   UNL     1       2.151   4.016  20.384  0.00  0.00    +0.000 NA
ATOM     21  C   UNL     1       3.573   3.667  20.313  0.00  0.00    +0.000 C 
ATOM     22  C   UNL     1       3.953   2.255  19.854  0.00  0.00    +0.000 C 
ATOM     23  C   UNL     1       3.704   1.816  18.408  0.00  0.00    +0.000 C 
ATOM     24  N   UNL     1       2.855   2.624  17.542  0.00  0.00    +0.000 NA
ATOM     25  C   UNL     1       1.540   2.812  18.167  0.00  0.00    +0.000 C 
ATOM     26  C   UNL     1       1.379   3.998  19.134  0.00  0.00    +0.000 C 
BRANCH  24  27
ATOM     27  C   UNL     1       3.472   3.851  16.999  0.00  0.00    +0.000 C 
BRANCH  27  28
ATOM     28  C   UNL     1       5.002   3.721  16.759  0.00  0.00    +0.000 C 
ATOM     29  C   UNL     1       5.421   4.239  15.380  0.00  0.00    +0.000 C 
ATOM     30  C   UNL     1       5.333   5.759  15.288  0.00  0.00    +0.000 C 
ATOM     31  C   UNL     1       6.197   6.440  16.342  0.00  0.00    +0.000 C 
ATOM     32  C   UNL     1       6.002   5.900  17.756  0.00  0.00    +0.000 C 
ATOM     33  C   UNL     1       5.860   4.383  17.851  0.00  0.00    +0.000 C 
ENDBRANCH  27  28
ENDBRANCH  24  27
ENDBRANCH  19  20
ENDBRANCH   5  19
TORSDOF 7
ENDMDL
MODEL 3
REMARK VINA RESULT:      -8.4      4.172      8.166
REMARK  Name = 
REMARK  8 active torsions:
REMARK  status: ('A' for Active; 'I' for Inactive)
REMARK    1  A    between atoms: C_1  and  C_2
REMARK    2  A    between atoms: C_2  and  C_3
REMARK    3  A    between atoms: C_6  and  N_7
REMARK    4  A    between atoms: C_8  and  C_10
REMARK    5  A    between atoms: C_14  and  C_15
REMARK    6  A    between atoms: C_15  and  N_16
REMARK    7  A    between atoms: N_20  and  C_21
REMARK    8  A    between atoms: C_21  and  C_22
REMARK                            x       y       z     vdW  Elec       q    Type
REMARK                         _______ _______ _______ _____ _____    ______ ____
ROOT
ATOM      1  C   UNL     1       6.589   6.286  17.302  0.00  0.00    +0.000 A 
ATOM      2  C   UNL     1       5.890   6.562  16.123  0.00  0.00    +0.000 A 
ATOM      3  C   UNL     1       4.954   5.637  15.639  0.00  0.00    +0.000 A 
ATOM      4  C   UNL     1       4.684   4.461  16.344  0.00  0.00    +0.000 A 
ATOM      5  C   UNL     1       5.358   4.165  17.536  0.00  0.00    +0.000 A 
ATOM      6  C   UNL     1       6.328   5.075  17.986  0.00  0.00    +0.000 A 
ENDROOT
BRANCH   1   8
ATOM      7  N   UNL     1       7.588   8.559  17.461  0.00  0.00    +0.000 N 
ATOM      8  C   UNL     1       7.541   7.252  17.945  0.00  0.00    +0.000 C 
ATOM      9  O   UNL     1       8.211   6.818  18.878  0.00  0.00    +0.000 OA
ATOM     10  H   UNL     1       7.121   8.760  16.583  0.00  0.00    +0.000 HD
BRANCH   7  14
ATOM     11  C   UNL     1       9.774  11.725  19.268  0.00  0.00    +0.000 A 
ATOM     12  C   UNL     1       9.042  11.954  18.102  0.00  0.00    +0.000 A 
ATOM     13  C   UNL     1       8.325  10.920  17.495  0.00  0.00    +0.000 A 
ATOM     14  C   UNL     1       8.308   9.633  18.037  0.00  0.00    +0.000 A 
ATOM     15  C   UNL     1       9.060   9.397  19.195  0.00  0.00    +0.000 A 
ATOM     16  C   UNL     1       9.788  10.435  19.806  0.00  0.00    +0.000 A 
BRANCH  11  18
ATOM     17  C   UNL     1      11.936  12.866  19.709  0.00  0.00    +0.000 C 
ATOM     18  C   UNL     1      10.436  12.882  19.970  0.00  0.00    +0.000 C 
ENDBRANCH  11  18
ENDBRANCH   7  14
ENDBRANCH   1   8
BRANCH   5  19
ATOM     19  C   UNL     1       5.019   2.901  18.321  0.00  0.00    +0.000 C 
BRANCH  19  20
ATOM     20  N   UNL     1       3.789   2.933  19.155  0.00  0.00    +0.000 NA
ATOM     21  C   UNL     1       2.574   2.750  18.355  0.00  0.00    +0.000 C 
ATOM     22  C   UNL     1       1.257   2.468  19.086  0.00  0.00    +0.000 C 
ATOM     23  C   UNL     1       0.604   3.549  19.954  0.00  0.00    +0.000 C 
ATOM     24  N   UNL     1       1.360   4.740  20.318  0.00  0.00    +0.000 NA
ATOM     25  C   UNL     1       2.612   4.352  20.982  0.00  0.00    +0.000 C 
ATOM     26  C   UNL     1       3.830   4.068  20.086  0.00  0.00    +0.000 C 
BRANCH  24  27
ATOM     27  C   UNL     1       1.503   5.760  19.262  0.00  0.00    +0.000 C 
BRANCH  27  28
ATOM     28  C   UNL     1       2.457   6.924  19.649  0.00  0.00    +0.000 C 
ATOM     29  C   UNL     1       3.190   7.505  18.435  0.00  0.00    +0.000 C 
ATOM     30  C   UNL     1       2.256   8.305  17.532  0.00  0.00    +0.000 C 
ATOM     31  C   UNL     1       1.585   9.448  18.284  0.00  0.00    +0.000 C 
ATOM     32  C   UNL     1       0.951   9.039  19.611  0.00  0.00    +0.000 C 
ATOM     33  C   UNL     1       1.772   8.053  20.438  0.00  0.00    +0.000 C 
ENDBRANCH  27  28
ENDBRANCH  24  27
ENDBRANCH  19  20
ENDBRANCH   5  19
TORSDOF 7
ENDMDL
MODEL 4
REMARK VINA RESULT:      -8.3      3.058      3.691
REMARK  Name = 
REMARK  8 active torsions:
REMARK  status: ('A' for Active; 'I' for Inactive)
REMARK    1  A    between atoms: C_1  and  C_2
REMARK    2  A    between atoms: C_2  and  C_3
REMARK    3  A    between atoms: C_6  and  N_7
REMARK    4  A    between atoms: C_8  and  C_10
REMARK    5  A    between atoms: C_14  and  C_15
REMARK    6  A    between atoms: C_15  and  N_16
REMARK    7  A    between atoms: N_20  and  C_21
REMARK    8  A    between atoms: C_21  and  C_22
REMARK                            x       y       z     vdW  Elec       q    Type
REMARK                         _______ _______ _______ _____ _____    ______ ____
ROOT
ATOM      1  C   UNL     1       1.154   9.089  18.551  0.00  0.00    +0.000 A 
ATOM      2  C   UNL     1       2.213   9.096  17.638  0.00  0.00    +0.000 A 
ATOM      3  C   UNL     1       3.216   8.120  17.731  0.00  0.00    +0.000 A 
ATOM      4  C   UNL     1       3.147   7.119  18.703  0.00  0.00    +0.000 A 
ATOM      5  C   UNL     1       2.090   7.078  19.623  0.00  0.00    +0.000 A 
ATOM      6  C   UNL     1       1.118   8.088  19.550  0.00  0.00    +0.000 A 
ENDROOT
BRANCH   1   8
ATOM      7  N   UNL     1      -0.982   9.812  17.502  0.00  0.00    +0.000 N 
ATOM      8  C   UNL     1      -0.010  10.034  18.476  0.00  0.00    +0.000 C 
ATOM      9  O   UNL     1      -0.029  10.941  19.302  0.00  0.00    +0.000 OA
ATOM     10  H   UNL     1      -0.779   9.141  16.768  0.00  0.00    +0.000 HD
BRANCH   7  14
ATOM     11  C   UNL     1      -4.675  11.901  17.242  0.00  0.00    +0.000 A 
ATOM     12  C   UNL     1      -4.123  11.309  16.105  0.00  0.00    +0.000 A 
ATOM     13  C   UNL     1      -2.907  10.625  16.176  0.00  0.00    +0.000 A 
ATOM     14  C   UNL     1      -2.212  10.503  17.381  0.00  0.00    +0.000 A 
ATOM     15  C   UNL     1      -2.755  11.117  18.519  0.00  0.00    +0.000 A 
ATOM     16  C   UNL     1      -3.976  11.811  18.450  0.00  0.00    +0.000 A 
BRANCH  11  18
ATOM     17  C   UNL     1      -7.004  11.801  18.100  0.00  0.00    +0.000 C 
ATOM     18  C   UNL     1      -6.044  12.525  17.166  0.00  0.00    +0.000 C 
ENDBRANCH  11  18
ENDBRANCH   7  14
ENDBRANCH   1   8
BRANCH   5  19
ATOM     19  C   UNL     1       2.001   5.952  20.647  0.00  0.00    +0.000 C 
BRANCH  19  20
ATOM     20  N   UNL     1       2.205   4.566  20.149  0.00  0.00    +0.000 NA
ATOM     21  C   UNL     1       3.606   4.145  20.243  0.00  0.00    +0.000 C 
ATOM     22  C   UNL     1       3.934   2.660  20.046  0.00  0.00    +0.000 C 
ATOM     23  C   UNL     1       3.759   2.003  18.674  0.00  0.00    +0.000 C 
ATOM     24  N   UNL     1       3.019   2.696  17.628  0.00  0.00    +0.000 NA
ATOM     25  C   UNL     1       1.677   3.044  18.113  0.00  0.00    +0.000 C 
ATOM     26  C   UNL     1       1.520   4.378  18.862  0.00  0.00    +0.000 C 
BRANCH  24  27
ATOM     27  C   UNL     1       3.740   3.787  16.944  0.00  0.00    +0.000 C 
BRANCH  27  28
ATOM     28  C   UNL     1       5.269   3.536  16.820  0.00  0.00    +0.000 C 
ATOM     29  C   UNL     1       5.773   3.712  15.384  0.00  0.00    +0.000 C 
ATOM     30  C   UNL     1       5.776   5.176  14.954  0.00  0.00    +0.000 C 
ATOM     31  C   UNL     1       6.633   6.035  15.876  0.00  0.00    +0.000 C 
ATOM     32  C   UNL     1       6.351   5.834  17.362  0.00  0.00    +0.000 C 
ATOM     33  C   UNL     1       6.118   4.385  17.782  0.00  0.00    +0.000 C 
ENDBRANCH  27  28
ENDBRANCH  24  27
ENDBRANCH  19  20
ENDBRANCH   5  19
TORSDOF 7
ENDMDL
MODEL 5
REMARK VINA RESULT:      -8.2      1.264      1.560
REMARK  Name = 
REMARK  8 active torsions:
REMARK  status: ('A' for Active; 'I' for Inactive)
REMARK    1  A    between atoms: C_1  and  C_2
REMARK    2  A    between atoms: C_2  and  C_3
REMARK    3  A    between atoms: C_6  and  N_7
REMARK    4  A    between atoms: C_8  and  C_10
REMARK    5  A    between atoms: C_14  and  C_15
REMARK    6  A    between atoms: C_15  and  N_16
REMARK    7  A    between atoms: N_20  and  C_21
REMARK    8  A    between atoms: C_21  and  C_22
REMARK                            x       y       z     vdW  Elec       q    Type
REMARK                         _______ _______ _______ _____ _____    ______ ____
ROOT
ATOM      1  C   UNL     1       1.543   9.216  19.490  0.00  0.00    +0.000 A 
ATOM      2  C   UNL     1       2.161   9.084  18.243  0.00  0.00    +0.000 A 
ATOM      3  C   UNL     1       2.750   7.862  17.887  0.00  0.00    +0.000 A 
ATOM      4  C   UNL     1       2.691   6.765  18.750  0.00  0.00    +0.000 A 
ATOM      5  C   UNL     1       2.065   6.863  19.999  0.00  0.00    +0.000 A 
ATOM      6  C   UNL     1       1.521   8.105  20.365  0.00  0.00    +0.000 A 
ENDROOT
BRANCH   1   8
ATOM      7  N   UNL     1      -0.423  10.302  20.560  0.00  0.00    +0.000 N 
ATOM      8  C   UNL     1       0.808  10.451  19.922  0.00  0.00    +0.000 C 
ATOM      9  O   UNL     1       1.361  11.523  19.693  0.00  0.00    +0.000 OA
ATOM     10  H   UNL     1      -0.861   9.387  20.543  0.00  0.00    +0.000 HD
BRANCH   7  14
ATOM     11  C   UNL     1      -2.716  13.437  22.285  0.00  0.00    +0.000 A 
ATOM     12  C   UNL     1      -1.936  12.612  23.096  0.00  0.00    +0.000 A 
ATOM     13  C   UNL     1      -1.182  11.574  22.541  0.00  0.00    +0.000 A 
ATOM     14  C   UNL     1      -1.177  11.335  21.165  0.00  0.00    +0.000 A 
ATOM     15  C   UNL     1      -1.978  12.150  20.354  0.00  0.00    +0.000 A 
ATOM     16  C   UNL     1      -2.742  13.193  20.909  0.00  0.00    +0.000 A 
BRANCH  11  18
ATOM     17  C   UNL     1      -2.964  14.828  24.329  0.00  0.00    +0.000 C 
ATOM     18  C   UNL     1      -3.420  14.624  22.890  0.00  0.00    +0.000 C 
ENDBRANCH  11  18
ENDBRANCH   7  14
ENDBRANCH   1   8
BRANCH   5  19
ATOM     19  C   UNL     1       1.965   5.644  20.911  0.00  0.00    +0.000 C 
BRANCH  19  20
ATOM     20  N   UNL     1       2.163   4.311  20.283  0.00  0.00    +0.000 NA
ATOM     21  C   UNL     1       3.575   3.919  20.251  0.00  0.00    +0.000 C 
ATOM     22  C   UNL     1       3.919   2.466  19.907  0.00  0.00    +0.000 C 
ATOM     23  C   UNL     1       3.667   1.923  18.497  0.00  0.00    +0.000 C 
ATOM     24  N   UNL     1       2.846   2.683  17.563  0.00  0.00    +0.000 NA
ATOM     25  C   UNL     1       1.533   2.955  18.161  0.00  0.00    +0.000 C 
ATOM     26  C   UNL     1       1.399   4.217  19.031  0.00  0.00    +0.000 C 
BRANCH  24  27
ATOM     27  C   UNL     1       3.500   3.847  16.932  0.00  0.00    +0.000 C 
BRANCH  27  28
ATOM     28  C   UNL     1       5.029   3.660  16.724  0.00  0.00    +0.000 C 
ATOM     29  C   UNL     1       5.493   4.150  15.348  0.00  0.00    +0.000 C 
ATOM     30  C   UNL     1       5.462   5.672  15.242  0.00  0.00    +0.000 C 
ATOM     31  C   UNL     1       6.329   6.331  16.308  0.00  0.00    +0.000 C 
ATOM     32  C   UNL     1       6.088   5.811  17.722  0.00  0.00    +0.000 C 
ATOM     33  C   UNL     1       5.889   4.301  17.827  0.00  0.00    +0.000 C 
ENDBRANCH  27  28
ENDBRANCH  24  27
ENDBRANCH  19  20
ENDBRANCH   5  19
TORSDOF 7
ENDMDL
MODEL 6
REMARK VINA RESULT:      -8.2      1.437      1.960
REMARK  Name = 
REMARK  8 active torsions:
REMARK  status: ('A' for Active; 'I' for Inactive)
REMARK    1  A    between atoms: C_1  and  C_2
REMARK    2  A    between atoms: C_2  and  C_3
REMARK    3  A    between atoms: C_6  and  N_7
REMARK    4  A    between atoms: C_8  and  C_10
REMARK    5  A    between atoms: C_14  and  C_15
REMARK    6  A    between atoms: C_15  and  N_16
REMARK    7  A    between atoms: N_20  and  C_21
REMARK    8  A    between atoms: C_21  and  C_22
REMARK                            x       y       z     vdW  Elec       q    Type
REMARK                         _______ _______ _______ _____ _____    ______ ____
ROOT
ATOM      1  C   UNL     1       1.517   8.285  20.635  0.00  0.00    +0.000 A 
ATOM      2  C   UNL     1       2.041   8.450  19.350  0.00  0.00    +0.000 A 
ATOM      3  C   UNL     1       2.291   7.324  18.552  0.00  0.00    +0.000 A 
ATOM      4  C   UNL     1       1.984   6.041  19.015  0.00  0.00    +0.000 A 
ATOM      5  C   UNL     1       1.442   5.846  20.292  0.00  0.00    +0.000 A 
ATOM      6  C   UNL     1       1.243   6.977  21.100  0.00  0.00    +0.000 A 
ENDROOT
BRANCH   1   8
ATOM      7  N   UNL     1       0.317  10.433  21.002  0.00  0.00    +0.000 N 
ATOM      8  C   UNL     1       1.133   9.430  21.526  0.00  0.00    +0.000 C 
ATOM      9  O   UNL     1       1.560   9.393  22.675  0.00  0.00    +0.000 OA
ATOM     10  H   UNL     1       0.166  10.451  19.999  0.00  0.00    +0.000 HD
BRANCH   7  14
ATOM     11  C   UNL     1      -1.493  13.567  23.231  0.00  0.00    +0.000 A 
ATOM     12  C   UNL     1      -0.444  13.846  22.353  0.00  0.00    +0.000 A 
ATOM     13  C   UNL     1       0.164  12.823  21.620  0.00  0.00    +0.000 A 
ATOM     14  C   UNL     1      -0.263  11.499  21.732  0.00  0.00    +0.000 A 
ATOM     15  C   UNL     1      -1.301  11.215  22.629  0.00  0.00    +0.000 A 
ATOM     16  C   UNL     1      -1.912  12.241  23.373  0.00  0.00    +0.000 A 
BRANCH  11  18
ATOM     17  C   UNL     1      -1.264  15.875  24.122  0.00  0.00    +0.000 C 
ATOM     18  C   UNL     1      -2.212  14.701  23.915  0.00  0.00    +0.000 C 
ENDBRANCH  11  18
ENDBRANCH   7  14
ENDBRANCH   1   8
BRANCH   5  19
ATOM     19  C   UNL     1       1.066   4.446  20.766  0.00  0.00    +0.000 C 
BRANCH  19  20
ATOM     20  N   UNL     1       1.856   3.312  20.218  0.00  0.00    +0.000 NA
ATOM     21  C   UNL     1       3.299   3.515  20.379  0.00  0.00    +0.000 C 
ATOM     22  C   UNL     1       4.233   2.323  20.135  0.00  0.00    +0.000 C 
ATOM     23  C   UNL     1       4.402   1.746  18.726  0.00  0.00    +0.000 C 
ATOM     24  N   UNL     1       3.476   2.131  17.669  0.00  0.00    +0.000 NA
ATOM     25  C   UNL     1       2.097   1.849  18.088  0.00  0.00    +0.000 C 
ATOM     26  C   UNL     1       1.362   2.940  18.886  0.00  0.00    +0.000 C 
BRANCH  24  27
ATOM     27  C   UNL     1       3.691   3.468  17.081  0.00  0.00    +0.000 C 
BRANCH  27  28
ATOM     28  C   UNL     1       5.173   3.934  17.125  0.00  0.00    +0.000 C 
ATOM     29  C   UNL     1       5.895   3.704  15.794  0.00  0.00    +0.000 C 
ATOM     30  C   UNL     1       5.416   4.665  14.710  0.00  0.00    +0.000 C 
ATOM     31  C   UNL     1       5.609   6.120  15.119  0.00  0.00    +0.000 C 
ATOM     32  C   UNL     1       5.080   6.455  16.511  0.00  0.00    +0.000 C 
ATOM     33  C   UNL     1       5.352   5.394  17.574  0.00  0.00    +0.000 C 
ENDBRANCH  27  28
ENDBRANCH  24  27
ENDBRANCH  19  20
ENDBRANCH   5  19
TORSDOF 7
ENDMDL
MODEL 7
REMARK VINA RESULT:      -8.1      3.282     11.301
REMARK  Name = 
REMARK  8 active torsions:
REMARK  status: ('A' for Active; 'I' for Inactive)
REMARK    1  A    between atoms: C_1  and  C_2
REMARK    2  A    between atoms: C_2  and  C_3
REMARK    3  A    between atoms: C_6  and  N_7
REMARK    4  A    between atoms: C_8  and  C_10
REMARK    5  A    between atoms: C_14  and  C_15
REMARK    6  A    between atoms: C_15  and  N_16
REMARK    7  A    between atoms: N_20  and  C_21
REMARK    8  A    between atoms: C_21  and  C_22
REMARK                            x       y       z     vdW  Elec       q    Type
REMARK                         _______ _______ _______ _____ _____    ______ ____
ROOT
ATOM      1  C   UNL     1       1.635   8.595  19.493  0.00  0.00    +0.000 A 
ATOM      2  C   UNL     1       1.406   7.901  20.685  0.00  0.00    +0.000 A 
ATOM      3  C   UNL     1       0.562   8.455  21.659  0.00  0.00    +0.000 A 
ATOM      4  C   UNL     1      -0.083   9.673  21.433  0.00  0.00    +0.000 A 
ATOM      5  C   UNL     1       0.114  10.384  20.241  0.00  0.00    +0.000 A 
ATOM      6  C   UNL     1       0.999   9.843  19.294  0.00  0.00    +0.000 A 
ENDROOT
BRANCH   1   8
ATOM      7  N   UNL     1       3.220   6.906  18.587  0.00  0.00    +0.000 N 
ATOM      8  C   UNL     1       2.447   8.044  18.358  0.00  0.00    +0.000 C 
ATOM      9  O   UNL     1       2.360   8.637  17.287  0.00  0.00    +0.000 OA
ATOM     10  H   UNL     1       3.352   6.603  19.546  0.00  0.00    +0.000 HD
BRANCH   7  14
ATOM     11  C   UNL     1       5.297   4.602  15.680  0.00  0.00    +0.000 A 
ATOM     12  C   UNL     1       5.452   5.989  15.717  0.00  0.00    +0.000 A 
ATOM     13  C   UNL     1       4.770   6.758  16.664  0.00  0.00    +0.000 A 
ATOM     14  C   UNL     1       3.924   6.168  17.605  0.00  0.00    +0.000 A 
ATOM     15  C   UNL     1       3.751   4.778  17.554  0.00  0.00    +0.000 A 
ATOM     16  C   UNL     1       4.432   4.001  16.599  0.00  0.00    +0.000 A 
BRANCH  11  18
ATOM     17  C   UNL     1       7.091   4.688  13.964  0.00  0.00    +0.000 C 
ATOM     18  C   UNL     1       6.136   3.785  14.733  0.00  0.00    +0.000 C 
ENDBRANCH  11  18
ENDBRANCH   7  14
ENDBRANCH   1   8
BRANCH   5  19
ATOM     19  C   UNL     1      -0.634  11.688  19.986  0.00  0.00    +0.000 C 
BRANCH  19  20
ATOM     20  N   UNL     1      -0.487  12.762  21.004  0.00  0.00    +0.000 NA
ATOM     21  C   UNL     1      -1.657  13.643  21.051  0.00  0.00    +0.000 C 
ATOM     22  C   UNL     1      -1.791  14.612  22.232  0.00  0.00    +0.000 C 
ATOM     23  C   UNL     1      -0.818  15.785  22.386  0.00  0.00    +0.000 C 
ATOM     24  N   UNL     1       0.401  15.826  21.588  0.00  0.00    +0.000 NA
ATOM     25  C   UNL     1       1.173  14.594  21.794  0.00  0.00    +0.000 C 
ATOM     26  C   UNL     1       0.837  13.389  20.899  0.00  0.00    +0.000 C 
BRANCH  24  27
ATOM     27  C   UNL     1       0.233  16.231  20.178  0.00  0.00    +0.000 C 
BRANCH  27  28
ATOM     28  C   UNL     1       0.214  17.771  19.975  0.00  0.00    +0.000 C 
ATOM     29  C   UNL     1       1.385  18.259  19.116  0.00  0.00    +0.000 C 
ATOM     30  C   UNL     1       1.224  17.863  17.651  0.00  0.00    +0.000 C 
ATOM     31  C   UNL     1      -0.070  18.405  17.057  0.00  0.00    +0.000 C 
ATOM     32  C   UNL     1      -1.310  18.134  17.904  0.00  0.00    +0.000 C 
ATOM     33  C   UNL     1      -1.112  18.307  19.408  0.00  0.00    +0.000 C 
ENDBRANCH  27  28
ENDBRANCH  24  27
ENDBRANCH  19  20
ENDBRANCH   5  19
TORSDOF 7
ENDMDL
MODEL 8
REMARK VINA RESULT:      -8.1      8.014     12.612
REMARK  Name = 
REMARK  8 active torsions:
REMARK  status: ('A' for Active; 'I' for Inactive)
REMARK    1  A    between atoms: C_1  and  C_2
REMARK    2  A    between atoms: C_2  and  C_3
REMARK    3  A    between atoms: C_6  and  N_7
REMARK    4  A    between atoms: C_8  and  C_10
REMARK    5  A    between atoms: C_14  and  C_15
REMARK    6  A    between atoms: C_15  and  N_16
REMARK    7  A    between atoms: N_20  and  C_21
REMARK    8  A    between atoms: C_21  and  C_22
REMARK                            x       y       z     vdW  Elec       q    Type
REMARK                         _______ _______ _______ _____ _____    ______ ____
ROOT
ATOM      1  C   UNL     1       9.541  10.565  18.921  0.00  0.00    +0.000 A 
ATOM      2  C   UNL     1       9.634  10.764  20.301  0.00  0.00    +0.000 A 
ATOM      3  C   UNL     1      10.488  11.757  20.802  0.00  0.00    +0.000 A 
ATOM      4  C   UNL     1      11.217  12.574  19.934  0.00  0.00    +0.000 A 
ATOM      5  C   UNL     1      11.132  12.408  18.545  0.00  0.00    +0.000 A 
ATOM      6  C   UNL     1      10.311  11.378  18.057  0.00  0.00    +0.000 A 
ENDROOT
BRANCH   1   8
ATOM      7  N   UNL     1       8.681   8.247  18.646  0.00  0.00    +0.000 N 
ATOM      8  C   UNL     1       8.590   9.591  18.287  0.00  0.00    +0.000 C 
ATOM      9  O   UNL     1       7.777  10.059  17.496  0.00  0.00    +0.000 OA
ATOM     10  H   UNL     1       9.494   7.947  19.173  0.00  0.00    +0.000 HD
BRANCH   7  14
ATOM     11  C   UNL     1       6.013   5.112  17.588  0.00  0.00    +0.000 A 
ATOM     12  C   UNL     1       6.028   6.298  16.852  0.00  0.00    +0.000 A 
ATOM     13  C   UNL     1       6.896   7.338  17.194  0.00  0.00    +0.000 A 
ATOM     14  C   UNL     1       7.779   7.223  18.270  0.00  0.00    +0.000 A 
ATOM     15  C   UNL     1       7.748   6.041  19.022  0.00  0.00    +0.000 A 
ATOM     16  C   UNL     1       6.871   4.993  18.684  0.00  0.00    +0.000 A 
BRANCH  11  18
ATOM     17  C   UNL     1       3.683   4.299  17.295  0.00  0.00    +0.000 C 
ATOM     18  C   UNL     1       5.158   3.960  17.125  0.00  0.00    +0.000 C 
ENDBRANCH  11  18
ENDBRANCH   7  14
ENDBRANCH   1   8
BRANCH   5  19
ATOM     19  C   UNL     1      11.895  13.338  17.608  0.00  0.00    +0.000 C 
BRANCH  19  20
ATOM     20  N   UNL     1      11.493  14.769  17.600  0.00  0.00    +0.000 NA
ATOM     21  C   UNL     1      12.332  15.584  18.485  0.00  0.00    +0.000 C 
ATOM     22  C   UNL     1      12.239  17.110  18.372  0.00  0.00    +0.000 C 
ATOM     23  C   UNL     1      10.963  17.843  18.795  0.00  0.00    +0.000 C 
ATOM     24  N   UNL     1       9.740  17.089  19.035  0.00  0.00    +0.000 NA
ATOM     25  C   UNL     1       9.405  16.291  17.849  0.00  0.00    +0.000 C 
ATOM     26  C   UNL     1      10.035  14.892  17.736  0.00  0.00    +0.000 C 
BRANCH  24  27
ATOM     27  C   UNL     1       9.674  16.361  20.318  0.00  0.00    +0.000 C 
BRANCH  27  28
ATOM     28  C   UNL     1       8.318  16.533  21.058  0.00  0.00    +0.000 C 
ATOM     29  C   UNL     1       7.392  15.329  20.864  0.00  0.00    +0.000 C 
ATOM     30  C   UNL     1       7.881  14.101  21.626  0.00  0.00    +0.000 C 
ATOM     31  C   UNL     1       8.008  14.377  23.120  0.00  0.00    +0.000 C 
ATOM     32  C   UNL     1       8.773  15.653  23.459  0.00  0.00    +0.000 C 
ATOM     33  C   UNL     1       8.465  16.846  22.558  0.00  0.00    +0.000 C 
ENDBRANCH  27  28
ENDBRANCH  24  27
ENDBRANCH  19  20
ENDBRANCH   5  19
TORSDOF 7
ENDMDL
MODEL 9
REMARK VINA RESULT:      -8.1      1.463      1.877
REMARK  Name = 
REMARK  8 active torsions:
REMARK  status: ('A' for Active; 'I' for Inactive)
REMARK    1  A    between atoms: C_1  and  C_2
REMARK    2  A    between atoms: C_2  and  C_3
REMARK    3  A    between atoms: C_6  and  N_7
REMARK    4  A    between atoms: C_8  and  C_10
REMARK    5  A    between atoms: C_14  and  C_15
REMARK    6  A    between atoms: C_15  and  N_16
REMARK    7  A    between atoms: N_20  and  C_21
REMARK    8  A    between atoms: C_21  and  C_22
REMARK                            x       y       z     vdW  Elec       q    Type
REMARK                         _______ _______ _______ _____ _____    ______ ____
ROOT
ATOM      1  C   UNL     1       1.388   8.593  20.301  0.00  0.00    +0.000 A 
ATOM      2  C   UNL     1       1.839   8.605  18.978  0.00  0.00    +0.000 A 
ATOM      3  C   UNL     1       2.322   7.422  18.399  0.00  0.00    +0.000 A 
ATOM      4  C   UNL     1       2.321   6.224  19.119  0.00  0.00    +0.000 A 
ATOM      5  C   UNL     1       1.861   6.179  20.442  0.00  0.00    +0.000 A 
ATOM      6  C   UNL     1       1.425   7.379  21.027  0.00  0.00    +0.000 A 
ENDROOT
BRANCH   1   8
ATOM      7  N   UNL     1      -0.371  10.348  20.409  0.00  0.00    +0.000 N 
ATOM      8  C   UNL     1       0.771   9.783  20.976  0.00  0.00    +0.000 C 
ATOM      9  O   UNL     1       1.317  10.171  22.004  0.00  0.00    +0.000 OA
ATOM     10  H   UNL     1      -0.634  10.058  19.473  0.00  0.00    +0.000 HD
BRANCH   7  14
ATOM     11  C   UNL     1      -2.738  13.375  22.227  0.00  0.00    +0.000 A 
ATOM     12  C   UNL     1      -2.692  13.261  20.837  0.00  0.00    +0.000 A 
ATOM     13  C   UNL     1      -1.913  12.274  20.227  0.00  0.00    +0.000 A 
ATOM     14  C   UNL     1      -1.167  11.369  20.984  0.00  0.00    +0.000 A 
ATOM     15  C   UNL     1      -1.195  11.496  22.379  0.00  0.00    +0.000 A 
ATOM     16  C   UNL     1      -1.974  12.492  22.996  0.00  0.00    +0.000 A 
BRANCH  11  18
ATOM     17  C   UNL     1      -4.148  13.850  24.217  0.00  0.00    +0.000 C 
ATOM     18  C   UNL     1      -3.679  14.365  22.862  0.00  0.00    +0.000 C 
ENDBRANCH  11  18
ENDBRANCH   7  14
ENDBRANCH   1   8
BRANCH   5  19
ATOM     19  C   UNL     1       1.819   4.856  21.200  0.00  0.00    +0.000 C 
BRANCH  19  20
ATOM     20  N   UNL     1       2.150   3.626  20.433  0.00  0.00    +0.000 NA
ATOM     21  C   UNL     1       3.597   3.414  20.325  0.00  0.00    +0.000 C 
ATOM     22  C   UNL     1       4.097   2.055  19.824  0.00  0.00    +0.000 C 
ATOM     23  C   UNL     1       3.858   1.627  18.372  0.00  0.00    +0.000 C 
ATOM     24  N   UNL     1       2.918   2.371  17.543  0.00  0.00    +0.000 NA
ATOM     25  C   UNL     1       1.606   2.420  18.200  0.00  0.00    +0.000 C 
ATOM     26  C   UNL     1       1.356   3.563  19.198  0.00  0.00    +0.000 C 
BRANCH  24  27
ATOM     27  C   UNL     1       3.405   3.662  17.019  0.00  0.00    +0.000 C 
BRANCH  27  28
ATOM     28  C   UNL     1       4.952   3.804  17.060  0.00  0.00    +0.000 C 
ATOM     29  C   UNL     1       5.593   3.592  15.684  0.00  0.00    +0.000 C 
ATOM     30  C   UNL     1       5.311   4.754  14.737  0.00  0.00    +0.000 C 
ATOM     31  C   UNL     1       5.808   6.079  15.303  0.00  0.00    +0.000 C 
ATOM     32  C   UNL     1       5.379   6.346  16.743  0.00  0.00    +0.000 C 
ATOM     33  C   UNL     1       5.438   5.132  17.666  0.00  0.00    +0.000 C 
ENDBRANCH  27  28
ENDBRANCH  24  27
ENDBRANCH  19  20
ENDBRANCH   5  19
TORSDOF 7
ENDMDL
