MODEL 1
REMARK VINA RESULT:      -7.9      0.000      0.000
REMARK  Name = 
REMARK  7 active torsions:
REMARK  status: ('A' for Active; 'I' for Inactive)
REMARK    1  A    between atoms: C_2  and  C_3
REMARK    2  A    between atoms: C_4  and  C_5
REMARK    3  A    between atoms: N_11  and  C_12
REMARK    4  A    between atoms: C_12  and  C_13
REMARK    5  A    between atoms: C_13  and  S_14
REMARK    6  A    between atoms: S_14  and  C_15
REMARK    7  A    between atoms: C_15  and  C_16
REMARK                            x       y       z     vdW  Elec       q    Type
REMARK                         _______ _______ _______ _____ _____    ______ ____
ROOT
ATOM      1  O   UNL     1       5.916   7.562  17.533  0.00  0.00    +0.000 OA
ATOM      2  C   UNL     1       7.121   7.420  17.369  0.00  0.00    +0.000 C 
ATOM      3  N   UNL     1       7.674   6.519  16.494  0.00  0.00    +0.000 N 
ATOM      4  H   UNL     1       8.676   6.364  16.495  0.00  0.00    +0.000 HD
ENDROOT
BRANCH   2   5
ATOM      5  C   UNL     1       8.130   8.243  18.093  0.00  0.00    +0.000 C 
ATOM      6  C   UNL     1       8.196   9.571  17.890  0.00  0.00    +0.000 C 
BRANCH   6   7
ATOM      7  C   UNL     1       9.223  10.410  18.519  0.00  0.00    +0.000 A 
ATOM      8  C   UNL     1      10.141  11.101  17.728  0.00  0.00    +0.000 A 
ATOM      9  C   UNL     1      11.137  11.894  18.319  0.00  0.00    +0.000 A 
ATOM     10  C   UNL     1      11.212  11.995  19.705  0.00  0.00    +0.000 A 
ATOM     11  C   UNL     1      10.295  11.313  20.503  0.00  0.00    +0.000 A 
ATOM     12  C   UNL     1       9.302  10.519  19.916  0.00  0.00    +0.000 A 
ENDBRANCH   6   7
ENDBRANCH   2   5
BRANCH   3  13
ATOM     13  C   UNL     1       6.870   5.572  15.721  0.00  0.00    +0.000 C 
BRANCH  13  14
ATOM     14  C   UNL     1       6.600   4.266  16.485  0.00  0.00    +0.000 C 
BRANCH  14  15
ATOM     15  S   UNL     1       4.832   4.218  16.928  0.00  0.00    +0.000 S 
BRANCH  15  16
ATOM     16  C   UNL     1       4.930   4.077  18.748  0.00  0.00    +0.000 C 
BRANCH  16  17
ATOM     17  C   UNL     1       3.525   3.893  19.279  0.00  0.00    +0.000 A 
ATOM     18  C   UNL     1       2.890   4.982  19.906  0.00  0.00    +0.000 A 
ATOM     19  C   UNL     1       1.664   4.824  20.555  0.00  0.00    +0.000 A 
ATOM     20  C   UNL     1       1.049   3.576  20.586  0.00  0.00    +0.000 A 
ATOM     21  C   UNL     1       1.650   2.490  19.950  0.00  0.00    +0.000 A 
ATOM     22  C   UNL     1       2.878   2.645  19.299  0.00  0.00    +0.000 A 
ATOM     23 CL   UNL     1       3.571   1.244  18.560  0.00  0.00    +0.000 Cl
ENDBRANCH  16  17
ENDBRANCH  15  16
ENDBRANCH  14  15
ENDBRANCH  13  14
ENDBRANCH   3  13
TORSDOF 7
ENDMDL
MODEL 2
REMARK VINA RESULT:      -7.9      1.823      2.160
REMARK  Name = 
REMARK  7 active torsions:
REMARK  status: ('A' for Active; 'I' for Inactive)
REMARK    1  A    between atoms: C_2  and  C_3
REMARK    2  A    between atoms: C_4  and  C_5
REMARK    3  A    between atoms: N_11  and  C_12
REMARK    4  A    between atoms: C_12  and  C_13
REMARK    5  A    between atoms: C_13  and  S_14
REMARK    6  A    between atoms: S_14  and  C_15
REMARK    7  A    between atoms: C_15  and  C_16
REMARK                            x       y       z     vdW  Elec       q    Type
REMARK                         _______ _______ _______ _____ _____    ______ ____
ROOT
ATOM      1  O   UNL     1       7.037   7.192  16.630  0.00  0.00    +0.000 OA
ATOM      2  C   UNL     1       7.640   7.573  17.625  0.00  0.00    +0.000 C 
ATOM      3  N   UNL     1       7.944   6.766  18.692  0.00  0.00    +0.000 N 
ATOM      4  H   UNL     1       8.335   7.170  19.535  0.00  0.00    +0.000 HD
ENDROOT
BRANCH   2   5
ATOM      5  C   UNL     1       8.141   8.968  17.771  0.00  0.00    +0.000 C 
ATOM      6  C   UNL     1       8.870   9.319  18.847  0.00  0.00    +0.000 C 
BRANCH   6   7
ATOM      7  C   UNL     1       9.318  10.698  19.074  0.00  0.00    +0.000 A 
ATOM      8  C   UNL     1       9.166  11.656  18.072  0.00  0.00    +0.000 A 
ATOM      9  C   UNL     1       9.604  12.974  18.273  0.00  0.00    +0.000 A 
ATOM     10  C   UNL     1      10.194  13.333  19.481  0.00  0.00    +0.000 A 
ATOM     11  C   UNL     1      10.344  12.384  20.491  0.00  0.00    +0.000 A 
ATOM     12  C   UNL     1       9.909  11.067  20.292  0.00  0.00    +0.000 A 
ENDBRANCH   6   7
ENDBRANCH   2   5
BRANCH   3  13
ATOM     13  C   UNL     1       7.500   5.375  18.783  0.00  0.00    +0.000 C 
BRANCH  13  14
ATOM     14  C   UNL     1       5.982   5.252  18.996  0.00  0.00    +0.000 C 
BRANCH  14  15
ATOM     15  S   UNL     1       5.286   4.298  17.606  0.00  0.00    +0.000 S 
BRANCH  15  16
ATOM     16  C   UNL     1       3.627   5.051  17.461  0.00  0.00    +0.000 C 
BRANCH  16  17
ATOM     17  C   UNL     1       2.687   4.290  18.369  0.00  0.00    +0.000 A 
ATOM     18  C   UNL     1       2.313   2.980  18.013  0.00  0.00    +0.000 A 
ATOM     19  C   UNL     1       1.326   2.295  18.725  0.00  0.00    +0.000 A 
ATOM     20  C   UNL     1       0.699   2.904  19.807  0.00  0.00    +0.000 A 
ATOM     21  C   UNL     1       1.072   4.192  20.191  0.00  0.00    +0.000 A 
ATOM     22  C   UNL     1       2.060   4.882  19.480  0.00  0.00    +0.000 A 
ATOM     23 CL   UNL     1       2.444   6.484  20.002  0.00  0.00    +0.000 Cl
ENDBRANCH  16  17
ENDBRANCH  15  16
ENDBRANCH  14  15
ENDBRANCH  13  14
ENDBRANCH   3  13
TORSDOF 7
ENDMDL
MODEL 3
REMARK VINA RESULT:      -7.9      0.950      1.484
REMARK  Name = 
REMARK  7 active torsions:
REMARK  status: ('A' for Active; 'I' for Inactive)
REMARK    1  A    between atoms: C_2  and  C_3
REMARK    2  A    between atoms: C_4  and  C_5
REMARK    3  A    between atoms: N_11  and  C_12
REMARK    4  A    between atoms: C_12  and  C_13
REMARK    5  A    between atoms: C_13  and  S_14
REMARK    6  A    between atoms: S_14  and  C_15
REMARK    7  A    between atoms: C_15  and  C_16
REMARK                            x       y       z     vdW  Elec       q    Type
REMARK                         _______ _______ _______ _____ _____    ______ ____
ROOT
ATOM      1  O   UNL     1       6.738   7.907  16.810  0.00  0.00    +0.000 OA
ATOM      2  C   UNL     1       7.564   7.472  17.601  0.00  0.00    +0.000 C 
ATOM      3  N   UNL     1       7.728   6.139  17.883  0.00  0.00    +0.000 N 
ATOM      4  H   UNL     1       8.343   5.855  18.637  0.00  0.00    +0.000 HD
ENDROOT
BRANCH   2   5
ATOM      5  C   UNL     1       8.515   8.356  18.332  0.00  0.00    +0.000 C 
ATOM      6  C   UNL     1       8.498   9.687  18.130  0.00  0.00    +0.000 C 
BRANCH   6   7
ATOM      7  C   UNL     1       9.467  10.588  18.766  0.00  0.00    +0.000 A 
ATOM      8  C   UNL     1       9.392  10.841  20.136  0.00  0.00    +0.000 A 
ATOM      9  C   UNL     1      10.303  11.712  20.752  0.00  0.00    +0.000 A 
ATOM     10  C   UNL     1      11.292  12.330  19.993  0.00  0.00    +0.000 A 
ATOM     11  C   UNL     1      11.380  12.079  18.625  0.00  0.00    +0.000 A 
ATOM     12  C   UNL     1      10.470  11.211  18.008  0.00  0.00    +0.000 A 
ENDBRANCH   6   7
ENDBRANCH   2   5
BRANCH   3  13
ATOM     13  C   UNL     1       6.866   5.100  17.321  0.00  0.00    +0.000 C 
BRANCH  13  14
ATOM     14  C   UNL     1       5.663   4.779  18.223  0.00  0.00    +0.000 C 
BRANCH  14  15
ATOM     15  S   UNL     1       4.173   5.516  17.474  0.00  0.00    +0.000 S 
BRANCH  15  16
ATOM     16  C   UNL     1       3.126   4.035  17.244  0.00  0.00    +0.000 C 
BRANCH  16  17
ATOM     17  C   UNL     1       2.480   3.709  18.573  0.00  0.00    +0.000 A 
ATOM     18  C   UNL     1       1.708   4.698  19.211  0.00  0.00    +0.000 A 
ATOM     19  C   UNL     1       1.227   4.509  20.508  0.00  0.00    +0.000 A 
ATOM     20  C   UNL     1       1.503   3.328  21.188  0.00  0.00    +0.000 A 
ATOM     21  C   UNL     1       2.246   2.325  20.564  0.00  0.00    +0.000 A 
ATOM     22  C   UNL     1       2.730   2.511  19.265  0.00  0.00    +0.000 A 
ATOM     23 CL   UNL     1       3.666   1.233  18.574  0.00  0.00    +0.000 Cl
ENDBRANCH  16  17
ENDBRANCH  15  16
ENDBRANCH  14  15
ENDBRANCH  13  14
ENDBRANCH   3  13
TORSDOF 7
ENDMDL
MODEL 4
REMARK VINA RESULT:      -7.7      1.337      1.403
REMARK  Name = 
REMARK  7 active torsions:
REMARK  status: ('A' for Active; 'I' for Inactive)
REMARK    1  A    between atoms: C_2  and  C_3
REMARK    2  A    between atoms: C_4  and  C_5
REMARK    3  A    between atoms: N_11  and  C_12
REMARK    4  A    between atoms: C_12  and  C_13
REMARK    5  A    between atoms: C_13  and  S_14
REMARK    6  A    between atoms: S_14  and  C_15
REMARK    7  A    between atoms: C_15  and  C_16
REMARK                            x       y       z     vdW  Elec       q    Type
REMARK                         _______ _______ _______ _____ _____    ______ ____
ROOT
ATOM      1  O   UNL     1       7.747   6.230  18.669  0.00  0.00    +0.000 OA
ATOM      2  C   UNL     1       7.581   6.993  17.727  0.00  0.00    +0.000 C 
ATOM      3  N   UNL     1       7.091   6.607  16.504  0.00  0.00    +0.000 N 
ATOM      4  H   UNL     1       7.094   7.261  15.730  0.00  0.00    +0.000 HD
ENDROOT
BRANCH   2   5
ATOM      5  C   UNL     1       7.871   8.451  17.818  0.00  0.00    +0.000 C 
ATOM      6  C   UNL     1       8.780   8.910  18.698  0.00  0.00    +0.000 C 
BRANCH   6   7
ATOM      7  C   UNL     1       9.041  10.343  18.879  0.00  0.00    +0.000 A 
ATOM      8  C   UNL     1       8.814  11.233  17.829  0.00  0.00    +0.000 A 
ATOM      9  C   UNL     1       9.075  12.603  17.986  0.00  0.00    +0.000 A 
ATOM     10  C   UNL     1       9.562  13.082  19.199  0.00  0.00    +0.000 A 
ATOM     11  C   UNL     1       9.786  12.202  20.256  0.00  0.00    +0.000 A 
ATOM     12  C   UNL     1       9.528  10.833  20.101  0.00  0.00    +0.000 A 
ENDBRANCH   6   7
ENDBRANCH   2   5
BRANCH   3  13
ATOM     13  C   UNL     1       6.792   5.213  16.177  0.00  0.00    +0.000 C 
BRANCH  13  14
ATOM     14  C   UNL     1       5.307   4.992  15.842  0.00  0.00    +0.000 C 
BRANCH  14  15
ATOM     15  S   UNL     1       4.351   5.086  17.392  0.00  0.00    +0.000 S 
BRANCH  15  16
ATOM     16  C   UNL     1       3.883   3.334  17.622  0.00  0.00    +0.000 C 
BRANCH  16  17
ATOM     17  C   UNL     1       2.961   3.250  18.818  0.00  0.00    +0.000 A 
ATOM     18  C   UNL     1       1.706   3.885  18.752  0.00  0.00    +0.000 A 
ATOM     19  C   UNL     1       0.887   3.978  19.879  0.00  0.00    +0.000 A 
ATOM     20  C   UNL     1       1.304   3.435  21.091  0.00  0.00    +0.000 A 
ATOM     21  C   UNL     1       2.533   2.781  21.171  0.00  0.00    +0.000 A 
ATOM     22  C   UNL     1       3.357   2.686  20.044  0.00  0.00    +0.000 A 
ATOM     23 CL   UNL     1       4.877   1.885  20.234  0.00  0.00    +0.000 Cl
ENDBRANCH  16  17
ENDBRANCH  15  16
ENDBRANCH  14  15
ENDBRANCH  13  14
ENDBRANCH   3  13
TORSDOF 7
ENDMDL
MODEL 5
REMARK VINA RESULT:      -7.7      1.737      2.100
REMARK  Name = 
REMARK  7 active torsions:
REMARK  status: ('A' for Active; 'I' for Inactive)
REMARK    1  A    between atoms: C_2  and  C_3
REMARK    2  A    between atoms: C_4  and  C_5
REMARK    3  A    between atoms: N_11  and  C_12
REMARK    4  A    between atoms: C_12  and  C_13
REMARK    5  A    between atoms: C_13  and  S_14
REMARK    6  A    between atoms: S_14  and  C_15
REMARK    7  A    between atoms: C_15  and  C_16
REMARK                            x       y       z     vdW  Elec       q    Type
REMARK                         _______ _______ _______ _____ _____    ______ ____
ROOT
ATOM      1  O   UNL     1       6.788   7.713  17.149  0.00  0.00    +0.000 OA
ATOM      2  C   UNL     1       7.718   7.943  17.911  0.00  0.00    +0.000 C 
ATOM      3  N   UNL     1       8.223   7.027  18.801  0.00  0.00    +0.000 N 
ATOM      4  H   UNL     1       8.911   7.318  19.488  0.00  0.00    +0.000 HD
ENDROOT
BRANCH   2   5
ATOM      5  C   UNL     1       8.430   9.251  17.934  0.00  0.00    +0.000 C 
ATOM      6  C   UNL     1       9.154   9.612  19.009  0.00  0.00    +0.000 C 
BRANCH   6   7
ATOM      7  C   UNL     1       9.807  10.923  19.110  0.00  0.00    +0.000 A 
ATOM      8  C   UNL     1      10.283  11.557  17.962  0.00  0.00    +0.000 A 
ATOM      9  C   UNL     1      10.922  12.803  18.048  0.00  0.00    +0.000 A 
ATOM     10  C   UNL     1      11.083  13.416  19.288  0.00  0.00    +0.000 A 
ATOM     11  C   UNL     1      10.605  12.794  20.439  0.00  0.00    +0.000 A 
ATOM     12  C   UNL     1       9.968  11.548  20.356  0.00  0.00    +0.000 A 
ENDBRANCH   6   7
ENDBRANCH   2   5
BRANCH   3  13
ATOM     13  C   UNL     1       7.641   5.699  18.985  0.00  0.00    +0.000 C 
BRANCH  13  14
ATOM     14  C   UNL     1       7.672   4.857  17.698  0.00  0.00    +0.000 C 
BRANCH  14  15
ATOM     15  S   UNL     1       5.974   4.301  17.337  0.00  0.00    +0.000 S 
BRANCH  15  16
ATOM     16  C   UNL     1       5.167   4.565  18.956  0.00  0.00    +0.000 C 
BRANCH  16  17
ATOM     17  C   UNL     1       3.767   3.999  18.878  0.00  0.00    +0.000 A 
ATOM     18  C   UNL     1       3.569   2.637  19.176  0.00  0.00    +0.000 A 
ATOM     19  C   UNL     1       2.331   2.027  18.963  0.00  0.00    +0.000 A 
ATOM     20  C   UNL     1       1.268   2.766  18.453  0.00  0.00    +0.000 A 
ATOM     21  C   UNL     1       1.437   4.122  18.174  0.00  0.00    +0.000 A 
ATOM     22  C   UNL     1       2.675   4.737  18.386  0.00  0.00    +0.000 A 
ATOM     23 CL   UNL     1       2.810   6.414  17.988  0.00  0.00    +0.000 Cl
ENDBRANCH  16  17
ENDBRANCH  15  16
ENDBRANCH  14  15
ENDBRANCH  13  14
ENDBRANCH   3  13
TORSDOF 7
ENDMDL
MODEL 6
REMARK VINA RESULT:      -7.6      1.699      2.257
REMARK  Name = 
REMARK  7 active torsions:
REMARK  status: ('A' for Active; 'I' for Inactive)
REMARK    1  A    between atoms: C_2  and  C_3
REMARK    2  A    between atoms: C_4  and  C_5
REMARK    3  A    between atoms: N_11  and  C_12
REMARK    4  A    between atoms: C_12  and  C_13
REMARK    5  A    between atoms: C_13  and  S_14
REMARK    6  A    between atoms: S_14  and  C_15
REMARK    7  A    between atoms: C_15  and  C_16
REMARK                            x       y       z     vdW  Elec       q    Type
REMARK                         _______ _______ _______ _____ _____    ______ ____
ROOT
ATOM      1  O   UNL     1       7.084   7.406  16.821  0.00  0.00    +0.000 OA
ATOM      2  C   UNL     1       7.706   7.179  17.851  0.00  0.00    +0.000 C 
ATOM      3  N   UNL     1       7.711   5.965  18.491  0.00  0.00    +0.000 N 
ATOM      4  H   UNL     1       8.145   5.878  19.403  0.00  0.00    +0.000 HD
ENDROOT
BRANCH   2   5
ATOM      5  C   UNL     1       8.560   8.205  18.513  0.00  0.00    +0.000 C 
ATOM      6  C   UNL     1       8.435   9.505  18.189  0.00  0.00    +0.000 C 
BRANCH   6   7
ATOM      7  C   UNL     1       9.308  10.540  18.756  0.00  0.00    +0.000 A 
ATOM      8  C   UNL     1      10.095  11.328  17.916  0.00  0.00    +0.000 A 
ATOM      9  C   UNL     1      10.945  12.310  18.447  0.00  0.00    +0.000 A 
ATOM     10  C   UNL     1      11.003  12.505  19.824  0.00  0.00    +0.000 A 
ATOM     11  C   UNL     1      10.215  11.729  20.671  0.00  0.00    +0.000 A 
ATOM     12  C   UNL     1       9.368  10.746  20.143  0.00  0.00    +0.000 A 
ENDBRANCH   6   7
ENDBRANCH   2   5
BRANCH   3  13
ATOM     13  C   UNL     1       6.899   4.833  18.045  0.00  0.00    +0.000 C 
BRANCH  13  14
ATOM     14  C   UNL     1       5.438   4.934  18.515  0.00  0.00    +0.000 C 
BRANCH  14  15
ATOM     15  S   UNL     1       4.355   4.604  17.086  0.00  0.00    +0.000 S 
BRANCH  15  16
ATOM     16  C   UNL     1       2.773   4.232  17.924  0.00  0.00    +0.000 C 
BRANCH  16  17
ATOM     17  C   UNL     1       2.342   5.468  18.680  0.00  0.00    +0.000 A 
ATOM     18  C   UNL     1       2.452   6.722  18.048  0.00  0.00    +0.000 A 
ATOM     19  C   UNL     1       2.224   7.905  18.752  0.00  0.00    +0.000 A 
ATOM     20  C   UNL     1       1.877   7.858  20.099  0.00  0.00    +0.000 A 
ATOM     21  C   UNL     1       1.739   6.626  20.737  0.00  0.00    +0.000 A 
ATOM     22  C   UNL     1       1.967   5.438  20.035  0.00  0.00    +0.000 A 
ATOM     23 CL   UNL     1       1.804   3.954  20.906  0.00  0.00    +0.000 Cl
ENDBRANCH  16  17
ENDBRANCH  15  16
ENDBRANCH  14  15
ENDBRANCH  13  14
ENDBRANCH   3  13
TORSDOF 7
ENDMDL
MODEL 7
REMARK VINA RESULT:      -7.6      1.602      2.177
REMARK  Name = 
REMARK  7 active torsions:
REMARK  status: ('A' for Active; 'I' for Inactive)
REMARK    1  A    between atoms: C_2  and  C_3
REMARK    2  A    between atoms: C_4  and  C_5
REMARK    3  A    between atoms: N_11  and  C_12
REMARK    4  A    between atoms: C_12  and  C_13
REMARK    5  A    between atoms: C_13  and  S_14
REMARK    6  A    between atoms: S_14  and  C_15
REMARK    7  A    between atoms: C_15  and  C_16
REMARK                            x       y       z     vdW  Elec       q    Type
REMARK                         _______ _______ _______ _____ _____    ______ ____
ROOT
ATOM      1  O   UNL     1       8.176   6.839  18.796  0.00  0.00    +0.000 OA
ATOM      2  C   UNL     1       7.828   7.662  17.959  0.00  0.00    +0.000 C 
ATOM      3  N   UNL     1       7.008   7.375  16.897  0.00  0.00    +0.000 N 
ATOM      4  H   UNL     1       6.857   8.069  16.174  0.00  0.00    +0.000 HD
ENDROOT
BRANCH   2   5
ATOM      5  C   UNL     1       8.241   9.092  18.023  0.00  0.00    +0.000 C 
ATOM      6  C   UNL     1       9.091   9.512  18.977  0.00  0.00    +0.000 C 
BRANCH   6   7
ATOM      7  C   UNL     1       9.464  10.924  19.128  0.00  0.00    +0.000 A 
ATOM      8  C   UNL     1       9.717  11.449  20.396  0.00  0.00    +0.000 A 
ATOM      9  C   UNL     1      10.059  12.800  20.554  0.00  0.00    +0.000 A 
ATOM     10  C   UNL     1      10.150  13.627  19.438  0.00  0.00    +0.000 A 
ATOM     11  C   UNL     1       9.907  13.111  18.166  0.00  0.00    +0.000 A 
ATOM     12  C   UNL     1       9.562  11.762  18.007  0.00  0.00    +0.000 A 
ENDBRANCH   6   7
ENDBRANCH   2   5
BRANCH   3  13
ATOM     13  C   UNL     1       6.529   6.023  16.611  0.00  0.00    +0.000 C 
BRANCH  13  14
ATOM     14  C   UNL     1       4.994   5.934  16.584  0.00  0.00    +0.000 C 
BRANCH  14  15
ATOM     15  S   UNL     1       4.520   4.182  16.758  0.00  0.00    +0.000 S 
BRANCH  15  16
ATOM     16  C   UNL     1       4.769   3.927  18.551  0.00  0.00    +0.000 C 
BRANCH  16  17
ATOM     17  C   UNL     1       3.422   3.636  19.173  0.00  0.00    +0.000 A 
ATOM     18  C   UNL     1       2.958   2.307  19.193  0.00  0.00    +0.000 A 
ATOM     19  C   UNL     1       1.658   2.005  19.604  0.00  0.00    +0.000 A 
ATOM     20  C   UNL     1       0.801   3.024  20.008  0.00  0.00    +0.000 A 
ATOM     21  C   UNL     1       1.250   4.344  20.020  0.00  0.00    +0.000 A 
ATOM     22  C   UNL     1       2.551   4.651  19.607  0.00  0.00    +0.000 A 
ATOM     23 CL   UNL     1       3.020   6.315  19.622  0.00  0.00    +0.000 Cl
ENDBRANCH  16  17
ENDBRANCH  15  16
ENDBRANCH  14  15
ENDBRANCH  13  14
ENDBRANCH   3  13
TORSDOF 7
ENDMDL
MODEL 8
REMARK VINA RESULT:      -7.6      1.894      2.258
REMARK  Name = 
REMARK  7 active torsions:
REMARK  status: ('A' for Active; 'I' for Inactive)
REMARK    1  A    between atoms: C_2  and  C_3
REMARK    2  A    between atoms: C_4  and  C_5
REMARK    3  A    between atoms: N_11  and  C_12
REMARK    4  A    between atoms: C_12  and  C_13
REMARK    5  A    between atoms: C_13  and  S_14
REMARK    6  A    between atoms: S_14  and  C_15
REMARK    7  A    between atoms: C_15  and  C_16
REMARK                            x       y       z     vdW  Elec       q    Type
REMARK                         _______ _______ _______ _____ _____    ______ ____
ROOT
ATOM      1  O   UNL     1       8.315   6.936  18.783  0.00  0.00    +0.000 OA
ATOM      2  C   UNL     1       7.955   7.776  17.969  0.00  0.00    +0.000 C 
ATOM      3  N   UNL     1       6.978   7.562  17.028  0.00  0.00    +0.000 N 
ATOM      4  H   UNL     1       6.813   8.255  16.306  0.00  0.00    +0.000 HD
ENDROOT
BRANCH   2   5
ATOM      5  C   UNL     1       8.526   9.151  17.932  0.00  0.00    +0.000 C 
ATOM      6  C   UNL     1       9.001   9.720  19.055  0.00  0.00    +0.000 C 
BRANCH   6   7
ATOM      7  C   UNL     1       9.500  11.101  19.083  0.00  0.00    +0.000 A 
ATOM      8  C   UNL     1       8.922  12.070  18.264  0.00  0.00    +0.000 A 
ATOM      9  C   UNL     1       9.400  13.389  18.271  0.00  0.00    +0.000 A 
ATOM     10  C   UNL     1      10.459  13.737  19.104  0.00  0.00    +0.000 A 
ATOM     11  C   UNL     1      11.039  12.778  19.932  0.00  0.00    +0.000 A 
ATOM     12  C   UNL     1      10.565  11.460  19.924  0.00  0.00    +0.000 A 
ENDBRANCH   6   7
ENDBRANCH   2   5
BRANCH   3  13
ATOM     13  C   UNL     1       6.322   6.267  16.850  0.00  0.00    +0.000 C 
BRANCH  13  14
ATOM     14  C   UNL     1       4.884   6.403  16.322  0.00  0.00    +0.000 C 
BRANCH  14  15
ATOM     15  S   UNL     1       3.782   6.714  17.741  0.00  0.00    +0.000 S 
BRANCH  15  16
ATOM     16  C   UNL     1       4.335   5.418  18.906  0.00  0.00    +0.000 C 
BRANCH  16  17
ATOM     17  C   UNL     1       3.297   4.318  18.908  0.00  0.00    +0.000 A 
ATOM     18  C   UNL     1       3.475   3.216  18.051  0.00  0.00    +0.000 A 
ATOM     19  C   UNL     1       2.472   2.257  17.894  0.00  0.00    +0.000 A 
ATOM     20  C   UNL     1       1.276   2.379  18.594  0.00  0.00    +0.000 A 
ATOM     21  C   UNL     1       1.090   3.450  19.468  0.00  0.00    +0.000 A 
ATOM     22  C   UNL     1       2.092   4.413  19.627  0.00  0.00    +0.000 A 
ATOM     23 CL   UNL     1       1.771   5.725  20.706  0.00  0.00    +0.000 Cl
ENDBRANCH  16  17
ENDBRANCH  15  16
ENDBRANCH  14  15
ENDBRANCH  13  14
ENDBRANCH   3  13
TORSDOF 7
ENDMDL
MODEL 9
REMARK VINA RESULT:      -7.5      0.668      1.246
REMARK  Name = 
REMARK  7 active torsions:
REMARK  status: ('A' for Active; 'I' for Inactive)
REMARK    1  A    between atoms: C_2  and  C_3
REMARK    2  A    between atoms: C_4  and  C_5
REMARK    3  A    between atoms: N_11  and  C_12
REMARK    4  A    between atoms: C_12  and  C_13
REMARK    5  A    between atoms: C_13  and  S_14
REMARK    6  A    between atoms: S_14  and  C_15
REMARK    7  A    between atoms: C_15  and  C_16
REMARK                            x       y       z     vdW  Elec       q    Type
REMARK                         _______ _______ _______ _____ _____    ______ ____
ROOT
ATOM      1  O   UNL     1       6.031   7.355  17.328  0.00  0.00    +0.000 OA
ATOM      2  C   UNL     1       7.226   7.369  17.588  0.00  0.00    +0.000 C 
ATOM      3  N   UNL     1       7.978   6.240  17.799  0.00  0.00    +0.000 N 
ATOM      4  H   UNL     1       8.932   6.323  18.130  0.00  0.00    +0.000 HD
ENDROOT
BRANCH   2   5
ATOM      5  C   UNL     1       8.012   8.632  17.676  0.00  0.00    +0.000 C 
ATOM      6  C   UNL     1       8.609   8.981  18.830  0.00  0.00    +0.000 C 
BRANCH   6   7
ATOM      7  C   UNL     1       9.326  10.252  18.988  0.00  0.00    +0.000 A 
ATOM      8  C   UNL     1       9.609  10.742  20.263  0.00  0.00    +0.000 A 
ATOM      9  C   UNL     1      10.281  11.964  20.425  0.00  0.00    +0.000 A 
ATOM     10  C   UNL     1      10.670  12.695  19.307  0.00  0.00    +0.000 A 
ATOM     11  C   UNL     1      10.398  12.211  18.029  0.00  0.00    +0.000 A 
ATOM     12  C   UNL     1       9.726  10.993  17.864  0.00  0.00    +0.000 A 
ENDBRANCH   6   7
ENDBRANCH   2   5
BRANCH   3  13
ATOM     13  C   UNL     1       7.399   4.896  17.814  0.00  0.00    +0.000 C 
BRANCH  13  14
ATOM     14  C   UNL     1       6.687   4.546  16.497  0.00  0.00    +0.000 C 
BRANCH  14  15
ATOM     15  S   UNL     1       4.962   4.099  16.881  0.00  0.00    +0.000 S 
BRANCH  15  16
ATOM     16  C   UNL     1       5.016   4.027  18.707  0.00  0.00    +0.000 C 
BRANCH  16  17
ATOM     17  C   UNL     1       3.593   3.968  19.215  0.00  0.00    +0.000 A 
ATOM     18  C   UNL     1       3.049   5.107  19.839  0.00  0.00    +0.000 A 
ATOM     19  C   UNL     1       1.804   5.056  20.469  0.00  0.00    +0.000 A 
ATOM     20  C   UNL     1       1.078   3.869  20.483  0.00  0.00    +0.000 A 
ATOM     21  C   UNL     1       1.589   2.737  19.848  0.00  0.00    +0.000 A 
ATOM     22  C   UNL     1       2.836   2.783  19.216  0.00  0.00    +0.000 A 
ATOM     23 CL   UNL     1       3.410   1.329  18.479  0.00  0.00    +0.000 Cl
ENDBRANCH  16  17
ENDBRANCH  15  16
ENDBRANCH  14  15
ENDBRANCH  13  14
ENDBRANCH   3  13
TORSDOF 7
ENDMDL
