MODEL 1
REMARK VINA RESULT:      -7.4      0.000      0.000
REMARK  Name = 
REMARK  10 active torsions:
REMARK  status: ('A' for Active; 'I' for Inactive)
REMARK    1  A    between atoms: C_1  and  C_2
REMARK    2  A    between atoms: C_2  and  C_3
REMARK    3  A    between atoms: C_2  and  O_4
REMARK    4  A    between atoms: O_4  and  C_5
REMARK    5  A    between atoms: C_8  and  N_9
REMARK    6  A    between atoms: C_13  and  N_14
REMARK    7  A    between atoms: N_14  and  S_15
REMARK    8  A    between atoms: S_15  and  C_16
REMARK    9  A    between atoms: N_21  and  C_22
REMARK   10  A    between atoms: C_22  and  C_23
REMARK                            x       y       z     vdW  Elec       q    Type
REMARK                         _______ _______ _______ _____ _____    ______ ____
ROOT
ATOM      1  N   UNL     1       0.505  10.801  18.366  0.00  0.00    +0.000 N 
ATOM      2  C   UNL     1       0.984  12.044  18.716  0.00  0.00    +0.000 A 
ATOM      3  N   UNL     1       2.271  12.241  18.742  0.00  0.00    +0.000 NA
ATOM      4  C   UNL     1       2.749  13.494  18.982  0.00  0.00    +0.000 A 
ATOM      5  C   UNL     1       1.977  14.554  19.201  0.00  0.00    +0.000 A 
ATOM      6  C   UNL     1       0.512  14.357  19.277  0.00  0.00    +0.000 A 
ATOM      7  O   UNL     1      -0.207  15.320  19.553  0.00  0.00    +0.000 OA
ATOM      8  N   UNL     1       0.073  13.074  18.979  0.00  0.00    +0.000 N 
ATOM      9  H   UNL     1      -0.438  10.714  18.012  0.00  0.00    +0.000 HD
ENDROOT
BRANCH   1  13
ATOM     10  C   UNL     1       2.374   7.171  19.485  0.00  0.00    +0.000 A 
ATOM     11  C   UNL     1       2.440   7.605  18.161  0.00  0.00    +0.000 A 
ATOM     12  C   UNL     1       1.776   8.773  17.759  0.00  0.00    +0.000 A 
ATOM     13  C   UNL     1       1.082   9.557  18.688  0.00  0.00    +0.000 A 
ATOM     14  C   UNL     1       0.953   9.075  19.995  0.00  0.00    +0.000 A 
ATOM     15  C   UNL     1       1.612   7.911  20.389  0.00  0.00    +0.000 A 
ATOM     16  F   UNL     1       1.524   7.564  21.682  0.00  0.00    +0.000 F 
BRANCH  10  17
ATOM     17  O   UNL     1       3.133   6.079  19.776  0.00  0.00    +0.000 OA
BRANCH  17  19
ATOM     18  C   UNL     1       3.510   3.876  18.992  0.00  0.00    +0.000 C 
ATOM     19  C   UNL     1       2.505   4.797  19.673  0.00  0.00    +0.000 C 
ATOM     20  C   UNL     1       2.164   4.283  21.069  0.00  0.00    +0.000 C 
ENDBRANCH  17  19
ENDBRANCH  10  17
ENDBRANCH   1  13
BRANCH   5  21
ATOM     21  N   UNL     1       2.617  15.797  19.453  0.00  0.00    +0.000 N 
ATOM     22  H   UNL     1       2.059  16.462  19.994  0.00  0.00    +0.000 HD
BRANCH  21  23
ATOM     23  S   UNL     1       3.204  16.564  18.062  0.00  0.00    +0.000 S 
ATOM     24  C   UNL     1       1.875  17.646  17.552  0.00  0.00    +0.000 C 
ATOM     25  O   UNL     1       4.293  17.404  18.513  0.00  0.00    +0.000 OA
ATOM     26  O   UNL     1       3.400  15.571  17.028  0.00  0.00    +0.000 OA
ENDBRANCH  21  23
ENDBRANCH   5  21
BRANCH   8  27
ATOM     27  C   UNL     1      -1.372  12.846  19.046  0.00  0.00    +0.000 C 
BRANCH  27  28
ATOM     28  C   UNL     1      -1.946  12.786  20.453  0.00  0.00    +0.000 A 
ATOM     29  C   UNL     1      -1.347  12.059  21.492  0.00  0.00    +0.000 A 
ATOM     30  C   UNL     1      -1.989  11.918  22.727  0.00  0.00    +0.000 A 
ATOM     31  C   UNL     1      -3.222  12.523  22.943  0.00  0.00    +0.000 A 
ATOM     32 CL   UNL     1      -4.048  12.274  24.431  0.00  0.00    +0.000 Cl
ATOM     33  C   UNL     1      -3.800  13.311  21.953  0.00  0.00    +0.000 A 
ATOM     34  C   UNL     1      -3.161  13.448  20.715  0.00  0.00    +0.000 A 
ENDBRANCH  27  28
ENDBRANCH   8  27
TORSDOF 7
ENDMDL
MODEL 2
REMARK VINA RESULT:      -7.3      1.449      1.763
REMARK  Name = 
REMARK  10 active torsions:
REMARK  status: ('A' for Active; 'I' for Inactive)
REMARK    1  A    between atoms: C_1  and  C_2
REMARK    2  A    between atoms: C_2  and  C_3
REMARK    3  A    between atoms: C_2  and  O_4
REMARK    4  A    between atoms: O_4  and  C_5
REMARK    5  A    between atoms: C_8  and  N_9
REMARK    6  A    between atoms: C_13  and  N_14
REMARK    7  A    between atoms: N_14  and  S_15
REMARK    8  A    between atoms: S_15  and  C_16
REMARK    9  A    between atoms: N_21  and  C_22
REMARK   10  A    between atoms: C_22  and  C_23
REMARK                            x       y       z     vdW  Elec       q    Type
REMARK                         _______ _______ _______ _____ _____    ______ ____
ROOT
ATOM      1  N   UNL     1       0.577  10.443  18.354  0.00  0.00    +0.000 N 
ATOM      2  C   UNL     1       0.982  11.750  18.511  0.00  0.00    +0.000 A 
ATOM      3  N   UNL     1       2.254  12.027  18.466  0.00  0.00    +0.000 NA
ATOM      4  C   UNL     1       2.655  13.328  18.514  0.00  0.00    +0.000 A 
ATOM      5  C   UNL     1       1.820  14.359  18.608  0.00  0.00    +0.000 A 
ATOM      6  C   UNL     1       0.374  14.086  18.760  0.00  0.00    +0.000 A 
ATOM      7  O   UNL     1      -0.400  15.032  18.922  0.00  0.00    +0.000 OA
ATOM      8  N   UNL     1       0.013  12.749  18.658  0.00  0.00    +0.000 N 
ATOM      9  H   UNL     1      -0.367  10.249  18.046  0.00  0.00    +0.000 HD
ENDROOT
BRANCH   1  13
ATOM     10  C   UNL     1       2.450   6.866  19.626  0.00  0.00    +0.000 A 
ATOM     11  C   UNL     1       1.741   7.641  20.543  0.00  0.00    +0.000 A 
ATOM     12  C   UNL     1       1.165   8.859  20.155  0.00  0.00    +0.000 A 
ATOM     13  C   UNL     1       1.242   9.295  18.826  0.00  0.00    +0.000 A 
ATOM     14  C   UNL     1       2.021   8.554  17.932  0.00  0.00    +0.000 A 
ATOM     15  C   UNL     1       2.594   7.345  18.324  0.00  0.00    +0.000 A 
ATOM     16  F   UNL     1       3.244   6.641  17.385  0.00  0.00    +0.000 F 
BRANCH  10  17
ATOM     17  O   UNL     1       2.883   5.662  20.094  0.00  0.00    +0.000 OA
BRANCH  17  19
ATOM     18  C   UNL     1       3.330   3.417  19.487  0.00  0.00    +0.000 C 
ATOM     19  C   UNL     1       2.250   4.490  19.570  0.00  0.00    +0.000 C 
ATOM     20  C   UNL     1       1.130   4.053  20.509  0.00  0.00    +0.000 C 
ENDBRANCH  17  19
ENDBRANCH  10  17
ENDBRANCH   1  13
BRANCH   5  21
ATOM     21  N   UNL     1       2.384  15.662  18.664  0.00  0.00    +0.000 N 
ATOM     22  H   UNL     1       3.154  15.822  18.010  0.00  0.00    +0.000 HD
BRANCH  21  23
ATOM     23  S   UNL     1       2.862  16.140  20.217  0.00  0.00    +0.000 S 
ATOM     24  C   UNL     1       4.637  15.924  20.225  0.00  0.00    +0.000 C 
ATOM     25  O   UNL     1       2.602  17.562  20.282  0.00  0.00    +0.000 OA
ATOM     26  O   UNL     1       2.292  15.228  21.184  0.00  0.00    +0.000 OA
ENDBRANCH  21  23
ENDBRANCH   5  21
BRANCH   8  27
ATOM     27  C   UNL     1      -1.412  12.444  18.803  0.00  0.00    +0.000 C 
BRANCH  27  28
ATOM     28  C   UNL     1      -1.935  12.496  20.230  0.00  0.00    +0.000 A 
ATOM     29  C   UNL     1      -1.249  11.933  21.317  0.00  0.00    +0.000 A 
ATOM     30  C   UNL     1      -1.839  11.881  22.584  0.00  0.00    +0.000 A 
ATOM     31  C   UNL     1      -3.108  12.415  22.784  0.00  0.00    +0.000 A 
ATOM     32 CL   UNL     1      -3.865  12.269  24.321  0.00  0.00    +0.000 Cl
ATOM     33  C   UNL     1      -3.776  13.045  21.738  0.00  0.00    +0.000 A 
ATOM     34  C   UNL     1      -3.189  13.092  20.469  0.00  0.00    +0.000 A 
ENDBRANCH  27  28
ENDBRANCH   8  27
TORSDOF 7
ENDMDL
MODEL 3
REMARK VINA RESULT:      -7.3      0.934      1.261
REMARK  Name = 
REMARK  10 active torsions:
REMARK  status: ('A' for Active; 'I' for Inactive)
REMARK    1  A    between atoms: C_1  and  C_2
REMARK    2  A    between atoms: C_2  and  C_3
REMARK    3  A    between atoms: C_2  and  O_4
REMARK    4  A    between atoms: O_4  and  C_5
REMARK    5  A    between atoms: C_8  and  N_9
REMARK    6  A    between atoms: C_13  and  N_14
REMARK    7  A    between atoms: N_14  and  S_15
REMARK    8  A    between atoms: S_15  and  C_16
REMARK    9  A    between atoms: N_21  and  C_22
REMARK   10  A    between atoms: C_22  and  C_23
REMARK                            x       y       z     vdW  Elec       q    Type
REMARK                         _______ _______ _______ _____ _____    ______ ____
ROOT
ATOM      1  N   UNL     1       0.502  10.708  18.811  0.00  0.00    +0.000 N 
ATOM      2  C   UNL     1       0.911  11.980  19.145  0.00  0.00    +0.000 A 
ATOM      3  N   UNL     1       2.186  12.238  19.210  0.00  0.00    +0.000 NA
ATOM      4  C   UNL     1       2.597  13.517  19.434  0.00  0.00    +0.000 A 
ATOM      5  C   UNL     1       1.770  14.544  19.601  0.00  0.00    +0.000 A 
ATOM      6  C   UNL     1       0.314  14.281  19.633  0.00  0.00    +0.000 A 
ATOM      7  O   UNL     1      -0.458  15.215  19.860  0.00  0.00    +0.000 OA
ATOM      8  N   UNL     1      -0.055  12.972  19.352  0.00  0.00    +0.000 N 
ATOM      9  H   UNL     1      -0.423  10.569  18.428  0.00  0.00    +0.000 HD
ENDROOT
BRANCH   1  13
ATOM     10  C   UNL     1       2.246   6.971  19.767  0.00  0.00    +0.000 A 
ATOM     11  C   UNL     1       1.543   7.677  20.742  0.00  0.00    +0.000 A 
ATOM     12  C   UNL     1       1.009   8.943  20.462  0.00  0.00    +0.000 A 
ATOM     13  C   UNL     1       1.124   9.501  19.183  0.00  0.00    +0.000 A 
ATOM     14  C   UNL     1       1.899   8.824  18.235  0.00  0.00    +0.000 A 
ATOM     15  C   UNL     1       2.430   7.567  18.519  0.00  0.00    +0.000 A 
ATOM     16  F   UNL     1       3.077   6.936  17.528  0.00  0.00    +0.000 F 
BRANCH  10  17
ATOM     17  O   UNL     1       2.635   5.716  20.125  0.00  0.00    +0.000 OA
BRANCH  17  19
ATOM     18  C   UNL     1       3.014   3.717  18.912  0.00  0.00    +0.000 C 
ATOM     19  C   UNL     1       1.945   4.618  19.519  0.00  0.00    +0.000 C 
ATOM     20  C   UNL     1       1.150   3.867  20.583  0.00  0.00    +0.000 C 
ENDBRANCH  17  19
ENDBRANCH  10  17
ENDBRANCH   1  13
BRANCH   5  21
ATOM     21  N   UNL     1       2.343  15.821  19.843  0.00  0.00    +0.000 N 
ATOM     22  H   UNL     1       1.758  16.453  20.394  0.00  0.00    +0.000 HD
BRANCH  21  23
ATOM     23  S   UNL     1       2.861  16.620  18.443  0.00  0.00    +0.000 S 
ATOM     24  C   UNL     1       1.477  17.655  17.979  0.00  0.00    +0.000 C 
ATOM     25  O   UNL     1       3.929  17.498  18.870  0.00  0.00    +0.000 OA
ATOM     26  O   UNL     1       3.066  15.644  17.395  0.00  0.00    +0.000 OA
ENDBRANCH  21  23
ENDBRANCH   5  21
BRANCH   8  27
ATOM     27  C   UNL     1      -1.490  12.678  19.376  0.00  0.00    +0.000 C 
BRANCH  27  28
ATOM     28  C   UNL     1      -2.117  12.661  20.761  0.00  0.00    +0.000 A 
ATOM     29  C   UNL     1      -1.519  12.029  21.862  0.00  0.00    +0.000 A 
ATOM     30  C   UNL     1      -2.202  11.918  23.078  0.00  0.00    +0.000 A 
ATOM     31  C   UNL     1      -3.476  12.460  23.213  0.00  0.00    +0.000 A 
ATOM     32 CL   UNL     1      -4.347  12.243  24.680  0.00  0.00    +0.000 Cl
ATOM     33  C   UNL     1      -4.057  13.156  22.157  0.00  0.00    +0.000 A 
ATOM     34  C   UNL     1      -3.377  13.262  20.939  0.00  0.00    +0.000 A 
ENDBRANCH  27  28
ENDBRANCH   8  27
TORSDOF 7
ENDMDL
MODEL 4
REMARK VINA RESULT:      -7.2      1.167      1.731
REMARK  Name = 
REMARK  10 active torsions:
REMARK  status: ('A' for Active; 'I' for Inactive)
REMARK    1  A    between atoms: C_1  and  C_2
REMARK    2  A    between atoms: C_2  and  C_3
REMARK    3  A    between atoms: C_2  and  O_4
REMARK    4  A    between atoms: O_4  and  C_5
REMARK    5  A    between atoms: C_8  and  N_9
REMARK    6  A    between atoms: C_13  and  N_14
REMARK    7  A    between atoms: N_14  and  S_15
REMARK    8  A    between atoms: S_15  and  C_16
REMARK    9  A    between atoms: N_21  and  C_22
REMARK   10  A    between atoms: C_22  and  C_23
REMARK                            x       y       z     vdW  Elec       q    Type
REMARK                         _______ _______ _______ _____ _____    ______ ____
ROOT
ATOM      1  N   UNL     1       0.672  10.877  18.534  0.00  0.00    +0.000 N 
ATOM      2  C   UNL     1       1.034  12.142  18.939  0.00  0.00    +0.000 A 
ATOM      3  N   UNL     1       2.295  12.407  19.134  0.00  0.00    +0.000 NA
ATOM      4  C   UNL     1       2.670  13.682  19.430  0.00  0.00    +0.000 A 
ATOM      5  C   UNL     1       1.821  14.699  19.542  0.00  0.00    +0.000 A 
ATOM      6  C   UNL     1       0.371  14.425  19.425  0.00  0.00    +0.000 A 
ATOM      7  O   UNL     1      -0.428  15.347  19.600  0.00  0.00    +0.000 OA
ATOM      8  N   UNL     1       0.044  13.121  19.076  0.00  0.00    +0.000 N 
ATOM      9  H   UNL     1      -0.210  10.741  18.059  0.00  0.00    +0.000 HD
ENDROOT
BRANCH   1  13
ATOM     10  C   UNL     1       2.340   7.126  19.568  0.00  0.00    +0.000 A 
ATOM     11  C   UNL     1       1.600   7.837  20.510  0.00  0.00    +0.000 A 
ATOM     12  C   UNL     1       1.091   9.108  20.206  0.00  0.00    +0.000 A 
ATOM     13  C   UNL     1       1.267   9.664  18.933  0.00  0.00    +0.000 A 
ATOM     14  C   UNL     1       2.077   8.981  18.021  0.00  0.00    +0.000 A 
ATOM     15  C   UNL     1       2.584   7.718  18.329  0.00  0.00    +0.000 A 
ATOM     16  F   UNL     1       3.269   7.082  17.368  0.00  0.00    +0.000 F 
BRANCH  10  17
ATOM     17  O   UNL     1       2.702   5.867  19.943  0.00  0.00    +0.000 OA
BRANCH  17  19
ATOM     18  C   UNL     1       1.651   4.135  18.715  0.00  0.00    +0.000 C 
ATOM     19  C   UNL     1       1.663   4.888  20.041  0.00  0.00    +0.000 C 
ATOM     20  C   UNL     1       1.966   3.938  21.196  0.00  0.00    +0.000 C 
ENDBRANCH  17  19
ENDBRANCH  10  17
ENDBRANCH   1  13
BRANCH   5  21
ATOM     21  N   UNL     1       2.355  15.973  19.871  0.00  0.00    +0.000 N 
ATOM     22  H   UNL     1       1.707  16.594  20.361  0.00  0.00    +0.000 HD
BRANCH  21  23
ATOM     23  S   UNL     1       3.029  16.799  18.555  0.00  0.00    +0.000 S 
ATOM     24  C   UNL     1       3.406  15.515  17.367  0.00  0.00    +0.000 C 
ATOM     25  O   UNL     1       1.953  17.592  18.002  0.00  0.00    +0.000 OA
ATOM     26  O   UNL     1       4.274  17.407  18.971  0.00  0.00    +0.000 OA
ENDBRANCH  21  23
ENDBRANCH   5  21
BRANCH   8  27
ATOM     27  C   UNL     1      -1.383  12.816  18.953  0.00  0.00    +0.000 C 
BRANCH  27  28
ATOM     28  C   UNL     1      -2.111  12.615  20.273  0.00  0.00    +0.000 A 
ATOM     29  C   UNL     1      -3.420  13.066  20.500  0.00  0.00    +0.000 A 
ATOM     30  C   UNL     1      -3.992  12.984  21.774  0.00  0.00    +0.000 A 
ATOM     31  C   UNL     1      -3.272  12.426  22.826  0.00  0.00    +0.000 A 
ATOM     32 CL   UNL     1      -3.944  12.408  24.409  0.00  0.00    +0.000 Cl
ATOM     33  C   UNL     1      -2.001  11.903  22.606  0.00  0.00    +0.000 A 
ATOM     34  C   UNL     1      -1.426  11.991  21.333  0.00  0.00    +0.000 A 
ENDBRANCH  27  28
ENDBRANCH   8  27
TORSDOF 7
ENDMDL
MODEL 5
REMARK VINA RESULT:      -7.2      1.512      1.731
REMARK  Name = 
REMARK  10 active torsions:
REMARK  status: ('A' for Active; 'I' for Inactive)
REMARK    1  A    between atoms: C_1  and  C_2
REMARK    2  A    between atoms: C_2  and  C_3
REMARK    3  A    between atoms: C_2  and  O_4
REMARK    4  A    between atoms: O_4  and  C_5
REMARK    5  A    between atoms: C_8  and  N_9
REMARK    6  A    between atoms: C_13  and  N_14
REMARK    7  A    between atoms: N_14  and  S_15
REMARK    8  A    between atoms: S_15  and  C_16
REMARK    9  A    between atoms: N_21  and  C_22
REMARK   10  A    between atoms: C_22  and  C_23
REMARK                            x       y       z     vdW  Elec       q    Type
REMARK                         _______ _______ _______ _____ _____    ______ ____
ROOT
ATOM      1  N   UNL     1       0.412  11.113  18.581  0.00  0.00    +0.000 N 
ATOM      2  C   UNL     1       0.885  12.320  19.046  0.00  0.00    +0.000 A 
ATOM      3  N   UNL     1       2.172  12.513  19.111  0.00  0.00    +0.000 NA
ATOM      4  C   UNL     1       2.645  13.739  19.468  0.00  0.00    +0.000 A 
ATOM      5  C   UNL     1       1.868  14.776  19.767  0.00  0.00    +0.000 A 
ATOM      6  C   UNL     1       0.403  14.575  19.802  0.00  0.00    +0.000 A 
ATOM      7  O   UNL     1      -0.321  15.510  20.150  0.00  0.00    +0.000 OA
ATOM      8  N   UNL     1      -0.030  13.323  19.385  0.00  0.00    +0.000 N 
ATOM      9  H   UNL     1      -0.525  11.058  18.205  0.00  0.00    +0.000 HD
ENDROOT
BRANCH   1  13
ATOM     10  C   UNL     1       2.273   7.399  19.396  0.00  0.00    +0.000 A 
ATOM     11  C   UNL     1       2.303   7.919  18.103  0.00  0.00    +0.000 A 
ATOM     12  C   UNL     1       1.641   9.118  17.800  0.00  0.00    +0.000 A 
ATOM     13  C   UNL     1       0.984   9.845  18.801  0.00  0.00    +0.000 A 
ATOM     14  C   UNL     1       0.890   9.277  20.076  0.00  0.00    +0.000 A 
ATOM     15  C   UNL     1       1.548   8.084  20.371  0.00  0.00    +0.000 A 
ATOM     16  F   UNL     1       1.494   7.652  21.639  0.00  0.00    +0.000 F 
BRANCH  10  17
ATOM     17  O   UNL     1       3.028   6.282  19.590  0.00  0.00    +0.000 OA
BRANCH  17  19
ATOM     18  C   UNL     1       3.672   4.135  18.823  0.00  0.00    +0.000 C 
ATOM     19  C   UNL     1       2.484   5.036  19.141  0.00  0.00    +0.000 C 
ATOM     20  C   UNL     1       1.629   4.427  20.248  0.00  0.00    +0.000 C 
ENDBRANCH  17  19
ENDBRANCH  10  17
ENDBRANCH   1  13
BRANCH   5  21
ATOM     21  N   UNL     1       2.504  15.991  20.139  0.00  0.00    +0.000 N 
ATOM     22  H   UNL     1       3.296  16.255  19.549  0.00  0.00    +0.000 HD
BRANCH  21  23
ATOM     23  S   UNL     1       2.973  16.054  21.765  0.00  0.00    +0.000 S 
ATOM     24  C   UNL     1       4.755  15.912  21.722  0.00  0.00    +0.000 C 
ATOM     25  O   UNL     1       2.659  17.395  22.208  0.00  0.00    +0.000 OA
ATOM     26  O   UNL     1       2.445  14.894  22.450  0.00  0.00    +0.000 OA
ENDBRANCH  21  23
ENDBRANCH   5  21
BRANCH   8  27
ATOM     27  C   UNL     1      -1.476  13.091  19.407  0.00  0.00    +0.000 C 
BRANCH  27  28
ATOM     28  C   UNL     1      -2.081  12.954  20.796  0.00  0.00    +0.000 A 
ATOM     29  C   UNL     1      -1.539  12.121  21.786  0.00  0.00    +0.000 A 
ATOM     30  C   UNL     1      -2.211  11.920  22.997  0.00  0.00    +0.000 A 
ATOM     31  C   UNL     1      -3.418  12.570  23.239  0.00  0.00    +0.000 A 
ATOM     32 CL   UNL     1      -4.285  12.250  24.689  0.00  0.00    +0.000 Cl
ATOM     33  C   UNL     1      -3.936  13.459  22.302  0.00  0.00    +0.000 A 
ATOM     34  C   UNL     1      -3.267  13.655  21.088  0.00  0.00    +0.000 A 
ENDBRANCH  27  28
ENDBRANCH   8  27
TORSDOF 7
ENDMDL
MODEL 6
REMARK VINA RESULT:      -7.2      3.825      5.595
REMARK  Name = 
REMARK  10 active torsions:
REMARK  status: ('A' for Active; 'I' for Inactive)
REMARK    1  A    between atoms: C_1  and  C_2
REMARK    2  A    between atoms: C_2  and  C_3
REMARK    3  A    between atoms: C_2  and  O_4
REMARK    4  A    between atoms: O_4  and  C_5
REMARK    5  A    between atoms: C_8  and  N_9
REMARK    6  A    between atoms: C_13  and  N_14
REMARK    7  A    between atoms: N_14  and  S_15
REMARK    8  A    between atoms: S_15  and  C_16
REMARK    9  A    between atoms: N_21  and  C_22
REMARK   10  A    between atoms: C_22  and  C_23
REMARK                            x       y       z     vdW  Elec       q    Type
REMARK                         _______ _______ _______ _____ _____    ______ ____
ROOT
ATOM      1  N   UNL     1       0.873   9.452  20.012  0.00  0.00    +0.000 N 
ATOM      2  C   UNL     1      -0.123  10.155  19.371  0.00  0.00    +0.000 A 
ATOM      3  N   UNL     1      -0.873   9.539  18.502  0.00  0.00    +0.000 NA
ATOM      4  C   UNL     1      -1.926  10.198  17.944  0.00  0.00    +0.000 A 
ATOM      5  C   UNL     1      -2.248  11.457  18.227  0.00  0.00    +0.000 A 
ATOM      6  C   UNL     1      -1.366  12.225  19.134  0.00  0.00    +0.000 A 
ATOM      7  O   UNL     1      -1.614  13.414  19.343  0.00  0.00    +0.000 OA
ATOM      8  N   UNL     1      -0.336  11.496  19.711  0.00  0.00    +0.000 N 
ATOM      9  H   UNL     1       1.225   9.787  20.899  0.00  0.00    +0.000 HD
ENDROOT
BRANCH   1  13
ATOM     10  C   UNL     1       3.425   6.419  18.525  0.00  0.00    +0.000 A 
ATOM     11  C   UNL     1       3.205   7.570  17.770  0.00  0.00    +0.000 A 
ATOM     12  C   UNL     1       2.316   8.558  18.218  0.00  0.00    +0.000 A 
ATOM     13  C   UNL     1       1.675   8.436  19.457  0.00  0.00    +0.000 A 
ATOM     14  C   UNL     1       1.839   7.244  20.170  0.00  0.00    +0.000 A 
ATOM     15  C   UNL     1       2.721   6.263  19.720  0.00  0.00    +0.000 A 
ATOM     16  F   UNL     1       2.901   5.192  20.506  0.00  0.00    +0.000 F 
BRANCH  10  17
ATOM     17  O   UNL     1       4.377   5.576  18.037  0.00  0.00    +0.000 OA
BRANCH  17  19
ATOM     18  C   UNL     1       5.347   4.446  16.195  0.00  0.00    +0.000 C 
ATOM     19  C   UNL     1       4.035   4.796  16.887  0.00  0.00    +0.000 C 
ATOM     20  C   UNL     1       3.306   3.531  17.329  0.00  0.00    +0.000 C 
ENDBRANCH  17  19
ENDBRANCH  10  17
ENDBRANCH   1  13
BRANCH   5  21
ATOM     21  N   UNL     1      -3.366  12.020  17.555  0.00  0.00    +0.000 N 
ATOM     22  H   UNL     1      -3.262  13.007  17.308  0.00  0.00    +0.000 HD
BRANCH  21  23
ATOM     23  S   UNL     1      -4.838  11.799  18.363  0.00  0.00    +0.000 S 
ATOM     24  C   UNL     1      -6.021  12.735  17.401  0.00  0.00    +0.000 C 
ATOM     25  O   UNL     1      -5.164  10.399  18.200  0.00  0.00    +0.000 OA
ATOM     26  O   UNL     1      -4.747  12.401  19.675  0.00  0.00    +0.000 OA
ENDBRANCH  21  23
ENDBRANCH   5  21
BRANCH   8  27
ATOM     27  C   UNL     1       0.556  12.227  20.614  0.00  0.00    +0.000 C 
BRANCH  27  28
ATOM     28  C   UNL     1       1.633  13.050  19.923  0.00  0.00    +0.000 A 
ATOM     29  C   UNL     1       2.083  12.779  18.622  0.00  0.00    +0.000 A 
ATOM     30  C   UNL     1       3.173  13.473  18.085  0.00  0.00    +0.000 A 
ATOM     31  C   UNL     1       3.805  14.461  18.833  0.00  0.00    +0.000 A 
ATOM     32 CL   UNL     1       5.199  15.249  18.205  0.00  0.00    +0.000 Cl
ATOM     33  C   UNL     1       3.328  14.798  20.096  0.00  0.00    +0.000 A 
ATOM     34  C   UNL     1       2.242  14.100  20.636  0.00  0.00    +0.000 A 
ENDBRANCH  27  28
ENDBRANCH   8  27
TORSDOF 7
ENDMDL
MODEL 7
REMARK VINA RESULT:      -7.1      3.797      5.531
REMARK  Name = 
REMARK  10 active torsions:
REMARK  status: ('A' for Active; 'I' for Inactive)
REMARK    1  A    between atoms: C_1  and  C_2
REMARK    2  A    between atoms: C_2  and  C_3
REMARK    3  A    between atoms: C_2  and  O_4
REMARK    4  A    between atoms: O_4  and  C_5
REMARK    5  A    between atoms: C_8  and  N_9
REMARK    6  A    between atoms: C_13  and  N_14
REMARK    7  A    between atoms: N_14  and  S_15
REMARK    8  A    between atoms: S_15  and  C_16
REMARK    9  A    between atoms: N_21  and  C_22
REMARK   10  A    between atoms: C_22  and  C_23
REMARK                            x       y       z     vdW  Elec       q    Type
REMARK                         _______ _______ _______ _____ _____    ______ ____
ROOT
ATOM      1  N   UNL     1       1.135   9.211  19.751  0.00  0.00    +0.000 N 
ATOM      2  C   UNL     1       0.216   9.982  19.075  0.00  0.00    +0.000 A 
ATOM      3  N   UNL     1      -0.456   9.450  18.094  0.00  0.00    +0.000 NA
ATOM      4  C   UNL     1      -1.441  10.173  17.491  0.00  0.00    +0.000 A 
ATOM      5  C   UNL     1      -1.769  11.414  17.839  0.00  0.00    +0.000 A 
ATOM      6  C   UNL     1      -0.967  12.092  18.882  0.00  0.00    +0.000 A 
ATOM      7  O   UNL     1      -1.217  13.267  19.158  0.00  0.00    +0.000 OA
ATOM      8  N   UNL     1      -0.008  11.298  19.496  0.00  0.00    +0.000 N 
ATOM      9  H   UNL     1       1.405   9.470  20.691  0.00  0.00    +0.000 HD
ENDROOT
BRANCH   1  13
ATOM     10  C   UNL     1       3.789   6.263  18.272  0.00  0.00    +0.000 A 
ATOM     11  C   UNL     1       3.542   7.412  17.522  0.00  0.00    +0.000 A 
ATOM     12  C   UNL     1       2.621   8.371  17.966  0.00  0.00    +0.000 A 
ATOM     13  C   UNL     1       1.972   8.223  19.198  0.00  0.00    +0.000 A 
ATOM     14  C   UNL     1       2.163   7.031  19.906  0.00  0.00    +0.000 A 
ATOM     15  C   UNL     1       3.078   6.079  19.458  0.00  0.00    +0.000 A 
ATOM     16  F   UNL     1       3.281   5.008  20.240  0.00  0.00    +0.000 F 
BRANCH  10  17
ATOM     17  O   UNL     1       4.770   5.451  17.787  0.00  0.00    +0.000 OA
BRANCH  17  19
ATOM     18  C   UNL     1       5.610   4.281  15.907  0.00  0.00    +0.000 C 
ATOM     19  C   UNL     1       4.393   4.483  16.803  0.00  0.00    +0.000 C 
ATOM     20  C   UNL     1       4.011   3.178  17.494  0.00  0.00    +0.000 C 
ENDBRANCH  17  19
ENDBRANCH  10  17
ENDBRANCH   1  13
BRANCH   5  21
ATOM     21  N   UNL     1      -2.809  12.051  17.109  0.00  0.00    +0.000 N 
ATOM     22  H   UNL     1      -3.060  12.981  17.449  0.00  0.00    +0.000 HD
BRANCH  21  23
ATOM     23  S   UNL     1      -4.213  11.116  16.953  0.00  0.00    +0.000 S 
ATOM     24  C   UNL     1      -5.551  12.298  17.054  0.00  0.00    +0.000 C 
ATOM     25  O   UNL     1      -4.191  10.607  15.599  0.00  0.00    +0.000 OA
ATOM     26  O   UNL     1      -4.311  10.225  18.089  0.00  0.00    +0.000 OA
ENDBRANCH  21  23
ENDBRANCH   5  21
BRANCH   8  27
ATOM     27  C   UNL     1       0.804  11.939  20.533  0.00  0.00    +0.000 C 
BRANCH  27  28
ATOM     28  C   UNL     1       1.724  13.042  20.035  0.00  0.00    +0.000 A 
ATOM     29  C   UNL     1       1.880  14.267  20.702  0.00  0.00    +0.000 A 
ATOM     30  C   UNL     1       2.626  15.302  20.129  0.00  0.00    +0.000 A 
ATOM     31  C   UNL     1       3.244  15.115  18.897  0.00  0.00    +0.000 A 
ATOM     32 CL   UNL     1       4.084  16.419  18.154  0.00  0.00    +0.000 Cl
ATOM     33  C   UNL     1       3.165  13.884  18.253  0.00  0.00    +0.000 A 
ATOM     34  C   UNL     1       2.414  12.850  18.823  0.00  0.00    +0.000 A 
ENDBRANCH  27  28
ENDBRANCH   8  27
TORSDOF 7
ENDMDL
MODEL 8
REMARK VINA RESULT:      -7.1      1.473      1.929
REMARK  Name = 
REMARK  10 active torsions:
REMARK  status: ('A' for Active; 'I' for Inactive)
REMARK    1  A    between atoms: C_1  and  C_2
REMARK    2  A    between atoms: C_2  and  C_3
REMARK    3  A    between atoms: C_2  and  O_4
REMARK    4  A    between atoms: O_4  and  C_5
REMARK    5  A    between atoms: C_8  and  N_9
REMARK    6  A    between atoms: C_13  and  N_14
REMARK    7  A    between atoms: N_14  and  S_15
REMARK    8  A    between atoms: S_15  and  C_16
REMARK    9  A    between atoms: N_21  and  C_22
REMARK   10  A    between atoms: C_22  and  C_23
REMARK                            x       y       z     vdW  Elec       q    Type
REMARK                         _______ _______ _______ _____ _____    ______ ____
ROOT
ATOM      1  N   UNL     1       0.456  11.049  18.443  0.00  0.00    +0.000 N 
ATOM      2  C   UNL     1       0.859  12.266  18.947  0.00  0.00    +0.000 A 
ATOM      3  N   UNL     1       2.131  12.484  19.132  0.00  0.00    +0.000 NA
ATOM      4  C   UNL     1       2.544  13.719  19.529  0.00  0.00    +0.000 A 
ATOM      5  C   UNL     1       1.723  14.742  19.750  0.00  0.00    +0.000 A 
ATOM      6  C   UNL     1       0.264  14.512  19.647  0.00  0.00    +0.000 A 
ATOM      7  O   UNL     1      -0.507  15.433  19.923  0.00  0.00    +0.000 OA
ATOM      8  N   UNL     1      -0.103  13.251  19.195  0.00  0.00    +0.000 N 
ATOM      9  H   UNL     1      -0.440  10.976  17.980  0.00  0.00    +0.000 HD
ENDROOT
BRANCH   1  13
ATOM     10  C   UNL     1       2.314   7.376  19.430  0.00  0.00    +0.000 A 
ATOM     11  C   UNL     1       2.387   7.860  18.125  0.00  0.00    +0.000 A 
ATOM     12  C   UNL     1       1.728   9.044  17.764  0.00  0.00    +0.000 A 
ATOM     13  C   UNL     1       1.030   9.793  18.719  0.00  0.00    +0.000 A 
ATOM     14  C   UNL     1       0.894   9.261  20.006  0.00  0.00    +0.000 A 
ATOM     15  C   UNL     1       1.549   8.082  20.359  0.00  0.00    +0.000 A 
ATOM     16  F   UNL     1       1.454   7.686  21.636  0.00  0.00    +0.000 F 
BRANCH  10  17
ATOM     17  O   UNL     1       3.071   6.272  19.684  0.00  0.00    +0.000 OA
BRANCH  17  19
ATOM     18  C   UNL     1       3.489   4.084  18.878  0.00  0.00    +0.000 C 
ATOM     19  C   UNL     1       2.445   4.996  19.513  0.00  0.00    +0.000 C 
ATOM     20  C   UNL     1       2.014   4.454  20.872  0.00  0.00    +0.000 C 
ENDBRANCH  17  19
ENDBRANCH  10  17
ENDBRANCH   1  13
BRANCH   5  21
ATOM     21  N   UNL     1       2.296  15.969  20.176  0.00  0.00    +0.000 N 
ATOM     22  H   UNL     1       3.159  16.227  19.693  0.00  0.00    +0.000 HD
BRANCH  21  23
ATOM     23  S   UNL     1       2.543  16.071  21.849  0.00  0.00    +0.000 S 
ATOM     24  C   UNL     1       1.347  17.278  22.405  0.00  0.00    +0.000 C 
ATOM     25  O   UNL     1       2.136  14.787  22.379  0.00  0.00    +0.000 OA
ATOM     26  O   UNL     1       3.866  16.600  22.096  0.00  0.00    +0.000 OA
ENDBRANCH  21  23
ENDBRANCH   5  21
BRANCH   8  27
ATOM     27  C   UNL     1      -1.540  12.991  19.082  0.00  0.00    +0.000 C 
BRANCH  27  28
ATOM     28  C   UNL     1      -2.249  12.730  20.401  0.00  0.00    +0.000 A 
ATOM     29  C   UNL     1      -3.574  13.120  20.647  0.00  0.00    +0.000 A 
ATOM     30  C   UNL     1      -4.133  12.986  21.922  0.00  0.00    +0.000 A 
ATOM     31  C   UNL     1      -3.382  12.437  22.957  0.00  0.00    +0.000 A 
ATOM     32 CL   UNL     1      -4.041  12.356  24.543  0.00  0.00    +0.000 Cl
ATOM     33  C   UNL     1      -2.091  11.974  22.718  0.00  0.00    +0.000 A 
ATOM     34  C   UNL     1      -1.530  12.114  21.444  0.00  0.00    +0.000 A 
ENDBRANCH  27  28
ENDBRANCH   8  27
TORSDOF 7
ENDMDL
MODEL 9
REMARK VINA RESULT:      -7.1      3.153      4.560
REMARK  Name = 
REMARK  10 active torsions:
REMARK  status: ('A' for Active; 'I' for Inactive)
REMARK    1  A    between atoms: C_1  and  C_2
REMARK    2  A    between atoms: C_2  and  C_3
REMARK    3  A    between atoms: C_2  and  O_4
REMARK    4  A    between atoms: O_4  and  C_5
REMARK    5  A    between atoms: C_8  and  N_9
REMARK    6  A    between atoms: C_13  and  N_14
REMARK    7  A    between atoms: N_14  and  S_15
REMARK    8  A    between atoms: S_15  and  C_16
REMARK    9  A    between atoms: N_21  and  C_22
REMARK   10  A    between atoms: C_22  and  C_23
REMARK                            x       y       z     vdW  Elec       q    Type
REMARK                         _______ _______ _______ _____ _____    ______ ____
ROOT
ATOM      1  N   UNL     1       1.106   9.425  19.733  0.00  0.00    +0.000 N 
ATOM      2  C   UNL     1       0.144  10.099  19.014  0.00  0.00    +0.000 A 
ATOM      3  N   UNL     1      -0.631   9.427  18.210  0.00  0.00    +0.000 NA
ATOM      4  C   UNL     1      -1.652  10.068  17.577  0.00  0.00    +0.000 A 
ATOM      5  C   UNL     1      -1.919  11.363  17.722  0.00  0.00    +0.000 A 
ATOM      6  C   UNL     1      -1.006  12.184  18.549  0.00  0.00    +0.000 A 
ATOM      7  O   UNL     1      -1.203  13.399  18.629  0.00  0.00    +0.000 OA
ATOM      8  N   UNL     1      -0.011  11.476  19.208  0.00  0.00    +0.000 N 
ATOM      9  H   UNL     1       1.470   9.837  20.582  0.00  0.00    +0.000 HD
ENDROOT
BRANCH   1  13
ATOM     10  C   UNL     1       3.522   6.139  18.599  0.00  0.00    +0.000 A 
ATOM     11  C   UNL     1       3.387   7.228  17.740  0.00  0.00    +0.000 A 
ATOM     12  C   UNL     1       2.544   8.299  18.071  0.00  0.00    +0.000 A 
ATOM     13  C   UNL     1       1.864   8.322  19.295  0.00  0.00    +0.000 A 
ATOM     14  C   UNL     1       1.941   7.192  20.114  0.00  0.00    +0.000 A 
ATOM     15  C   UNL     1       2.778   6.128  19.780  0.00  0.00    +0.000 A 
ATOM     16  F   UNL     1       2.876   5.123  20.662  0.00  0.00    +0.000 F 
BRANCH  10  17
ATOM     17  O   UNL     1       4.438   5.206  18.216  0.00  0.00    +0.000 OA
BRANCH  17  19
ATOM     18  C   UNL     1       5.322   4.442  16.156  0.00  0.00    +0.000 C 
ATOM     19  C   UNL     1       4.113   4.395  17.083  0.00  0.00    +0.000 C 
ATOM     20  C   UNL     1       3.844   2.965  17.542  0.00  0.00    +0.000 C 
ENDBRANCH  17  19
ENDBRANCH  10  17
ENDBRANCH   1  13
BRANCH   5  21
ATOM     21  N   UNL     1      -3.009  11.899  16.986  0.00  0.00    +0.000 N 
ATOM     22  H   UNL     1      -2.937  12.899  16.785  0.00  0.00    +0.000 HD
BRANCH  21  23
ATOM     23  S   UNL     1      -4.526  11.575  17.667  0.00  0.00    +0.000 S 
ATOM     24  C   UNL     1      -4.466  12.344  19.281  0.00  0.00    +0.000 C 
ATOM     25  O   UNL     1      -5.476  12.322  16.871  0.00  0.00    +0.000 OA
ATOM     26  O   UNL     1      -4.660  10.147  17.853  0.00  0.00    +0.000 OA
ENDBRANCH  21  23
ENDBRANCH   5  21
BRANCH   8  27
ATOM     27  C   UNL     1       0.910  12.260  20.035  0.00  0.00    +0.000 C 
BRANCH  27  28
ATOM     28  C   UNL     1       0.291  12.864  21.286  0.00  0.00    +0.000 A 
ATOM     29  C   UNL     1      -0.590  12.159  22.119  0.00  0.00    +0.000 A 
ATOM     30  C   UNL     1      -1.244  12.804  23.175  0.00  0.00    +0.000 A 
ATOM     31  C   UNL     1      -1.003  14.151  23.424  0.00  0.00    +0.000 A 
ATOM     32 CL   UNL     1      -1.874  14.961  24.665  0.00  0.00    +0.000 Cl
ATOM     33  C   UNL     1      -0.076  14.851  22.657  0.00  0.00    +0.000 A 
ATOM     34  C   UNL     1       0.573  14.209  21.597  0.00  0.00    +0.000 A 
ENDBRANCH  27  28
ENDBRANCH   8  27
TORSDOF 7
ENDMDL
