MODEL 1
REMARK VINA RESULT:      -5.8      0.000      0.000
REMARK  Name = 
REMARK  9 active torsions:
REMARK  status: ('A' for Active; 'I' for Inactive)
REMARK    1  A    between atoms: C_1  and  C_2
REMARK    2  A    between atoms: C_2  and  N_3
REMARK    3  A    between atoms: N_3  and  C_4
REMARK    4  A    between atoms: C_4  and  C_5
REMARK    5  A    between atoms: C_6  and  C_8
REMARK    6  A    between atoms: C_8  and  N_9
REMARK    7  A    between atoms: C_11  and  C_12
REMARK    8  A    between atoms: C_13  and  C_14
REMARK    9  A    between atoms: C_16  and  N_17
REMARK                            x       y       z     vdW  Elec       q    Type
REMARK                         _______ _______ _______ _____ _____    ______ ____
ROOT
ATOM      1  N   UNL     1       5.552   4.829  17.415  0.00  0.00    +0.000 N 
ATOM      2  N   UNL     1       6.304   4.524  18.505  0.00  0.00    +0.000 NA
ATOM      3  C   UNL     1       7.126   5.574  18.649  0.00  0.00    +0.000 A 
ATOM      4  C   UNL     1       8.141   5.614  19.730  0.00  0.00    +0.000 C 
ATOM      5  C   UNL     1       6.870   6.569  17.679  0.00  0.00    +0.000 A 
ATOM      6  C   UNL     1       5.841   6.080  16.902  0.00  0.00    +0.000 A 
ENDROOT
BRANCH   6   7
ATOM      7  N   UNL     1       5.178   6.632  15.858  0.00  0.00    +0.000 N 
ATOM      8  H   UNL     1       5.228   7.639  15.700  0.00  0.00    +0.000 HD
ATOM      9  H   UNL     1       5.039   6.122  14.988  0.00  0.00    +0.000 HD
ENDBRANCH   6   7
BRANCH   5  10
ATOM     10  C   UNL     1       7.532   7.819  17.537  0.00  0.00    +0.000 C 
ATOM     11  N   UNL     1       8.061   8.851  17.428  0.00  0.00    +0.000 NA
ENDBRANCH   5  10
BRANCH   1  12
ATOM     12  C   UNL     1       4.470   3.936  17.031  0.00  0.00    +0.000 C 
BRANCH  12  14
ATOM     13  N   UNL     1       2.725   3.326  18.759  0.00  0.00    +0.000 N 
ATOM     14  C   UNL     1       3.178   4.230  17.780  0.00  0.00    +0.000 C 
ATOM     15  O   UNL     1       2.560   5.270  17.521  0.00  0.00    +0.000 OA
BRANCH  13  17
ATOM     16  C   UNL     1       1.433   4.240  20.721  0.00  0.00    +0.000 C 
ATOM     17  C   UNL     1       1.399   3.575  19.349  0.00  0.00    +0.000 C 
ENDBRANCH  13  17
BRANCH  13  18
ATOM     18  C   UNL     1       3.450   2.074  19.024  0.00  0.00    +0.000 C 
ATOM     19  C   UNL     1       4.431   2.003  20.180  0.00  0.00    +0.000 C 
ENDBRANCH  13  18
ENDBRANCH  12  14
ENDBRANCH   1  12
TORSDOF 6
ENDMDL
MODEL 2
REMARK VINA RESULT:      -5.7      1.779      5.795
REMARK  Name = 
REMARK  9 active torsions:
REMARK  status: ('A' for Active; 'I' for Inactive)
REMARK    1  A    between atoms: C_1  and  C_2
REMARK    2  A    between atoms: C_2  and  N_3
REMARK    3  A    between atoms: N_3  and  C_4
REMARK    4  A    between atoms: C_4  and  C_5
REMARK    5  A    between atoms: C_6  and  C_8
REMARK    6  A    between atoms: C_8  and  N_9
REMARK    7  A    between atoms: C_11  and  C_12
REMARK    8  A    between atoms: C_13  and  C_14
REMARK    9  A    between atoms: C_16  and  N_17
REMARK                            x       y       z     vdW  Elec       q    Type
REMARK                         _______ _______ _______ _____ _____    ______ ____
ROOT
ATOM      1  N   UNL     1       3.604   3.572  17.600  0.00  0.00    +0.000 N 
ATOM      2  N   UNL     1       2.270   3.382  17.419  0.00  0.00    +0.000 NA
ATOM      3  C   UNL     1       1.824   2.985  18.620  0.00  0.00    +0.000 A 
ATOM      4  C   UNL     1       0.396   2.642  18.835  0.00  0.00    +0.000 C 
ATOM      5  C   UNL     1       2.861   2.963  19.578  0.00  0.00    +0.000 A 
ATOM      6  C   UNL     1       3.999   3.361  18.908  0.00  0.00    +0.000 A 
ENDROOT
BRANCH   6   7
ATOM      7  N   UNL     1       5.266   3.552  19.347  0.00  0.00    +0.000 N 
ATOM      8  H   UNL     1       5.449   3.640  20.347  0.00  0.00    +0.000 HD
ATOM      9  H   UNL     1       6.065   3.158  18.853  0.00  0.00    +0.000 HD
ENDBRANCH   6   7
BRANCH   5  10
ATOM     10  C   UNL     1       2.754   2.609  20.950  0.00  0.00    +0.000 C 
ATOM     11  N   UNL     1       2.683   2.324  22.078  0.00  0.00    +0.000 NA
ENDBRANCH   5  10
BRANCH   1  12
ATOM     12  C   UNL     1       4.395   4.113  16.506  0.00  0.00    +0.000 C 
BRANCH  12  14
ATOM     13  N   UNL     1       6.263   5.818  16.425  0.00  0.00    +0.000 N 
ATOM     14  C   UNL     1       4.950   5.496  16.816  0.00  0.00    +0.000 C 
ATOM     15  O   UNL     1       4.226   6.315  17.394  0.00  0.00    +0.000 OA
BRANCH  13  17
ATOM     16  C   UNL     1       7.748   7.017  18.070  0.00  0.00    +0.000 C 
ATOM     17  C   UNL     1       6.806   7.110  16.875  0.00  0.00    +0.000 C 
ENDBRANCH  13  17
BRANCH  13  18
ATOM     18  C   UNL     1       7.125   4.818  15.776  0.00  0.00    +0.000 C 
ATOM     19  C   UNL     1       7.192   4.752  14.261  0.00  0.00    +0.000 C 
ENDBRANCH  13  18
ENDBRANCH  12  14
ENDBRANCH   1  12
TORSDOF 6
ENDMDL
MODEL 3
REMARK VINA RESULT:      -5.7      2.127      5.920
REMARK  Name = 
REMARK  9 active torsions:
REMARK  status: ('A' for Active; 'I' for Inactive)
REMARK    1  A    between atoms: C_1  and  C_2
REMARK    2  A    between atoms: C_2  and  N_3
REMARK    3  A    between atoms: N_3  and  C_4
REMARK    4  A    between atoms: C_4  and  C_5
REMARK    5  A    between atoms: C_6  and  C_8
REMARK    6  A    between atoms: C_8  and  N_9
REMARK    7  A    between atoms: C_11  and  C_12
REMARK    8  A    between atoms: C_13  and  C_14
REMARK    9  A    between atoms: C_16  and  N_17
REMARK                            x       y       z     vdW  Elec       q    Type
REMARK                         _______ _______ _______ _____ _____    ______ ____
ROOT
ATOM      1  N   UNL     1       4.251   4.131  18.600  0.00  0.00    +0.000 N 
ATOM      2  N   UNL     1       3.502   5.238  18.845  0.00  0.00    +0.000 NA
ATOM      3  C   UNL     1       2.718   4.889  19.875  0.00  0.00    +0.000 A 
ATOM      4  C   UNL     1       1.716   5.831  20.433  0.00  0.00    +0.000 C 
ATOM      5  C   UNL     1       2.996   3.577  20.318  0.00  0.00    +0.000 A 
ATOM      6  C   UNL     1       3.999   3.109  19.495  0.00  0.00    +0.000 A 
ENDROOT
BRANCH   6   7
ATOM      7  N   UNL     1       4.668   1.931  19.495  0.00  0.00    +0.000 N 
ATOM      8  H   UNL     1       5.589   1.870  19.930  0.00  0.00    +0.000 HD
ATOM      9  H   UNL     1       4.176   1.040  19.532  0.00  0.00    +0.000 HD
ENDBRANCH   6   7
BRANCH   5  10
ATOM     10  C   UNL     1       2.374   2.884  21.392  0.00  0.00    +0.000 C 
ATOM     11  N   UNL     1       1.848   2.318  22.265  0.00  0.00    +0.000 NA
ENDBRANCH   5  10
BRANCH   1  12
ATOM     12  C   UNL     1       5.299   4.195  17.593  0.00  0.00    +0.000 C 
BRANCH  12  14
ATOM     13  N   UNL     1       6.567   6.381  17.720  0.00  0.00    +0.000 N 
ATOM     14  C   UNL     1       6.498   5.015  18.050  0.00  0.00    +0.000 C 
ATOM     15  O   UNL     1       7.380   4.463  18.718  0.00  0.00    +0.000 OA
BRANCH  13  17
ATOM     16  C   UNL     1       7.823   8.565  17.646  0.00  0.00    +0.000 C 
ATOM     17  C   UNL     1       7.811   7.096  18.053  0.00  0.00    +0.000 C 
ENDBRANCH  13  17
BRANCH  13  18
ATOM     18  C   UNL     1       5.530   7.012  16.889  0.00  0.00    +0.000 C 
ATOM     19  C   UNL     1       5.326   6.547  15.459  0.00  0.00    +0.000 C 
ENDBRANCH  13  18
ENDBRANCH  12  14
ENDBRANCH   1  12
TORSDOF 6
ENDMDL
MODEL 4
REMARK VINA RESULT:      -5.7      1.264      1.742
REMARK  Name = 
REMARK  9 active torsions:
REMARK  status: ('A' for Active; 'I' for Inactive)
REMARK    1  A    between atoms: C_1  and  C_2
REMARK    2  A    between atoms: C_2  and  N_3
REMARK    3  A    between atoms: N_3  and  C_4
REMARK    4  A    between atoms: C_4  and  C_5
REMARK    5  A    between atoms: C_6  and  C_8
REMARK    6  A    between atoms: C_8  and  N_9
REMARK    7  A    between atoms: C_11  and  C_12
REMARK    8  A    between atoms: C_13  and  C_14
REMARK    9  A    between atoms: C_16  and  N_17
REMARK                            x       y       z     vdW  Elec       q    Type
REMARK                         _______ _______ _______ _____ _____    ______ ____
ROOT
ATOM      1  N   UNL     1       5.521   4.766  17.183  0.00  0.00    +0.000 N 
ATOM      2  N   UNL     1       6.211   4.447  18.310  0.00  0.00    +0.000 NA
ATOM      3  C   UNL     1       7.009   5.504  18.523  0.00  0.00    +0.000 A 
ATOM      4  C   UNL     1       7.959   5.533  19.663  0.00  0.00    +0.000 C 
ATOM      5  C   UNL     1       6.799   6.515  17.559  0.00  0.00    +0.000 A 
ATOM      6  C   UNL     1       5.824   6.030  16.713  0.00  0.00    +0.000 A 
ENDROOT
BRANCH   6   7
ATOM      7  N   UNL     1       5.217   6.596  15.642  0.00  0.00    +0.000 N 
ATOM      8  H   UNL     1       4.251   6.915  15.716  0.00  0.00    +0.000 HD
ATOM      9  H   UNL     1       5.742   7.142  14.962  0.00  0.00    +0.000 HD
ENDBRANCH   6   7
BRANCH   5  10
ATOM     10  C   UNL     1       7.454   7.774  17.480  0.00  0.00    +0.000 C 
ATOM     11  N   UNL     1       8.005   8.798  17.411  0.00  0.00    +0.000 NA
ENDBRANCH   5  10
BRANCH   1  12
ATOM     12  C   UNL     1       4.474   3.869  16.719  0.00  0.00    +0.000 C 
BRANCH  12  14
ATOM     13  N   UNL     1       2.794   3.864  18.612  0.00  0.00    +0.000 N 
ATOM     14  C   UNL     1       3.759   3.164  17.863  0.00  0.00    +0.000 C 
ATOM     15  O   UNL     1       4.033   1.982  18.101  0.00  0.00    +0.000 OA
BRANCH  13  17
ATOM     16  C   UNL     1       0.739   3.383  19.988  0.00  0.00    +0.000 C 
ATOM     17  C   UNL     1       2.239   3.192  19.798  0.00  0.00    +0.000 C 
ENDBRANCH  13  17
BRANCH  13  18
ATOM     18  C   UNL     1       2.512   5.282  18.343  0.00  0.00    +0.000 C 
ATOM     19  C   UNL     1       3.009   6.344  19.307  0.00  0.00    +0.000 C 
ENDBRANCH  13  18
ENDBRANCH  12  14
ENDBRANCH   1  12
TORSDOF 6
ENDMDL
MODEL 5
REMARK VINA RESULT:      -5.7      1.892      2.816
REMARK  Name = 
REMARK  9 active torsions:
REMARK  status: ('A' for Active; 'I' for Inactive)
REMARK    1  A    between atoms: C_1  and  C_2
REMARK    2  A    between atoms: C_2  and  N_3
REMARK    3  A    between atoms: N_3  and  C_4
REMARK    4  A    between atoms: C_4  and  C_5
REMARK    5  A    between atoms: C_6  and  C_8
REMARK    6  A    between atoms: C_8  and  N_9
REMARK    7  A    between atoms: C_11  and  C_12
REMARK    8  A    between atoms: C_13  and  C_14
REMARK    9  A    between atoms: C_16  and  N_17
REMARK                            x       y       z     vdW  Elec       q    Type
REMARK                         _______ _______ _______ _____ _____    ______ ____
ROOT
ATOM      1  N   UNL     1       4.642   4.440  17.931  0.00  0.00    +0.000 N 
ATOM      2  N   UNL     1       3.689   5.389  17.739  0.00  0.00    +0.000 NA
ATOM      3  C   UNL     1       4.380   6.522  17.542  0.00  0.00    +0.000 A 
ATOM      4  C   UNL     1       3.688   7.816  17.319  0.00  0.00    +0.000 C 
ATOM      5  C   UNL     1       5.773   6.290  17.564  0.00  0.00    +0.000 A 
ATOM      6  C   UNL     1       5.924   4.939  17.800  0.00  0.00    +0.000 A 
ENDROOT
BRANCH   6   7
ATOM      7  N   UNL     1       7.038   4.173  17.883  0.00  0.00    +0.000 N 
ATOM      8  H   UNL     1       6.958   3.182  18.110  0.00  0.00    +0.000 HD
ATOM      9  H   UNL     1       7.856   4.360  17.305  0.00  0.00    +0.000 HD
ENDBRANCH   6   7
BRANCH   5  10
ATOM     10  C   UNL     1       6.805   7.249  17.378  0.00  0.00    +0.000 C 
ATOM     11  N   UNL     1       7.660   8.029  17.239  0.00  0.00    +0.000 NA
ENDBRANCH   5  10
BRANCH   1  12
ATOM     12  C   UNL     1       4.237   3.051  18.075  0.00  0.00    +0.000 C 
BRANCH  12  14
ATOM     13  N   UNL     1       2.769   2.731  20.112  0.00  0.00    +0.000 N 
ATOM     14  C   UNL     1       4.048   2.645  19.530  0.00  0.00    +0.000 C 
ATOM     15  O   UNL     1       5.025   2.233  20.168  0.00  0.00    +0.000 OA
BRANCH  13  17
ATOM     16  C   UNL     1       1.251   2.592  22.119  0.00  0.00    +0.000 C 
ATOM     17  C   UNL     1       2.664   2.472  21.557  0.00  0.00    +0.000 C 
ENDBRANCH  13  17
BRANCH  13  18
ATOM     18  C   UNL     1       1.628   3.263  19.352  0.00  0.00    +0.000 C 
ATOM     19  C   UNL     1       0.691   2.308  18.635  0.00  0.00    +0.000 C 
ENDBRANCH  13  18
ENDBRANCH  12  14
ENDBRANCH   1  12
TORSDOF 6
ENDMDL
MODEL 6
REMARK VINA RESULT:      -5.6      2.154      5.911
REMARK  Name = 
REMARK  9 active torsions:
REMARK  status: ('A' for Active; 'I' for Inactive)
REMARK    1  A    between atoms: C_1  and  C_2
REMARK    2  A    between atoms: C_2  and  N_3
REMARK    3  A    between atoms: N_3  and  C_4
REMARK    4  A    between atoms: C_4  and  C_5
REMARK    5  A    between atoms: C_6  and  C_8
REMARK    6  A    between atoms: C_8  and  N_9
REMARK    7  A    between atoms: C_11  and  C_12
REMARK    8  A    between atoms: C_13  and  C_14
REMARK    9  A    between atoms: C_16  and  N_17
REMARK                            x       y       z     vdW  Elec       q    Type
REMARK                         _______ _______ _______ _____ _____    ______ ____
ROOT
ATOM      1  N   UNL     1       4.467   4.225  19.274  0.00  0.00    +0.000 N 
ATOM      2  N   UNL     1       3.689   5.326  19.442  0.00  0.00    +0.000 NA
ATOM      3  C   UNL     1       2.712   4.921  20.268  0.00  0.00    +0.000 A 
ATOM      4  C   UNL     1       1.623   5.841  20.680  0.00  0.00    +0.000 C 
ATOM      5  C   UNL     1       2.890   3.577  20.662  0.00  0.00    +0.000 A 
ATOM      6  C   UNL     1       4.036   3.148  20.025  0.00  0.00    +0.000 A 
ENDROOT
BRANCH   6   7
ATOM      7  N   UNL     1       4.687   1.961  20.075  0.00  0.00    +0.000 N 
ATOM      8  H   UNL     1       4.985   1.582  20.974  0.00  0.00    +0.000 HD
ATOM      9  H   UNL     1       4.495   1.221  19.401  0.00  0.00    +0.000 HD
ENDBRANCH   6   7
BRANCH   5  10
ATOM     10  C   UNL     1       2.062   2.823  21.537  0.00  0.00    +0.000 C 
ATOM     11  N   UNL     1       1.377   2.220  22.261  0.00  0.00    +0.000 NA
ENDBRANCH   5  10
BRANCH   1  12
ATOM     12  C   UNL     1       5.696   4.340  18.504  0.00  0.00    +0.000 C 
BRANCH  12  14
ATOM     13  N   UNL     1       6.266   5.158  16.178  0.00  0.00    +0.000 N 
ATOM     14  C   UNL     1       5.443   4.368  17.003  0.00  0.00    +0.000 C 
ATOM     15  O   UNL     1       4.526   3.681  16.538  0.00  0.00    +0.000 OA
BRANCH  13  17
ATOM     16  C   UNL     1       6.565   4.253  13.845  0.00  0.00    +0.000 C 
ATOM     17  C   UNL     1       5.892   5.271  14.758  0.00  0.00    +0.000 C 
ENDBRANCH  13  17
BRANCH  13  18
ATOM     18  C   UNL     1       7.325   6.001  16.752  0.00  0.00    +0.000 C 
ATOM     19  C   UNL     1       6.981   7.379  17.288  0.00  0.00    +0.000 C 
ENDBRANCH  13  18
ENDBRANCH  12  14
ENDBRANCH   1  12
TORSDOF 6
ENDMDL
MODEL 7
REMARK VINA RESULT:      -5.6      1.452      1.637
REMARK  Name = 
REMARK  9 active torsions:
REMARK  status: ('A' for Active; 'I' for Inactive)
REMARK    1  A    between atoms: C_1  and  C_2
REMARK    2  A    between atoms: C_2  and  N_3
REMARK    3  A    between atoms: N_3  and  C_4
REMARK    4  A    between atoms: C_4  and  C_5
REMARK    5  A    between atoms: C_6  and  C_8
REMARK    6  A    between atoms: C_8  and  N_9
REMARK    7  A    between atoms: C_11  and  C_12
REMARK    8  A    between atoms: C_13  and  C_14
REMARK    9  A    between atoms: C_16  and  N_17
REMARK                            x       y       z     vdW  Elec       q    Type
REMARK                         _______ _______ _______ _____ _____    ______ ____
ROOT
ATOM      1  N   UNL     1       4.181   5.222  17.379  0.00  0.00    +0.000 N 
ATOM      2  N   UNL     1       5.195   4.321  17.465  0.00  0.00    +0.000 NA
ATOM      3  C   UNL     1       6.308   5.070  17.468  0.00  0.00    +0.000 A 
ATOM      4  C   UNL     1       7.653   4.447  17.523  0.00  0.00    +0.000 C 
ATOM      5  C   UNL     1       6.005   6.449  17.428  0.00  0.00    +0.000 A 
ATOM      6  C   UNL     1       4.629   6.530  17.388  0.00  0.00    +0.000 A 
ENDROOT
BRANCH   6   7
ATOM      7  N   UNL     1       3.804   7.604  17.378  0.00  0.00    +0.000 N 
ATOM      8  H   UNL     1       2.980   7.606  16.776  0.00  0.00    +0.000 HD
ATOM      9  H   UNL     1       3.661   8.173  18.211  0.00  0.00    +0.000 HD
ENDBRANCH   6   7
BRANCH   5  10
ATOM     10  C   UNL     1       6.928   7.530  17.433  0.00  0.00    +0.000 C 
ATOM     11  N   UNL     1       7.682   8.418  17.455  0.00  0.00    +0.000 NA
ENDBRANCH   5  10
BRANCH   1  12
ATOM     12  C   UNL     1       2.808   4.750  17.456  0.00  0.00    +0.000 C 
BRANCH  12  14
ATOM     13  N   UNL     1       1.978   3.410  19.437  0.00  0.00    +0.000 N 
ATOM     14  C   UNL     1       2.299   4.666  18.889  0.00  0.00    +0.000 C 
ATOM     15  O   UNL     1       2.195   5.708  19.548  0.00  0.00    +0.000 OA
BRANCH  13  17
ATOM     16  C   UNL     1       2.178   2.698  21.846  0.00  0.00    +0.000 C 
ATOM     17  C   UNL     1       1.352   3.392  20.769  0.00  0.00    +0.000 C 
ENDBRANCH  13  17
BRANCH  13  18
ATOM     18  C   UNL     1       2.069   2.186  18.626  0.00  0.00    +0.000 C 
ATOM     19  C   UNL     1       3.390   1.445  18.528  0.00  0.00    +0.000 C 
ENDBRANCH  13  18
ENDBRANCH  12  14
ENDBRANCH   1  12
TORSDOF 6
ENDMDL
MODEL 8
REMARK VINA RESULT:      -5.6      3.038      5.362
REMARK  Name = 
REMARK  9 active torsions:
REMARK  status: ('A' for Active; 'I' for Inactive)
REMARK    1  A    between atoms: C_1  and  C_2
REMARK    2  A    between atoms: C_2  and  N_3
REMARK    3  A    between atoms: N_3  and  C_4
REMARK    4  A    between atoms: C_4  and  C_5
REMARK    5  A    between atoms: C_6  and  C_8
REMARK    6  A    between atoms: C_8  and  N_9
REMARK    7  A    between atoms: C_11  and  C_12
REMARK    8  A    between atoms: C_13  and  C_14
REMARK    9  A    between atoms: C_16  and  N_17
REMARK                            x       y       z     vdW  Elec       q    Type
REMARK                         _______ _______ _______ _____ _____    ______ ____
ROOT
ATOM      1  N   UNL     1       2.906   5.768  18.510  0.00  0.00    +0.000 N 
ATOM      2  N   UNL     1       2.815   6.864  17.711  0.00  0.00    +0.000 NA
ATOM      3  C   UNL     1       2.279   7.808  18.499  0.00  0.00    +0.000 A 
ATOM      4  C   UNL     1       1.988   9.168  17.980  0.00  0.00    +0.000 C 
ATOM      5  C   UNL     1       2.068   7.331  19.811  0.00  0.00    +0.000 A 
ATOM      6  C   UNL     1       2.494   6.019  19.806  0.00  0.00    +0.000 A 
ENDROOT
BRANCH   6   7
ATOM      7  N   UNL     1       2.553   5.102  20.801  0.00  0.00    +0.000 N 
ATOM      8  H   UNL     1       1.751   4.967  21.417  0.00  0.00    +0.000 HD
ATOM      9  H   UNL     1       3.099   4.247  20.704  0.00  0.00    +0.000 HD
ENDBRANCH   6   7
BRANCH   5  10
ATOM     10  C   UNL     1       1.534   8.054  20.911  0.00  0.00    +0.000 C 
ATOM     11  N   UNL     1       1.110   8.658  21.814  0.00  0.00    +0.000 NA
ENDBRANCH   5  10
BRANCH   1  12
ATOM     12  C   UNL     1       3.550   4.570  17.996  0.00  0.00    +0.000 C 
BRANCH  12  14
ATOM     13  N   UNL     1       6.008   5.013  17.590  0.00  0.00    +0.000 N 
ATOM     14  C   UNL     1       5.009   4.466  18.416  0.00  0.00    +0.000 C 
ATOM     15  O   UNL     1       5.285   3.913  19.488  0.00  0.00    +0.000 OA
BRANCH  13  17
ATOM     16  C   UNL     1       7.997   5.769  18.940  0.00  0.00    +0.000 C 
ATOM     17  C   UNL     1       7.410   4.759  17.961  0.00  0.00    +0.000 C 
ENDBRANCH  13  17
BRANCH  13  18
ATOM     18  C   UNL     1       5.666   5.630  16.299  0.00  0.00    +0.000 C 
ATOM     19  C   UNL     1       5.668   4.785  15.038  0.00  0.00    +0.000 C 
ENDBRANCH  13  18
ENDBRANCH  12  14
ENDBRANCH   1  12
TORSDOF 6
ENDMDL
MODEL 9
REMARK VINA RESULT:      -5.5      2.223      3.088
REMARK  Name = 
REMARK  9 active torsions:
REMARK  status: ('A' for Active; 'I' for Inactive)
REMARK    1  A    between atoms: C_1  and  C_2
REMARK    2  A    between atoms: C_2  and  N_3
REMARK    3  A    between atoms: N_3  and  C_4
REMARK    4  A    between atoms: C_4  and  C_5
REMARK    5  A    between atoms: C_6  and  C_8
REMARK    6  A    between atoms: C_8  and  N_9
REMARK    7  A    between atoms: C_11  and  C_12
REMARK    8  A    between atoms: C_13  and  C_14
REMARK    9  A    between atoms: C_16  and  N_17
REMARK                            x       y       z     vdW  Elec       q    Type
REMARK                         _______ _______ _______ _____ _____    ______ ____
ROOT
ATOM      1  N   UNL     1       5.713   4.844  16.627  0.00  0.00    +0.000 N 
ATOM      2  N   UNL     1       5.104   4.015  15.739  0.00  0.00    +0.000 NA
ATOM      3  C   UNL     1       5.780   4.197  14.595  0.00  0.00    +0.000 A 
ATOM      4  C   UNL     1       5.398   3.479  13.354  0.00  0.00    +0.000 C 
ATOM      5  C   UNL     1       6.847   5.107  14.762  0.00  0.00    +0.000 A 
ATOM      6  C   UNL     1       6.800   5.502  16.083  0.00  0.00    +0.000 A 
ENDROOT
BRANCH   6   7
ATOM      7  N   UNL     1       7.606   6.330  16.789  0.00  0.00    +0.000 N 
ATOM      8  H   UNL     1       7.206   6.945  17.499  0.00  0.00    +0.000 HD
ATOM      9  H   UNL     1       8.566   6.075  17.013  0.00  0.00    +0.000 HD
ENDBRANCH   6   7
BRANCH   5  10
ATOM     10  C   UNL     1       7.780   5.525  13.775  0.00  0.00    +0.000 C 
ATOM     11  N   UNL     1       8.557   5.872  12.978  0.00  0.00    +0.000 NA
ENDBRANCH   5  10
BRANCH   1  12
ATOM     12  C   UNL     1       5.290   4.823  18.019  0.00  0.00    +0.000 C 
BRANCH  12  14
ATOM     13  N   UNL     1       3.040   3.967  18.797  0.00  0.00    +0.000 N 
ATOM     14  C   UNL     1       3.784   4.985  18.173  0.00  0.00    +0.000 C 
ATOM     15  O   UNL     1       3.249   6.020  17.759  0.00  0.00    +0.000 OA
BRANCH  13  17
ATOM     16  C   UNL     1       0.901   3.747  20.113  0.00  0.00    +0.000 C 
ATOM     17  C   UNL     1       1.573   4.099  18.791  0.00  0.00    +0.000 C 
ENDBRANCH  13  17
BRANCH  13  18
ATOM     18  C   UNL     1       3.686   2.724  19.246  0.00  0.00    +0.000 C 
ATOM     19  C   UNL     1       3.561   1.466  18.408  0.00  0.00    +0.000 C 
ENDBRANCH  13  18
ENDBRANCH  12  14
ENDBRANCH   1  12
TORSDOF 6
ENDMDL
