MODEL 1
REMARK VINA RESULT:      -6.9      0.000      0.000
REMARK  Name = 
REMARK  5 active torsions:
REMARK  status: ('A' for Active; 'I' for Inactive)
REMARK    1  A    between atoms: C_1  and  C_2
REMARK    2  A    between atoms: C_2  and  C_3
REMARK    3  A    between atoms: N_5  and  C_6
REMARK    4  A    between atoms: C_6  and  C_7
REMARK    5  A    between atoms: C_7  and  O_9
REMARK                            x       y       z     vdW  Elec       q    Type
REMARK                         _______ _______ _______ _____ _____    ______ ____
ROOT
ATOM      1  C   UNL     1       3.027   6.171  18.147  0.00  0.00    +0.000 A 
ATOM      2  N   UNL     1       4.047   6.428  17.384  0.00  0.00    +0.000 NA
ATOM      3  N   UNL     1       4.671   5.404  16.721  0.00  0.00    +0.000 N 
ATOM      4  C   UNL     1       4.336   4.062  16.869  0.00  0.00    +0.000 A 
ATOM      5  O   UNL     1       4.926   3.150  16.299  0.00  0.00    +0.000 OA
ATOM      6  C   UNL     1       3.229   3.758  17.795  0.00  0.00    +0.000 A 
ATOM      7  C   UNL     1       2.895   2.427  18.074  0.00  0.00    +0.000 A 
ATOM      8  C   UNL     1       1.850   2.140  18.950  0.00  0.00    +0.000 A 
ATOM      9  C   UNL     1       1.126   3.180  19.530  0.00  0.00    +0.000 A 
ATOM     10  C   UNL     1       1.463   4.509  19.256  0.00  0.00    +0.000 A 
ATOM     11  C   UNL     1       2.533   4.799  18.400  0.00  0.00    +0.000 A 
ENDROOT
BRANCH   1  13
ATOM     12  C   UNL     1       2.179   8.490  17.857  0.00  0.00    +0.000 C 
ATOM     13  C   UNL     1       2.384   7.357  18.848  0.00  0.00    +0.000 C 
ENDBRANCH   1  13
BRANCH   3  14
ATOM     14  C   UNL     1       5.744   5.790  15.795  0.00  0.00    +0.000 C 
BRANCH  14  15
ATOM     15  C   UNL     1       7.104   5.834  16.471  0.00  0.00    +0.000 C 
ATOM     16  O   UNL     1       7.656   6.873  16.811  0.00  0.00    +0.000 OA
BRANCH  15  17
ATOM     17  O   UNL     1       7.649   4.618  16.723  0.00  0.00    +0.000 OA
ATOM     18  H   UNL     1       8.384   4.717  17.363  0.00  0.00    +0.000 HD
ENDBRANCH  15  17
ENDBRANCH  14  15
ENDBRANCH   3  14
TORSDOF 4
ENDMDL
MODEL 2
REMARK VINA RESULT:      -6.8      2.714      4.880
REMARK  Name = 
REMARK  5 active torsions:
REMARK  status: ('A' for Active; 'I' for Inactive)
REMARK    1  A    between atoms: C_1  and  C_2
REMARK    2  A    between atoms: C_2  and  C_3
REMARK    3  A    between atoms: N_5  and  C_6
REMARK    4  A    between atoms: C_6  and  C_7
REMARK    5  A    between atoms: C_7  and  O_9
REMARK                            x       y       z     vdW  Elec       q    Type
REMARK                         _______ _______ _______ _____ _____    ______ ____
ROOT
ATOM      1  C   UNL     1       2.990   5.731  18.816  0.00  0.00    +0.000 A 
ATOM      2  N   UNL     1       2.500   4.688  19.418  0.00  0.00    +0.000 NA
ATOM      3  N   UNL     1       2.897   3.436  19.031  0.00  0.00    +0.000 N 
ATOM      4  C   UNL     1       3.747   3.184  17.960  0.00  0.00    +0.000 A 
ATOM      5  O   UNL     1       4.066   2.056  17.599  0.00  0.00    +0.000 OA
ATOM      6  C   UNL     1       4.244   4.361  17.223  0.00  0.00    +0.000 A 
ATOM      7  C   UNL     1       5.025   4.189  16.074  0.00  0.00    +0.000 A 
ATOM      8  C   UNL     1       5.493   5.301  15.377  0.00  0.00    +0.000 A 
ATOM      9  C   UNL     1       5.200   6.583  15.839  0.00  0.00    +0.000 A 
ATOM     10  C   UNL     1       4.415   6.755  16.983  0.00  0.00    +0.000 A 
ATOM     11  C   UNL     1       3.918   5.638  17.667  0.00  0.00    +0.000 A 
ENDROOT
BRANCH   1  13
ATOM     12  C   UNL     1       1.696   6.920  20.575  0.00  0.00    +0.000 C 
ATOM     13  C   UNL     1       2.505   7.088  19.300  0.00  0.00    +0.000 C 
ENDBRANCH   1  13
BRANCH   3  14
ATOM     14  C   UNL     1       2.382   2.317  19.833  0.00  0.00    +0.000 C 
BRANCH  14  15
ATOM     15  C   UNL     1       1.406   2.774  20.904  0.00  0.00    +0.000 C 
ATOM     16  O   UNL     1       1.636   2.696  22.104  0.00  0.00    +0.000 OA
BRANCH  15  17
ATOM     17  O   UNL     1       0.265   3.331  20.429  0.00  0.00    +0.000 OA
ATOM     18  H   UNL     1      -0.299   2.633  20.037  0.00  0.00    +0.000 HD
ENDBRANCH  15  17
ENDBRANCH  14  15
ENDBRANCH   3  14
TORSDOF 4
ENDMDL
MODEL 3
REMARK VINA RESULT:      -6.8      2.571      4.607
REMARK  Name = 
REMARK  5 active torsions:
REMARK  status: ('A' for Active; 'I' for Inactive)
REMARK    1  A    between atoms: C_1  and  C_2
REMARK    2  A    between atoms: C_2  and  C_3
REMARK    3  A    between atoms: N_5  and  C_6
REMARK    4  A    between atoms: C_6  and  C_7
REMARK    5  A    between atoms: C_7  and  O_9
REMARK                            x       y       z     vdW  Elec       q    Type
REMARK                         _______ _______ _______ _____ _____    ______ ____
ROOT
ATOM      1  C   UNL     1       3.284   6.365  17.904  0.00  0.00    +0.000 A 
ATOM      2  N   UNL     1       2.412   5.777  18.668  0.00  0.00    +0.000 NA
ATOM      3  N   UNL     1       2.410   4.410  18.763  0.00  0.00    +0.000 N 
ATOM      4  C   UNL     1       3.241   3.576  18.023  0.00  0.00    +0.000 A 
ATOM      5  O   UNL     1       3.204   2.351  18.090  0.00  0.00    +0.000 OA
ATOM      6  C   UNL     1       4.179   4.235  17.096  0.00  0.00    +0.000 A 
ATOM      7  C   UNL     1       4.980   3.464  16.245  0.00  0.00    +0.000 A 
ATOM      8  C   UNL     1       5.865   4.088  15.368  0.00  0.00    +0.000 A 
ATOM      9  C   UNL     1       5.966   5.478  15.356  0.00  0.00    +0.000 A 
ATOM     10  C   UNL     1       5.162   6.248  16.201  0.00  0.00    +0.000 A 
ATOM     11  C   UNL     1       4.249   5.624  17.061  0.00  0.00    +0.000 A 
ENDROOT
BRANCH   1  13
ATOM     12  C   UNL     1       1.782   8.345  17.903  0.00  0.00    +0.000 C 
ATOM     13  C   UNL     1       3.228   7.883  17.848  0.00  0.00    +0.000 C 
ENDBRANCH   1  13
BRANCH   3  14
ATOM     14  C   UNL     1       1.467   3.831  19.730  0.00  0.00    +0.000 C 
BRANCH  14  15
ATOM     15  C   UNL     1       1.959   3.954  21.163  0.00  0.00    +0.000 C 
ATOM     16  O   UNL     1       1.889   3.046  21.981  0.00  0.00    +0.000 OA
BRANCH  15  17
ATOM     17  O   UNL     1       2.537   5.144  21.461  0.00  0.00    +0.000 OA
ATOM     18  H   UNL     1       2.021   5.590  22.163  0.00  0.00    +0.000 HD
ENDBRANCH  15  17
ENDBRANCH  14  15
ENDBRANCH   3  14
TORSDOF 4
ENDMDL
MODEL 4
REMARK VINA RESULT:      -6.8      1.404      3.354
REMARK  Name = 
REMARK  5 active torsions:
REMARK  status: ('A' for Active; 'I' for Inactive)
REMARK    1  A    between atoms: C_1  and  C_2
REMARK    2  A    between atoms: C_2  and  C_3
REMARK    3  A    between atoms: N_5  and  C_6
REMARK    4  A    between atoms: C_6  and  C_7
REMARK    5  A    between atoms: C_7  and  O_9
REMARK                            x       y       z     vdW  Elec       q    Type
REMARK                         _______ _______ _______ _____ _____    ______ ____
ROOT
ATOM      1  C   UNL     1       3.313   3.517  17.693  0.00  0.00    +0.000 A 
ATOM      2  N   UNL     1       4.110   3.895  16.737  0.00  0.00    +0.000 NA
ATOM      3  N   UNL     1       4.552   5.191  16.698  0.00  0.00    +0.000 N 
ATOM      4  C   UNL     1       4.139   6.183  17.582  0.00  0.00    +0.000 A 
ATOM      5  O   UNL     1       4.514   7.349  17.515  0.00  0.00    +0.000 OA
ATOM      6  C   UNL     1       3.174   5.778  18.621  0.00  0.00    +0.000 A 
ATOM      7  C   UNL     1       2.635   6.736  19.487  0.00  0.00    +0.000 A 
ATOM      8  C   UNL     1       1.721   6.354  20.467  0.00  0.00    +0.000 A 
ATOM      9  C   UNL     1       1.363   5.013  20.597  0.00  0.00    +0.000 A 
ATOM     10  C   UNL     1       1.897   4.056  19.728  0.00  0.00    +0.000 A 
ATOM     11  C   UNL     1       2.791   4.444  18.722  0.00  0.00    +0.000 A 
ENDROOT
BRANCH   1  13
ATOM     12  C   UNL     1       3.799   1.228  18.529  0.00  0.00    +0.000 C 
ATOM     13  C   UNL     1       2.865   2.065  17.673  0.00  0.00    +0.000 C 
ENDBRANCH   1  13
BRANCH   3  14
ATOM     14  C   UNL     1       5.534   5.508  15.653  0.00  0.00    +0.000 C 
BRANCH  14  15
ATOM     15  C   UNL     1       6.624   4.455  15.543  0.00  0.00    +0.000 C 
ATOM     16  O   UNL     1       7.676   4.504  16.169  0.00  0.00    +0.000 OA
BRANCH  15  17
ATOM     17  O   UNL     1       6.322   3.412  14.731  0.00  0.00    +0.000 OA
ATOM     18  H   UNL     1       6.551   3.642  13.807  0.00  0.00    +0.000 HD
ENDBRANCH  15  17
ENDBRANCH  14  15
ENDBRANCH   3  14
TORSDOF 4
ENDMDL
MODEL 5
REMARK VINA RESULT:      -6.8      1.558      3.392
REMARK  Name = 
REMARK  5 active torsions:
REMARK  status: ('A' for Active; 'I' for Inactive)
REMARK    1  A    between atoms: C_1  and  C_2
REMARK    2  A    between atoms: C_2  and  C_3
REMARK    3  A    between atoms: N_5  and  C_6
REMARK    4  A    between atoms: C_6  and  C_7
REMARK    5  A    between atoms: C_7  and  O_9
REMARK                            x       y       z     vdW  Elec       q    Type
REMARK                         _______ _______ _______ _____ _____    ______ ____
ROOT
ATOM      1  C   UNL     1       3.728   3.937  18.756  0.00  0.00    +0.000 A 
ATOM      2  N   UNL     1       4.475   3.578  17.755  0.00  0.00    +0.000 NA
ATOM      3  N   UNL     1       4.888   4.519  16.849  0.00  0.00    +0.000 N 
ATOM      4  C   UNL     1       4.493   5.852  16.873  0.00  0.00    +0.000 A 
ATOM      5  O   UNL     1       4.840   6.677  16.035  0.00  0.00    +0.000 OA
ATOM      6  C   UNL     1       3.582   6.248  17.963  0.00  0.00    +0.000 A 
ATOM      7  C   UNL     1       3.060   7.547  18.003  0.00  0.00    +0.000 A 
ATOM      8  C   UNL     1       2.198   7.920  19.031  0.00  0.00    +0.000 A 
ATOM      9  C   UNL     1       1.873   7.004  20.031  0.00  0.00    +0.000 A 
ATOM     10  C   UNL     1       2.389   5.706  19.988  0.00  0.00    +0.000 A 
ATOM     11  C   UNL     1       3.231   5.320  18.938  0.00  0.00    +0.000 A 
ENDROOT
BRANCH   1  13
ATOM     12  C   UNL     1       2.072   2.135  19.192  0.00  0.00    +0.000 C 
ATOM     13  C   UNL     1       3.309   2.841  19.722  0.00  0.00    +0.000 C 
ENDBRANCH   1  13
BRANCH   3  14
ATOM     14  C   UNL     1       5.818   4.053  15.811  0.00  0.00    +0.000 C 
BRANCH  14  15
ATOM     15  C   UNL     1       7.214   4.628  15.985  0.00  0.00    +0.000 C 
ATOM     16  O   UNL     1       7.960   4.322  16.907  0.00  0.00    +0.000 OA
BRANCH  15  17
ATOM     17  O   UNL     1       7.601   5.478  15.003  0.00  0.00    +0.000 OA
ATOM     18  H   UNL     1       6.811   5.819  14.536  0.00  0.00    +0.000 HD
ENDBRANCH  15  17
ENDBRANCH  14  15
ENDBRANCH   3  14
TORSDOF 4
ENDMDL
MODEL 6
REMARK VINA RESULT:      -6.8      0.730      1.070
REMARK  Name = 
REMARK  5 active torsions:
REMARK  status: ('A' for Active; 'I' for Inactive)
REMARK    1  A    between atoms: C_1  and  C_2
REMARK    2  A    between atoms: C_2  and  C_3
REMARK    3  A    between atoms: N_5  and  C_6
REMARK    4  A    between atoms: C_6  and  C_7
REMARK    5  A    between atoms: C_7  and  O_9
REMARK                            x       y       z     vdW  Elec       q    Type
REMARK                         _______ _______ _______ _____ _____    ______ ____
ROOT
ATOM      1  C   UNL     1       2.885   6.278  18.476  0.00  0.00    +0.000 A 
ATOM      2  N   UNL     1       3.807   6.341  17.562  0.00  0.00    +0.000 NA
ATOM      3  N   UNL     1       4.331   5.185  17.049  0.00  0.00    +0.000 N 
ATOM      4  C   UNL     1       4.000   3.911  17.501  0.00  0.00    +0.000 A 
ATOM      5  O   UNL     1       4.504   2.884  17.059  0.00  0.00    +0.000 OA
ATOM      6  C   UNL     1       3.012   3.836  18.593  0.00  0.00    +0.000 A 
ATOM      7  C   UNL     1       2.698   2.600  19.170  0.00  0.00    +0.000 A 
ATOM      8  C   UNL     1       1.766   2.530  20.203  0.00  0.00    +0.000 A 
ATOM      9  C   UNL     1       1.132   3.690  20.645  0.00  0.00    +0.000 A 
ATOM     10  C   UNL     1       1.449   4.926  20.073  0.00  0.00    +0.000 A 
ATOM     11  C   UNL     1       2.409   5.002  19.056  0.00  0.00    +0.000 A 
ENDROOT
BRANCH   1  13
ATOM     12  C   UNL     1       2.185   8.578  17.845  0.00  0.00    +0.000 C 
ATOM     13  C   UNL     1       2.349   7.601  18.997  0.00  0.00    +0.000 C 
ENDBRANCH   1  13
BRANCH   3  14
ATOM     14  C   UNL     1       5.286   5.341  15.944  0.00  0.00    +0.000 C 
BRANCH  14  15
ATOM     15  C   UNL     1       6.690   5.657  16.433  0.00  0.00    +0.000 C 
ATOM     16  O   UNL     1       7.586   4.824  16.496  0.00  0.00    +0.000 OA
BRANCH  15  17
ATOM     17  O   UNL     1       6.898   6.958  16.750  0.00  0.00    +0.000 OA
ATOM     18  H   UNL     1       6.202   7.510  16.337  0.00  0.00    +0.000 HD
ENDBRANCH  15  17
ENDBRANCH  14  15
ENDBRANCH   3  14
TORSDOF 4
ENDMDL
MODEL 7
REMARK VINA RESULT:      -6.7      2.985      5.141
REMARK  Name = 
REMARK  5 active torsions:
REMARK  status: ('A' for Active; 'I' for Inactive)
REMARK    1  A    between atoms: C_1  and  C_2
REMARK    2  A    between atoms: C_2  and  C_3
REMARK    3  A    between atoms: N_5  and  C_6
REMARK    4  A    between atoms: C_6  and  C_7
REMARK    5  A    between atoms: C_7  and  O_9
REMARK                            x       y       z     vdW  Elec       q    Type
REMARK                         _______ _______ _______ _____ _____    ______ ____
ROOT
ATOM      1  C   UNL     1       6.584   4.892  18.271  0.00  0.00    +0.000 A 
ATOM      2  N   UNL     1       5.646   4.662  19.142  0.00  0.00    +0.000 NA
ATOM      3  N   UNL     1       4.463   4.108  18.731  0.00  0.00    +0.000 N 
ATOM      4  C   UNL     1       4.148   3.838  17.403  0.00  0.00    +0.000 A 
ATOM      5  O   UNL     1       3.071   3.376  17.043  0.00  0.00    +0.000 OA
ATOM      6  C   UNL     1       5.179   4.170  16.402  0.00  0.00    +0.000 A 
ATOM      7  C   UNL     1       4.904   4.021  15.037  0.00  0.00    +0.000 A 
ATOM      8  C   UNL     1       5.877   4.337  14.092  0.00  0.00    +0.000 A 
ATOM      9  C   UNL     1       7.131   4.781  14.508  0.00  0.00    +0.000 A 
ATOM     10  C   UNL     1       7.404   4.936  15.871  0.00  0.00    +0.000 A 
ATOM     11  C   UNL     1       6.416   4.649  16.821  0.00  0.00    +0.000 A 
ENDROOT
BRANCH   1  13
ATOM     12  C   UNL     1       7.919   6.982  18.439  0.00  0.00    +0.000 C 
ATOM     13  C   UNL     1       7.869   5.507  18.800  0.00  0.00    +0.000 C 
ENDBRANCH   1  13
BRANCH   3  14
ATOM     14  C   UNL     1       3.500   3.778  19.790  0.00  0.00    +0.000 C 
BRANCH  14  15
ATOM     15  C   UNL     1       3.927   2.568  20.604  0.00  0.00    +0.000 C 
ATOM     16  O   UNL     1       3.360   2.210  21.629  0.00  0.00    +0.000 OA
BRANCH  15  17
ATOM     17  O   UNL     1       4.966   1.872  20.080  0.00  0.00    +0.000 OA
ATOM     18  H   UNL     1       4.745   1.596  19.166  0.00  0.00    +0.000 HD
ENDBRANCH  15  17
ENDBRANCH  14  15
ENDBRANCH   3  14
TORSDOF 4
ENDMDL
MODEL 8
REMARK VINA RESULT:      -6.7      2.980      5.417
REMARK  Name = 
REMARK  5 active torsions:
REMARK  status: ('A' for Active; 'I' for Inactive)
REMARK    1  A    between atoms: C_1  and  C_2
REMARK    2  A    between atoms: C_2  and  C_3
REMARK    3  A    between atoms: N_5  and  C_6
REMARK    4  A    between atoms: C_6  and  C_7
REMARK    5  A    between atoms: C_7  and  O_9
REMARK                            x       y       z     vdW  Elec       q    Type
REMARK                         _______ _______ _______ _____ _____    ______ ____
ROOT
ATOM      1  C   UNL     1       5.181   4.543  16.131  0.00  0.00    +0.000 A 
ATOM      2  N   UNL     1       4.365   3.575  16.425  0.00  0.00    +0.000 NA
ATOM      3  N   UNL     1       4.221   3.186  17.731  0.00  0.00    +0.000 N 
ATOM      4  C   UNL     1       4.961   3.708  18.787  0.00  0.00    +0.000 A 
ATOM      5  O   UNL     1       4.848   3.326  19.947  0.00  0.00    +0.000 OA
ATOM      6  C   UNL     1       5.944   4.753  18.447  0.00  0.00    +0.000 A 
ATOM      7  C   UNL     1       6.796   5.260  19.436  0.00  0.00    +0.000 A 
ATOM      8  C   UNL     1       7.728   6.245  19.114  0.00  0.00    +0.000 A 
ATOM      9  C   UNL     1       7.794   6.739  17.812  0.00  0.00    +0.000 A 
ATOM     10  C   UNL     1       6.947   6.228  16.823  0.00  0.00    +0.000 A 
ATOM     11  C   UNL     1       6.032   5.216  17.138  0.00  0.00    +0.000 A 
ENDROOT
BRANCH   1  13
ATOM     12  C   UNL     1       6.217   3.952  13.950  0.00  0.00    +0.000 C 
ATOM     13  C   UNL     1       5.290   4.921  14.663  0.00  0.00    +0.000 C 
ENDBRANCH   1  13
BRANCH   3  14
ATOM     14  C   UNL     1       3.200   2.162  17.992  0.00  0.00    +0.000 C 
BRANCH  14  15
ATOM     15  C   UNL     1       1.814   2.760  18.170  0.00  0.00    +0.000 C 
ATOM     16  O   UNL     1       1.027   2.394  19.035  0.00  0.00    +0.000 OA
BRANCH  15  17
ATOM     17  O   UNL     1       1.524   3.779  17.324  0.00  0.00    +0.000 OA
ATOM     18  H   UNL     1       1.175   3.415  16.484  0.00  0.00    +0.000 HD
ENDBRANCH  15  17
ENDBRANCH  14  15
ENDBRANCH   3  14
TORSDOF 4
ENDMDL
MODEL 9
REMARK VINA RESULT:      -6.7      1.771      3.676
REMARK  Name = 
REMARK  5 active torsions:
REMARK  status: ('A' for Active; 'I' for Inactive)
REMARK    1  A    between atoms: C_1  and  C_2
REMARK    2  A    between atoms: C_2  and  C_3
REMARK    3  A    between atoms: N_5  and  C_6
REMARK    4  A    between atoms: C_6  and  C_7
REMARK    5  A    between atoms: C_7  and  O_9
REMARK                            x       y       z     vdW  Elec       q    Type
REMARK                         _______ _______ _______ _____ _____    ______ ____
ROOT
ATOM      1  C   UNL     1       3.019   5.200  19.641  0.00  0.00    +0.000 A 
ATOM      2  N   UNL     1       3.774   4.492  18.855  0.00  0.00    +0.000 NA
ATOM      3  N   UNL     1       4.307   5.067  17.731  0.00  0.00    +0.000 N 
ATOM      4  C   UNL     1       4.027   6.364  17.312  0.00  0.00    +0.000 A 
ATOM      5  O   UNL     1       4.481   6.855  16.284  0.00  0.00    +0.000 OA
ATOM      6  C   UNL     1       3.108   7.146  18.159  0.00  0.00    +0.000 A 
ATOM      7  C   UNL     1       2.699   8.423  17.756  0.00  0.00    +0.000 A 
ATOM      8  C   UNL     1       1.828   9.160  18.555  0.00  0.00    +0.000 A 
ATOM      9  C   UNL     1       1.382   8.632  19.766  0.00  0.00    +0.000 A 
ATOM     10  C   UNL     1       1.785   7.354  20.166  0.00  0.00    +0.000 A 
ATOM     11  C   UNL     1       2.636   6.599  19.348  0.00  0.00    +0.000 A 
ENDROOT
BRANCH   1  13
ATOM     12  C   UNL     1       1.221   3.709  20.493  0.00  0.00    +0.000 C 
ATOM     13  C   UNL     1       2.465   4.497  20.870  0.00  0.00    +0.000 C 
ENDBRANCH   1  13
BRANCH   3  14
ATOM     14  C   UNL     1       5.237   4.234  16.957  0.00  0.00    +0.000 C 
BRANCH  14  15
ATOM     15  C   UNL     1       6.680   4.415  17.399  0.00  0.00    +0.000 C 
ATOM     16  O   UNL     1       7.591   4.693  16.630  0.00  0.00    +0.000 OA
BRANCH  15  17
ATOM     17  O   UNL     1       6.881   4.296  18.734  0.00  0.00    +0.000 OA
ATOM     18  H   UNL     1       7.713   4.749  18.980  0.00  0.00    +0.000 HD
ENDBRANCH  15  17
ENDBRANCH  14  15
ENDBRANCH   3  14
TORSDOF 4
ENDMDL
