MODEL 1
REMARK VINA RESULT:      -8.2      0.000      0.000
REMARK  Name = 
REMARK  5 active torsions:
REMARK  status: ('A' for Active; 'I' for Inactive)
REMARK    1  A    between atoms: C_1  and  C_2
REMARK    2  A    between atoms: C_5  and  N_6
REMARK    3  A    between atoms: C_7  and  C_9
REMARK    4  A    between atoms: N_12  and  S_13
REMARK    5  A    between atoms: S_13  and  C_16
REMARK                            x       y       z     vdW  Elec       q    Type
REMARK                         _______ _______ _______ _____ _____    ______ ____
ROOT
ATOM      1  C   UNL     1       7.489   6.327  17.736  0.00  0.00    +0.000 C 
ATOM      2  C   UNL     1       7.176   5.720  19.113  0.00  0.00    +0.000 C 
ATOM      3  C   UNL     1       5.730   5.229  19.223  0.00  0.00    +0.000 C 
ATOM      4  N   UNL     1       4.769   6.322  18.881  0.00  0.00    +0.000 NA
ATOM      5  C   UNL     1       5.039   6.921  17.540  0.00  0.00    +0.000 C 
ATOM      6  C   UNL     1       6.475   7.438  17.459  0.00  0.00    +0.000 C 
ENDROOT
BRANCH   1   8
ATOM      7  N   UNL     1       6.944   5.673  15.435  0.00  0.00    +0.000 N 
ATOM      8  C   UNL     1       7.498   5.257  16.637  0.00  0.00    +0.000 C 
ATOM      9  O   UNL     1       7.999   4.154  16.833  0.00  0.00    +0.000 OA
ATOM     10  H   UNL     1       6.847   6.668  15.283  0.00  0.00    +0.000 HD
BRANCH   7  15
ATOM     11  C   UNL     1       6.000   2.298  10.889  0.00  0.00    +0.000 C 
ATOM     12  C   UNL     1       6.229   3.190  12.073  0.00  0.00    +0.000 A 
ATOM     13  C   UNL     1       5.323   3.205  13.136  0.00  0.00    +0.000 A 
ATOM     14  C   UNL     1       5.547   4.021  14.249  0.00  0.00    +0.000 A 
ATOM     15  C   UNL     1       6.678   4.836  14.326  0.00  0.00    +0.000 A 
ATOM     16  C   UNL     1       7.569   4.849  13.246  0.00  0.00    +0.000 A 
ATOM     17  C   UNL     1       7.351   4.023  12.135  0.00  0.00    +0.000 A 
ENDBRANCH   7  15
ENDBRANCH   1   8
BRANCH   4  18
ATOM     18  S   UNL     1       3.112   5.838  19.025  0.00  0.00    +0.000 S 
ATOM     19  O   UNL     1       2.710   5.243  17.769  0.00  0.00    +0.000 OA
ATOM     20  O   UNL     1       2.974   5.114  20.271  0.00  0.00    +0.000 OA
BRANCH  18  21
ATOM     21  C   UNL     1       2.251   7.385  19.169  0.00  0.00    +0.000 A 
ATOM     22  C   UNL     1       2.060   8.157  18.021  0.00  0.00    +0.000 A 
ATOM     23  C   UNL     1       1.367   9.363  18.113  0.00  0.00    +0.000 A 
ATOM     24  C   UNL     1       0.860   9.786  19.343  0.00  0.00    +0.000 A 
ATOM     25  C   UNL     1       1.041   9.003  20.485  0.00  0.00    +0.000 A 
ATOM     26  C   UNL     1       1.736   7.795  20.403  0.00  0.00    +0.000 A 
ENDBRANCH  18  21
ENDBRANCH   4  18
TORSDOF 4
ENDMDL
MODEL 2
REMARK VINA RESULT:      -8.0      2.158      3.312
REMARK  Name = 
REMARK  5 active torsions:
REMARK  status: ('A' for Active; 'I' for Inactive)
REMARK    1  A    between atoms: C_1  and  C_2
REMARK    2  A    between atoms: C_5  and  N_6
REMARK    3  A    between atoms: C_7  and  C_9
REMARK    4  A    between atoms: N_12  and  S_13
REMARK    5  A    between atoms: S_13  and  C_16
REMARK                            x       y       z     vdW  Elec       q    Type
REMARK                         _______ _______ _______ _____ _____    ______ ____
ROOT
ATOM      1  C   UNL     1       7.470   6.188  17.868  0.00  0.00    +0.000 C 
ATOM      2  C   UNL     1       6.963   5.611  19.199  0.00  0.00    +0.000 C 
ATOM      3  C   UNL     1       5.460   5.322  19.180  0.00  0.00    +0.000 C 
ATOM      4  N   UNL     1       4.688   6.541  18.789  0.00  0.00    +0.000 NA
ATOM      5  C   UNL     1       5.148   7.115  17.489  0.00  0.00    +0.000 C 
ATOM      6  C   UNL     1       6.642   7.431  17.536  0.00  0.00    +0.000 C 
ENDROOT
BRANCH   1   8
ATOM      7  N   UNL     1       6.924   5.618  15.544  0.00  0.00    +0.000 N 
ATOM      8  C   UNL     1       7.425   5.141  16.747  0.00  0.00    +0.000 C 
ATOM      9  O   UNL     1       7.843   4.002  16.929  0.00  0.00    +0.000 OA
ATOM     10  H   UNL     1       6.899   6.620  15.411  0.00  0.00    +0.000 HD
BRANCH   7  15
ATOM     11  C   UNL     1       5.555   2.375  11.010  0.00  0.00    +0.000 C 
ATOM     12  C   UNL     1       5.931   3.211  12.197  0.00  0.00    +0.000 A 
ATOM     13  C   UNL     1       7.110   3.959  12.195  0.00  0.00    +0.000 A 
ATOM     14  C   UNL     1       7.450   4.756  13.292  0.00  0.00    +0.000 A 
ATOM     15  C   UNL     1       6.620   4.823  14.413  0.00  0.00    +0.000 A 
ATOM     16  C   UNL     1       5.456   4.047  14.433  0.00  0.00    +0.000 A 
ATOM     17  C   UNL     1       5.108   3.258  13.328  0.00  0.00    +0.000 A 
ENDBRANCH   7  15
ENDBRANCH   1   8
BRANCH   4  18
ATOM     18  S   UNL     1       2.974   6.288  18.787  0.00  0.00    +0.000 S 
ATOM     19  O   UNL     1       2.462   6.695  20.078  0.00  0.00    +0.000 OA
ATOM     20  O   UNL     1       2.449   6.855  17.563  0.00  0.00    +0.000 OA
BRANCH  18  21
ATOM     21  C   UNL     1       2.828   4.520  18.701  0.00  0.00    +0.000 A 
ATOM     22  C   UNL     1       2.452   3.821  19.850  0.00  0.00    +0.000 A 
ATOM     23  C   UNL     1       2.311   2.435  19.795  0.00  0.00    +0.000 A 
ATOM     24  C   UNL     1       2.535   1.757  18.595  0.00  0.00    +0.000 A 
ATOM     25  C   UNL     1       2.897   2.462  17.445  0.00  0.00    +0.000 A 
ATOM     26  C   UNL     1       3.042   3.850  17.492  0.00  0.00    +0.000 A 
ENDBRANCH  18  21
ENDBRANCH   4  18
TORSDOF 4
ENDMDL
MODEL 3
REMARK VINA RESULT:      -7.8      2.162      3.094
REMARK  Name = 
REMARK  5 active torsions:
REMARK  status: ('A' for Active; 'I' for Inactive)
REMARK    1  A    between atoms: C_1  and  C_2
REMARK    2  A    between atoms: C_5  and  N_6
REMARK    3  A    between atoms: C_7  and  C_9
REMARK    4  A    between atoms: N_12  and  S_13
REMARK    5  A    between atoms: S_13  and  C_16
REMARK                            x       y       z     vdW  Elec       q    Type
REMARK                         _______ _______ _______ _____ _____    ______ ____
ROOT
ATOM      1  C   UNL     1       7.487   6.395  17.727  0.00  0.00    +0.000 C 
ATOM      2  C   UNL     1       7.107   5.841  19.109  0.00  0.00    +0.000 C 
ATOM      3  C   UNL     1       5.634   5.436  19.196  0.00  0.00    +0.000 C 
ATOM      4  N   UNL     1       4.745   6.574  18.806  0.00  0.00    +0.000 NA
ATOM      5  C   UNL     1       5.080   7.123  17.458  0.00  0.00    +0.000 C 
ATOM      6  C   UNL     1       6.545   7.555  17.399  0.00  0.00    +0.000 C 
ENDROOT
BRANCH   1   8
ATOM      7  N   UNL     1       6.929   5.709  15.438  0.00  0.00    +0.000 N 
ATOM      8  C   UNL     1       7.459   5.300  16.654  0.00  0.00    +0.000 C 
ATOM      9  O   UNL     1       7.915   4.183  16.879  0.00  0.00    +0.000 OA
ATOM     10  H   UNL     1       6.872   6.703  15.263  0.00  0.00    +0.000 HD
BRANCH   7  15
ATOM     11  C   UNL     1       5.875   2.270  10.965  0.00  0.00    +0.000 C 
ATOM     12  C   UNL     1       6.132   3.178  12.131  0.00  0.00    +0.000 A 
ATOM     13  C   UNL     1       5.246   3.218  13.209  0.00  0.00    +0.000 A 
ATOM     14  C   UNL     1       5.497   4.049  14.305  0.00  0.00    +0.000 A 
ATOM     15  C   UNL     1       6.635   4.856  14.348  0.00  0.00    +0.000 A 
ATOM     16  C   UNL     1       7.506   4.846  13.252  0.00  0.00    +0.000 A 
ATOM     17  C   UNL     1       7.262   4.004  12.158  0.00  0.00    +0.000 A 
ENDBRANCH   7  15
ENDBRANCH   1   8
BRANCH   4  18
ATOM     18  S   UNL     1       3.060   6.188  18.921  0.00  0.00    +0.000 S 
ATOM     19  O   UNL     1       2.638   6.433  20.283  0.00  0.00    +0.000 OA
ATOM     20  O   UNL     1       2.388   6.824  17.807  0.00  0.00    +0.000 OA
BRANCH  18  21
ATOM     21  C   UNL     1       3.030   4.430  18.673  0.00  0.00    +0.000 A 
ATOM     22  C   UNL     1       3.096   3.935  17.369  0.00  0.00    +0.000 A 
ATOM     23  C   UNL     1       3.096   2.557  17.158  0.00  0.00    +0.000 A 
ATOM     24  C   UNL     1       3.040   1.682  18.245  0.00  0.00    +0.000 A 
ATOM     25  C   UNL     1       2.988   2.183  19.548  0.00  0.00    +0.000 A 
ATOM     26  C   UNL     1       2.986   3.562  19.769  0.00  0.00    +0.000 A 
ENDBRANCH  18  21
ENDBRANCH   4  18
TORSDOF 4
ENDMDL
MODEL 4
REMARK VINA RESULT:      -7.7      3.558      6.278
REMARK  Name = 
REMARK  5 active torsions:
REMARK  status: ('A' for Active; 'I' for Inactive)
REMARK    1  A    between atoms: C_1  and  C_2
REMARK    2  A    between atoms: C_5  and  N_6
REMARK    3  A    between atoms: C_7  and  C_9
REMARK    4  A    between atoms: N_12  and  S_13
REMARK    5  A    between atoms: S_13  and  C_16
REMARK                            x       y       z     vdW  Elec       q    Type
REMARK                         _______ _______ _______ _____ _____    ______ ____
ROOT
ATOM      1  C   UNL     1       7.972   5.672  18.601  0.00  0.00    +0.000 C 
ATOM      2  C   UNL     1       7.642   4.674  17.481  0.00  0.00    +0.000 C 
ATOM      3  C   UNL     1       6.180   4.755  17.033  0.00  0.00    +0.000 C 
ATOM      4  N   UNL     1       5.256   4.589  18.197  0.00  0.00    +0.000 NA
ATOM      5  C   UNL     1       5.543   5.559  19.296  0.00  0.00    +0.000 C 
ATOM      6  C   UNL     1       6.996   5.439  19.756  0.00  0.00    +0.000 C 
ENDROOT
BRANCH   1   8
ATOM      7  N   UNL     1       8.730   7.995  18.825  0.00  0.00    +0.000 N 
ATOM      8  C   UNL     1       7.941   7.119  18.094  0.00  0.00    +0.000 C 
ATOM      9  O   UNL     1       7.292   7.426  17.098  0.00  0.00    +0.000 OA
ATOM     10  H   UNL     1       9.447   7.597  19.417  0.00  0.00    +0.000 HD
BRANCH   7  15
ATOM     11  C   UNL     1       8.899  13.709  18.308  0.00  0.00    +0.000 C 
ATOM     12  C   UNL     1       8.833  12.217  18.444  0.00  0.00    +0.000 A 
ATOM     13  C   UNL     1       8.140  11.448  17.508  0.00  0.00    +0.000 A 
ATOM     14  C   UNL     1       8.097  10.055  17.623  0.00  0.00    +0.000 A 
ATOM     15  C   UNL     1       8.745   9.402  18.673  0.00  0.00    +0.000 A 
ATOM     16  C   UNL     1       9.410  10.173  19.633  0.00  0.00    +0.000 A 
ATOM     17  C   UNL     1       9.464  11.568  19.512  0.00  0.00    +0.000 A 
ENDBRANCH   7  15
ENDBRANCH   1   8
BRANCH   4  18
ATOM     18  S   UNL     1       3.584   4.634  17.747  0.00  0.00    +0.000 S 
ATOM     19  O   UNL     1       3.181   6.021  17.665  0.00  0.00    +0.000 OA
ATOM     20  O   UNL     1       3.409   3.738  16.622  0.00  0.00    +0.000 OA
BRANCH  18  21
ATOM     21  C   UNL     1       2.767   3.935  19.161  0.00  0.00    +0.000 A 
ATOM     22  C   UNL     1       3.456   3.005  19.942  0.00  0.00    +0.000 A 
ATOM     23  C   UNL     1       2.837   2.464  21.068  0.00  0.00    +0.000 A 
ATOM     24  C   UNL     1       1.542   2.858  21.413  0.00  0.00    +0.000 A 
ATOM     25  C   UNL     1       0.864   3.799  20.635  0.00  0.00    +0.000 A 
ATOM     26  C   UNL     1       1.475   4.345  19.505  0.00  0.00    +0.000 A 
ENDBRANCH  18  21
ENDBRANCH   4  18
TORSDOF 4
ENDMDL
MODEL 5
REMARK VINA RESULT:      -7.6      3.473      6.154
REMARK  Name = 
REMARK  5 active torsions:
REMARK  status: ('A' for Active; 'I' for Inactive)
REMARK    1  A    between atoms: C_1  and  C_2
REMARK    2  A    between atoms: C_5  and  N_6
REMARK    3  A    between atoms: C_7  and  C_9
REMARK    4  A    between atoms: N_12  and  S_13
REMARK    5  A    between atoms: S_13  and  C_16
REMARK                            x       y       z     vdW  Elec       q    Type
REMARK                         _______ _______ _______ _____ _____    ______ ____
ROOT
ATOM      1  C   UNL     1       7.037   5.867  17.101  0.00  0.00    +0.000 C 
ATOM      2  C   UNL     1       5.978   6.466  16.163  0.00  0.00    +0.000 C 
ATOM      3  C   UNL     1       4.736   6.952  16.914  0.00  0.00    +0.000 C 
ATOM      4  N   UNL     1       4.159   5.859  17.755  0.00  0.00    +0.000 NA
ATOM      5  C   UNL     1       5.163   5.269  18.690  0.00  0.00    +0.000 C 
ATOM      6  C   UNL     1       6.380   4.755  17.921  0.00  0.00    +0.000 C 
ENDROOT
BRANCH   1   8
ATOM      7  N   UNL     1       7.577   8.231  17.479  0.00  0.00    +0.000 N 
ATOM      8  C   UNL     1       7.680   6.943  17.985  0.00  0.00    +0.000 C 
ATOM      9  O   UNL     1       8.195   6.652  19.061  0.00  0.00    +0.000 OA
ATOM     10  H   UNL     1       6.883   8.399  16.763  0.00  0.00    +0.000 HD
BRANCH   7  15
ATOM     11  C   UNL     1      10.130  12.939  19.543  0.00  0.00    +0.000 C 
ATOM     12  C   UNL     1       9.482  11.700  19.001  0.00  0.00    +0.000 A 
ATOM     13  C   UNL     1       9.666  10.468  19.632  0.00  0.00    +0.000 A 
ATOM     14  C   UNL     1       9.044   9.316  19.139  0.00  0.00    +0.000 A 
ATOM     15  C   UNL     1       8.227   9.370  18.009  0.00  0.00    +0.000 A 
ATOM     16  C   UNL     1       8.070  10.597  17.354  0.00  0.00    +0.000 A 
ATOM     17  C   UNL     1       8.682  11.754  17.854  0.00  0.00    +0.000 A 
ENDBRANCH   7  15
ENDBRANCH   1   8
BRANCH   4  18
ATOM     18  S   UNL     1       2.726   6.339  18.602  0.00  0.00    +0.000 S 
ATOM     19  O   UNL     1       3.130   6.996  19.826  0.00  0.00    +0.000 OA
ATOM     20  O   UNL     1       1.858   7.002  17.651  0.00  0.00    +0.000 OA
BRANCH  18  21
ATOM     21  C   UNL     1       1.989   4.789  19.059  0.00  0.00    +0.000 A 
ATOM     22  C   UNL     1       1.820   3.811  18.077  0.00  0.00    +0.000 A 
ATOM     23  C   UNL     1       1.264   2.581  18.423  0.00  0.00    +0.000 A 
ATOM     24  C   UNL     1       0.888   2.330  19.744  0.00  0.00    +0.000 A 
ATOM     25  C   UNL     1       1.073   3.307  20.725  0.00  0.00    +0.000 A 
ATOM     26  C   UNL     1       1.628   4.543  20.387  0.00  0.00    +0.000 A 
ENDBRANCH  18  21
ENDBRANCH   4  18
TORSDOF 4
ENDMDL
MODEL 6
REMARK VINA RESULT:      -7.6      1.932      7.725
REMARK  Name = 
REMARK  5 active torsions:
REMARK  status: ('A' for Active; 'I' for Inactive)
REMARK    1  A    between atoms: C_1  and  C_2
REMARK    2  A    between atoms: C_5  and  N_6
REMARK    3  A    between atoms: C_7  and  C_9
REMARK    4  A    between atoms: N_12  and  S_13
REMARK    5  A    between atoms: S_13  and  C_16
REMARK                            x       y       z     vdW  Elec       q    Type
REMARK                         _______ _______ _______ _____ _____    ______ ____
ROOT
ATOM      1  C   UNL     1       3.627   3.534  18.883  0.00  0.00    +0.000 C 
ATOM      2  C   UNL     1       5.020   4.018  19.317  0.00  0.00    +0.000 C 
ATOM      3  C   UNL     1       5.572   5.115  18.404  0.00  0.00    +0.000 C 
ATOM      4  N   UNL     1       5.574   4.670  16.976  0.00  0.00    +0.000 NA
ATOM      5  C   UNL     1       4.228   4.210  16.521  0.00  0.00    +0.000 C 
ATOM      6  C   UNL     1       3.707   3.089  17.421  0.00  0.00    +0.000 C 
ENDROOT
BRANCH   1   8
ATOM      7  N   UNL     1       3.059   5.908  19.136  0.00  0.00    +0.000 N 
ATOM      8  C   UNL     1       2.561   4.614  19.107  0.00  0.00    +0.000 C 
ATOM      9  O   UNL     1       1.374   4.318  19.206  0.00  0.00    +0.000 OA
ATOM     10  H   UNL     1       3.978   6.065  18.744  0.00  0.00    +0.000 HD
BRANCH   7  15
ATOM     11  C   UNL     1       0.050  10.618  20.445  0.00  0.00    +0.000 C 
ATOM     12  C   UNL     1       0.850   9.392  20.118  0.00  0.00    +0.000 A 
ATOM     13  C   UNL     1       1.038   8.391  21.074  0.00  0.00    +0.000 A 
ATOM     14  C   UNL     1       1.765   7.238  20.763  0.00  0.00    +0.000 A 
ATOM     15  C   UNL     1       2.319   7.060  19.494  0.00  0.00    +0.000 A 
ATOM     16  C   UNL     1       2.164   8.078  18.546  0.00  0.00    +0.000 A 
ATOM     17  C   UNL     1       1.425   9.229  18.853  0.00  0.00    +0.000 A 
ENDBRANCH   7  15
ENDBRANCH   1   8
BRANCH   4  18
ATOM     18  S   UNL     1       6.225   5.857  15.896  0.00  0.00    +0.000 S 
ATOM     19  O   UNL     1       5.217   6.875  15.691  0.00  0.00    +0.000 OA
ATOM     20  O   UNL     1       7.548   6.203  16.372  0.00  0.00    +0.000 OA
BRANCH  18  21
ATOM     21  C   UNL     1       6.386   4.967  14.368  0.00  0.00    +0.000 A 
ATOM     22  C   UNL     1       7.510   5.198  13.572  0.00  0.00    +0.000 A 
ATOM     23  C   UNL     1       7.663   4.492  12.380  0.00  0.00    +0.000 A 
ATOM     24  C   UNL     1       6.703   3.554  11.994  0.00  0.00    +0.000 A 
ATOM     25  C   UNL     1       5.588   3.317  12.801  0.00  0.00    +0.000 A 
ATOM     26  C   UNL     1       5.426   4.021  13.995  0.00  0.00    +0.000 A 
ENDBRANCH  18  21
ENDBRANCH   4  18
TORSDOF 4
ENDMDL
MODEL 7
REMARK VINA RESULT:      -7.6      3.584      6.244
REMARK  Name = 
REMARK  5 active torsions:
REMARK  status: ('A' for Active; 'I' for Inactive)
REMARK    1  A    between atoms: C_1  and  C_2
REMARK    2  A    between atoms: C_5  and  N_6
REMARK    3  A    between atoms: C_7  and  C_9
REMARK    4  A    between atoms: N_12  and  S_13
REMARK    5  A    between atoms: S_13  and  C_16
REMARK                            x       y       z     vdW  Elec       q    Type
REMARK                         _______ _______ _______ _____ _____    ______ ____
ROOT
ATOM      1  C   UNL     1       7.973   5.655  18.572  0.00  0.00    +0.000 C 
ATOM      2  C   UNL     1       7.611   4.676  17.445  0.00  0.00    +0.000 C 
ATOM      3  C   UNL     1       6.145   4.787  17.017  0.00  0.00    +0.000 C 
ATOM      4  N   UNL     1       5.234   4.623  18.191  0.00  0.00    +0.000 NA
ATOM      5  C   UNL     1       5.551   5.574  19.297  0.00  0.00    +0.000 C 
ATOM      6  C   UNL     1       7.008   5.425  19.737  0.00  0.00    +0.000 C 
ENDROOT
BRANCH   1   8
ATOM      7  N   UNL     1       8.729   7.973  18.847  0.00  0.00    +0.000 N 
ATOM      8  C   UNL     1       7.960   7.108  18.081  0.00  0.00    +0.000 C 
ATOM      9  O   UNL     1       7.340   7.429  17.071  0.00  0.00    +0.000 OA
ATOM     10  H   UNL     1       9.428   7.566  19.454  0.00  0.00    +0.000 HD
BRANCH   7  15
ATOM     11  C   UNL     1       8.710  13.677  18.204  0.00  0.00    +0.000 C 
ATOM     12  C   UNL     1       8.736  12.187  18.370  0.00  0.00    +0.000 A 
ATOM     13  C   UNL     1       9.436  11.602  19.427  0.00  0.00    +0.000 A 
ATOM     14  C   UNL     1       9.442  10.214  19.595  0.00  0.00    +0.000 A 
ATOM     15  C   UNL     1       8.752   9.382  18.712  0.00  0.00    +0.000 A 
ATOM     16  C   UNL     1       8.079   9.963  17.631  0.00  0.00    +0.000 A 
ATOM     17  C   UNL     1       8.062  11.355  17.469  0.00  0.00    +0.000 A 
ENDBRANCH   7  15
ENDBRANCH   1   8
BRANCH   4  18
ATOM     18  S   UNL     1       3.557   4.701  17.763  0.00  0.00    +0.000 S 
ATOM     19  O   UNL     1       3.171   6.095  17.722  0.00  0.00    +0.000 OA
ATOM     20  O   UNL     1       3.356   3.837  16.618  0.00  0.00    +0.000 OA
BRANCH  18  21
ATOM     21  C   UNL     1       2.748   3.976  19.169  0.00  0.00    +0.000 A 
ATOM     22  C   UNL     1       1.390   4.232  19.367  0.00  0.00    +0.000 A 
ATOM     23  C   UNL     1       0.734   3.654  20.453  0.00  0.00    +0.000 A 
ATOM     24  C   UNL     1       1.432   2.818  21.327  0.00  0.00    +0.000 A 
ATOM     25  C   UNL     1       2.787   2.554  21.116  0.00  0.00    +0.000 A 
ATOM     26  C   UNL     1       3.452   3.131  20.032  0.00  0.00    +0.000 A 
ENDBRANCH  18  21
ENDBRANCH   4  18
TORSDOF 4
ENDMDL
MODEL 8
REMARK VINA RESULT:      -7.5      2.074      3.128
REMARK  Name = 
REMARK  5 active torsions:
REMARK  status: ('A' for Active; 'I' for Inactive)
REMARK    1  A    between atoms: C_1  and  C_2
REMARK    2  A    between atoms: C_5  and  N_6
REMARK    3  A    between atoms: C_7  and  C_9
REMARK    4  A    between atoms: N_12  and  S_13
REMARK    5  A    between atoms: S_13  and  C_16
REMARK                            x       y       z     vdW  Elec       q    Type
REMARK                         _______ _______ _______ _____ _____    ______ ____
ROOT
ATOM      1  C   UNL     1       7.356   6.142  18.104  0.00  0.00    +0.000 C 
ATOM      2  C   UNL     1       6.754   5.460  19.343  0.00  0.00    +0.000 C 
ATOM      3  C   UNL     1       5.261   5.165  19.184  0.00  0.00    +0.000 C 
ATOM      4  N   UNL     1       4.507   6.406  18.828  0.00  0.00    +0.000 NA
ATOM      5  C   UNL     1       5.059   7.081  17.616  0.00  0.00    +0.000 C 
ATOM      6  C   UNL     1       6.542   7.402  17.806  0.00  0.00    +0.000 C 
ENDROOT
BRANCH   1   8
ATOM      7  N   UNL     1       6.763   5.656  15.773  0.00  0.00    +0.000 N 
ATOM      8  C   UNL     1       7.411   5.185  16.906  0.00  0.00    +0.000 C 
ATOM      9  O   UNL     1       8.021   4.122  16.974  0.00  0.00    +0.000 OA
ATOM     10  H   UNL     1       6.567   6.647  15.723  0.00  0.00    +0.000 HD
BRANCH   7  15
ATOM     11  C   UNL     1       5.645   2.593  11.049  0.00  0.00    +0.000 C 
ATOM     12  C   UNL     1       5.955   3.381  12.287  0.00  0.00    +0.000 A 
ATOM     13  C   UNL     1       7.159   4.078  12.403  0.00  0.00    +0.000 A 
ATOM     14  C   UNL     1       7.438   4.831  13.547  0.00  0.00    +0.000 A 
ATOM     15  C   UNL     1       6.523   4.904  14.599  0.00  0.00    +0.000 A 
ATOM     16  C   UNL     1       5.330   4.178  14.501  0.00  0.00    +0.000 A 
ATOM     17  C   UNL     1       5.044   3.433  13.349  0.00  0.00    +0.000 A 
ENDBRANCH   7  15
ENDBRANCH   1   8
BRANCH   4  18
ATOM     18  S   UNL     1       2.802   6.143  18.672  0.00  0.00    +0.000 S 
ATOM     19  O   UNL     1       2.119   7.223  19.351  0.00  0.00    +0.000 OA
ATOM     20  O   UNL     1       2.530   5.847  17.281  0.00  0.00    +0.000 OA
BRANCH  18  21
ATOM     21  C   UNL     1       2.531   4.671  19.628  0.00  0.00    +0.000 A 
ATOM     22  C   UNL     1       2.415   4.784  21.015  0.00  0.00    +0.000 A 
ATOM     23  C   UNL     1       2.180   3.641  21.779  0.00  0.00    +0.000 A 
ATOM     24  C   UNL     1       2.053   2.398  21.157  0.00  0.00    +0.000 A 
ATOM     25  C   UNL     1       2.155   2.293  19.768  0.00  0.00    +0.000 A 
ATOM     26  C   UNL     1       2.392   3.432  18.995  0.00  0.00    +0.000 A 
ENDBRANCH  18  21
ENDBRANCH   4  18
TORSDOF 4
ENDMDL
MODEL 9
REMARK VINA RESULT:      -7.5      1.908      7.769
REMARK  Name = 
REMARK  5 active torsions:
REMARK  status: ('A' for Active; 'I' for Inactive)
REMARK    1  A    between atoms: C_1  and  C_2
REMARK    2  A    between atoms: C_5  and  N_6
REMARK    3  A    between atoms: C_7  and  C_9
REMARK    4  A    between atoms: N_12  and  S_13
REMARK    5  A    between atoms: S_13  and  C_16
REMARK                            x       y       z     vdW  Elec       q    Type
REMARK                         _______ _______ _______ _____ _____    ______ ____
ROOT
ATOM      1  C   UNL     1       3.662   3.618  18.901  0.00  0.00    +0.000 C 
ATOM      2  C   UNL     1       5.053   4.113  19.327  0.00  0.00    +0.000 C 
ATOM      3  C   UNL     1       5.606   5.191  18.392  0.00  0.00    +0.000 C 
ATOM      4  N   UNL     1       5.611   4.715  16.974  0.00  0.00    +0.000 NA
ATOM      5  C   UNL     1       4.267   4.244  16.526  0.00  0.00    +0.000 C 
ATOM      6  C   UNL     1       3.745   3.142  17.449  0.00  0.00    +0.000 C 
ENDROOT
BRANCH   1   8
ATOM      7  N   UNL     1       3.077   5.999  19.015  0.00  0.00    +0.000 N 
ATOM      8  C   UNL     1       2.594   4.701  19.100  0.00  0.00    +0.000 C 
ATOM      9  O   UNL     1       1.417   4.402  19.276  0.00  0.00    +0.000 OA
ATOM     10  H   UNL     1       3.975   6.136  18.570  0.00  0.00    +0.000 HD
BRANCH   7  15
ATOM     11  C   UNL     1       0.100  10.701  20.421  0.00  0.00    +0.000 C 
ATOM     12  C   UNL     1       0.864   9.467  20.039  0.00  0.00    +0.000 A 
ATOM     13  C   UNL     1       1.361   9.314  18.743  0.00  0.00    +0.000 A 
ATOM     14  C   UNL     1       2.092   8.174  18.393  0.00  0.00    +0.000 A 
ATOM     15  C   UNL     1       2.340   7.166  19.326  0.00  0.00    +0.000 A 
ATOM     16  C   UNL     1       1.812   7.301  20.615  0.00  0.00    +0.000 A 
ATOM     17  C   UNL     1       1.090   8.449  20.971  0.00  0.00    +0.000 A 
ENDBRANCH   7  15
ENDBRANCH   1   8
BRANCH   4  18
ATOM     18  S   UNL     1       6.263   5.880  15.870  0.00  0.00    +0.000 S 
ATOM     19  O   UNL     1       5.250   6.885  15.632  0.00  0.00    +0.000 OA
ATOM     20  O   UNL     1       7.580   6.247  16.347  0.00  0.00    +0.000 OA
BRANCH  18  21
ATOM     21  C   UNL     1       6.442   4.953  14.365  0.00  0.00    +0.000 A 
ATOM     22  C   UNL     1       5.444   4.042  14.015  0.00  0.00    +0.000 A 
ATOM     23  C   UNL     1       5.558   3.323  12.826  0.00  0.00    +0.000 A 
ATOM     24  C   UNL     1       6.659   3.523  11.991  0.00  0.00    +0.000 A 
ATOM     25  C   UNL     1       7.648   4.446  12.340  0.00  0.00    +0.000 A 
ATOM     26  C   UNL     1       7.542   5.169  13.529  0.00  0.00    +0.000 A 
ENDBRANCH  18  21
ENDBRANCH   4  18
TORSDOF 4
ENDMDL
