MODEL 1
REMARK VINA RESULT:      -7.2      0.000      0.000
REMARK  Name = 
REMARK  7 active torsions:
REMARK  status: ('A' for Active; 'I' for Inactive)
REMARK    1  A    between atoms: C_1  and  C_2
REMARK    2  A    between atoms: C_2  and  O_3
REMARK    3  A    between atoms: O_3  and  C_4
REMARK    4  A    between atoms: C_16  and  C_17
REMARK    5  A    between atoms: C_20  and  O_21
REMARK    6  A    between atoms: O_21  and  C_22
REMARK    7  A    between atoms: C_28  and  C_29
REMARK                            x       y       z     vdW  Elec       q    Type
REMARK                         _______ _______ _______ _____ _____    ______ ____
ROOT
ATOM      1  C   UNL     1      -3.156  15.343  21.909  0.00  0.00    +0.000 A 
ATOM      2  C   UNL     1      -2.829  15.273  20.555  0.00  0.00    +0.000 A 
ATOM      3  C   UNL     1      -2.063  14.221  20.071  0.00  0.00    +0.000 A 
ATOM      4  C   UNL     1      -1.595  13.229  20.942  0.00  0.00    +0.000 A 
ATOM      5  C   UNL     1      -1.937  13.270  22.290  0.00  0.00    +0.000 A 
ATOM      6  C   UNL     1      -2.718  14.329  22.775  0.00  0.00    +0.000 A 
ATOM      7  O   UNL     1      -1.509  12.311  23.181  0.00  0.00    +0.000 OA
ATOM      8  C   UNL     1      -0.782  11.204  22.728  0.00  0.00    +0.000 A 
ATOM      9  N   UNL     1      -0.454  10.268  23.710  0.00  0.00    +0.000 NA
ATOM     10  C   UNL     1       0.269   9.235  23.370  0.00  0.00    +0.000 A 
ATOM     11  N   UNL     1       0.667   9.057  22.059  0.00  0.00    +0.000 N 
ATOM     12  N   UNL     1       1.418   8.037  21.602  0.00  0.00    +0.000 NA
ATOM     13  C   UNL     1       1.511   8.342  20.290  0.00  0.00    +0.000 A 
ATOM     14  N   UNL     1       0.826   9.486  19.932  0.00  0.00    +0.000 NA
ATOM     15  C   UNL     1       0.338   9.922  21.068  0.00  0.00    +0.000 A 
ATOM     16  C   UNL     1      -0.390  11.084  21.432  0.00  0.00    +0.000 A 
ATOM     17  C   UNL     1      -0.665  12.169  20.423  0.00  0.00    +0.000 C 
ENDROOT
BRANCH  17  18
ATOM     18  C   UNL     1       0.643  12.793  19.929  0.00  0.00    +0.000 A 
ATOM     19  C   UNL     1       0.980  12.726  18.568  0.00  0.00    +0.000 A 
ATOM     20  C   UNL     1       2.173  13.286  18.111  0.00  0.00    +0.000 A 
ATOM     21  C   UNL     1       3.038  13.907  19.008  0.00  0.00    +0.000 A 
ATOM     22 CL   UNL     1       4.515  14.583  18.442  0.00  0.00    +0.000 Cl
ATOM     23  C   UNL     1       2.718  13.986  20.361  0.00  0.00    +0.000 A 
ATOM     24  C   UNL     1       1.523  13.434  20.820  0.00  0.00    +0.000 A 
ENDBRANCH  17  18
BRANCH  13  25
ATOM     25  C   UNL     1       2.279   7.594  19.298  0.00  0.00    +0.000 A 
ATOM     26  C   UNL     1       2.665   6.267  19.524  0.00  0.00    +0.000 A 
ATOM     27  C   UNL     1       3.445   5.587  18.580  0.00  0.00    +0.000 A 
ATOM     28  C   UNL     1       3.838   6.208  17.392  0.00  0.00    +0.000 A 
ATOM     29  C   UNL     1       3.451   7.525  17.154  0.00  0.00    +0.000 A 
ATOM     30  C   UNL     1       2.680   8.211  18.102  0.00  0.00    +0.000 A 
BRANCH  28  31
ATOM     31  O   UNL     1       4.646   5.458  16.584  0.00  0.00    +0.000 OA
ATOM     32  C   UNL     1       5.317   6.148  15.536  0.00  0.00    +0.000 C 
ENDBRANCH  28  31
ENDBRANCH  13  25
BRANCH   1  33
ATOM     33  O   UNL     1      -3.883  16.365  22.474  0.00  0.00    +0.000 OA
BRANCH  33  35
ATOM     34  C   UNL     1      -5.979  16.240  23.670  0.00  0.00    +0.000 C 
ATOM     35  C   UNL     1      -4.476  16.066  23.743  0.00  0.00    +0.000 C 
ENDBRANCH  33  35
ENDBRANCH   1  33
TORSDOF 5
ENDMDL
MODEL 2
REMARK VINA RESULT:      -7.2      2.804      8.956
REMARK  Name = 
REMARK  7 active torsions:
REMARK  status: ('A' for Active; 'I' for Inactive)
REMARK    1  A    between atoms: C_1  and  C_2
REMARK    2  A    between atoms: C_2  and  O_3
REMARK    3  A    between atoms: O_3  and  C_4
REMARK    4  A    between atoms: C_16  and  C_17
REMARK    5  A    between atoms: C_20  and  O_21
REMARK    6  A    between atoms: O_21  and  C_22
REMARK    7  A    between atoms: C_28  and  C_29
REMARK                            x       y       z     vdW  Elec       q    Type
REMARK                         _______ _______ _______ _____ _____    ______ ____
ROOT
ATOM      1  C   UNL     1       2.772   7.129  18.384  0.00  0.00    +0.000 A 
ATOM      2  C   UNL     1       2.654   8.219  17.520  0.00  0.00    +0.000 A 
ATOM      3  C   UNL     1       1.951   9.351  17.910  0.00  0.00    +0.000 A 
ATOM      4  C   UNL     1       1.337   9.403  19.167  0.00  0.00    +0.000 A 
ATOM      5  C   UNL     1       1.470   8.335  20.050  0.00  0.00    +0.000 A 
ATOM      6  C   UNL     1       2.187   7.197  19.658  0.00  0.00    +0.000 A 
ATOM      7  O   UNL     1       0.892   8.346  21.300  0.00  0.00    +0.000 OA
ATOM      8  C   UNL     1       0.222   9.488  21.756  0.00  0.00    +0.000 A 
ATOM      9  N   UNL     1      -0.270   9.406  23.060  0.00  0.00    +0.000 NA
ATOM     10  C   UNL     1      -0.952  10.413  23.533  0.00  0.00    +0.000 A 
ATOM     11  N   UNL     1      -1.149  11.549  22.771  0.00  0.00    +0.000 N 
ATOM     12  N   UNL     1      -1.840  12.639  23.156  0.00  0.00    +0.000 NA
ATOM     13  C   UNL     1      -1.726  13.425  22.065  0.00  0.00    +0.000 A 
ATOM     14  N   UNL     1      -0.972  12.869  21.050  0.00  0.00    +0.000 NA
ATOM     15  C   UNL     1      -0.655  11.684  21.515  0.00  0.00    +0.000 A 
ATOM     16  C   UNL     1       0.030  10.574  20.960  0.00  0.00    +0.000 A 
ATOM     17  C   UNL     1       0.477  10.583  19.521  0.00  0.00    +0.000 C 
ENDROOT
BRANCH  17  18
ATOM     18  C   UNL     1      -0.728  10.675  18.581  0.00  0.00    +0.000 A 
ATOM     19  C   UNL     1      -1.635   9.607  18.501  0.00  0.00    +0.000 A 
ATOM     20  C   UNL     1      -2.732   9.679  17.642  0.00  0.00    +0.000 A 
ATOM     21  C   UNL     1      -2.925  10.811  16.854  0.00  0.00    +0.000 A 
ATOM     22 CL   UNL     1      -4.271  10.889  15.786  0.00  0.00    +0.000 Cl
ATOM     23  C   UNL     1      -2.037  11.881  16.924  0.00  0.00    +0.000 A 
ATOM     24  C   UNL     1      -0.945  11.815  17.788  0.00  0.00    +0.000 A 
ENDBRANCH  17  18
BRANCH  13  25
ATOM     25  C   UNL     1      -2.347  14.737  21.896  0.00  0.00    +0.000 A 
ATOM     26  C   UNL     1      -3.223  15.258  22.857  0.00  0.00    +0.000 A 
ATOM     27  C   UNL     1      -3.846  16.494  22.648  0.00  0.00    +0.000 A 
ATOM     28  C   UNL     1      -3.596  17.239  21.492  0.00  0.00    +0.000 A 
ATOM     29  C   UNL     1      -2.720  16.732  20.535  0.00  0.00    +0.000 A 
ATOM     30  C   UNL     1      -2.104  15.490  20.736  0.00  0.00    +0.000 A 
BRANCH  28  31
ATOM     31  O   UNL     1      -4.313  18.398  21.381  0.00  0.00    +0.000 OA
ATOM     32  C   UNL     1      -5.104  18.547  20.208  0.00  0.00    +0.000 C 
ENDBRANCH  28  31
ENDBRANCH  13  25
BRANCH   1  33
ATOM     33  O   UNL     1       3.423   5.961  18.064  0.00  0.00    +0.000 OA
BRANCH  33  35
ATOM     34  C   UNL     1       1.993   4.061  17.634  0.00  0.00    +0.000 C 
ATOM     35  C   UNL     1       2.869   4.774  18.643  0.00  0.00    +0.000 C 
ENDBRANCH  33  35
ENDBRANCH   1  33
TORSDOF 5
ENDMDL
MODEL 3
REMARK VINA RESULT:      -7.1      0.879      1.311
REMARK  Name = 
REMARK  7 active torsions:
REMARK  status: ('A' for Active; 'I' for Inactive)
REMARK    1  A    between atoms: C_1  and  C_2
REMARK    2  A    between atoms: C_2  and  O_3
REMARK    3  A    between atoms: O_3  and  C_4
REMARK    4  A    between atoms: C_16  and  C_17
REMARK    5  A    between atoms: C_20  and  O_21
REMARK    6  A    between atoms: O_21  and  C_22
REMARK    7  A    between atoms: C_28  and  C_29
REMARK                            x       y       z     vdW  Elec       q    Type
REMARK                         _______ _______ _______ _____ _____    ______ ____
ROOT
ATOM      1  C   UNL     1      -2.883  15.616  21.792  0.00  0.00    +0.000 A 
ATOM      2  C   UNL     1      -2.512  15.542  20.448  0.00  0.00    +0.000 A 
ATOM      3  C   UNL     1      -1.783  14.458  19.980  0.00  0.00    +0.000 A 
ATOM      4  C   UNL     1      -1.396  13.436  20.855  0.00  0.00    +0.000 A 
ATOM      5  C   UNL     1      -1.783  13.481  22.191  0.00  0.00    +0.000 A 
ATOM      6  C   UNL     1      -2.527  14.573  22.660  0.00  0.00    +0.000 A 
ATOM      7  O   UNL     1      -1.435  12.493  23.086  0.00  0.00    +0.000 OA
ATOM      8  C   UNL     1      -0.749  11.356  22.645  0.00  0.00    +0.000 A 
ATOM      9  N   UNL     1      -0.503  10.394  23.628  0.00  0.00    +0.000 NA
ATOM     10  C   UNL     1       0.180   9.331  23.301  0.00  0.00    +0.000 A 
ATOM     11  N   UNL     1       0.615   9.145  22.003  0.00  0.00    +0.000 N 
ATOM     12  N   UNL     1       1.329   8.093  21.560  0.00  0.00    +0.000 NA
ATOM     13  C   UNL     1       1.484   8.406  20.257  0.00  0.00    +0.000 A 
ATOM     14  N   UNL     1       0.870   9.586  19.888  0.00  0.00    +0.000 NA
ATOM     15  C   UNL     1       0.364  10.035  21.011  0.00  0.00    +0.000 A 
ATOM     16  C   UNL     1      -0.317  11.229  21.362  0.00  0.00    +0.000 A 
ATOM     17  C   UNL     1      -0.502  12.336  20.357  0.00  0.00    +0.000 C 
ENDROOT
BRANCH  17  18
ATOM     18  C   UNL     1       0.852  12.898  19.916  0.00  0.00    +0.000 A 
ATOM     19  C   UNL     1       1.713  13.472  20.864  0.00  0.00    +0.000 A 
ATOM     20  C   UNL     1       2.946  13.993  20.470  0.00  0.00    +0.000 A 
ATOM     21  C   UNL     1       3.322  13.951  19.130  0.00  0.00    +0.000 A 
ATOM     22 CL   UNL     1       4.837  14.609  18.647  0.00  0.00    +0.000 Cl
ATOM     23  C   UNL     1       2.482  13.382  18.177  0.00  0.00    +0.000 A 
ATOM     24  C   UNL     1       1.253  12.853  18.569  0.00  0.00    +0.000 A 
ENDBRANCH  17  18
BRANCH  13  25
ATOM     25  C   UNL     1       2.248   7.630  19.283  0.00  0.00    +0.000 A 
ATOM     26  C   UNL     1       2.613   6.301  19.535  0.00  0.00    +0.000 A 
ATOM     27  C   UNL     1       3.390   5.594  18.609  0.00  0.00    +0.000 A 
ATOM     28  C   UNL     1       3.801   6.189  17.413  0.00  0.00    +0.000 A 
ATOM     29  C   UNL     1       3.436   7.507  17.151  0.00  0.00    +0.000 A 
ATOM     30  C   UNL     1       2.668   8.220  18.080  0.00  0.00    +0.000 A 
BRANCH  28  31
ATOM     31  O   UNL     1       4.605   5.413  16.625  0.00  0.00    +0.000 OA
ATOM     32  C   UNL     1       5.680   4.746  17.275  0.00  0.00    +0.000 C 
ENDBRANCH  28  31
ENDBRANCH  13  25
BRANCH   1  33
ATOM     33  O   UNL     1      -3.577  16.667  22.342  0.00  0.00    +0.000 OA
BRANCH  33  35
ATOM     34  C   UNL     1      -1.895  18.277  22.990  0.00  0.00    +0.000 C 
ATOM     35  C   UNL     1      -3.047  17.967  22.057  0.00  0.00    +0.000 C 
ENDBRANCH  33  35
ENDBRANCH   1  33
TORSDOF 5
ENDMDL
MODEL 4
REMARK VINA RESULT:      -7.1      4.536      6.137
REMARK  Name = 
REMARK  7 active torsions:
REMARK  status: ('A' for Active; 'I' for Inactive)
REMARK    1  A    between atoms: C_1  and  C_2
REMARK    2  A    between atoms: C_2  and  O_3
REMARK    3  A    between atoms: O_3  and  C_4
REMARK    4  A    between atoms: C_16  and  C_17
REMARK    5  A    between atoms: C_20  and  O_21
REMARK    6  A    between atoms: O_21  and  C_22
REMARK    7  A    between atoms: C_28  and  C_29
REMARK                            x       y       z     vdW  Elec       q    Type
REMARK                         _______ _______ _______ _____ _____    ______ ____
ROOT
ATOM      1  C   UNL     1      -1.397  15.945  25.721  0.00  0.00    +0.000 A 
ATOM      2  C   UNL     1      -0.390  15.811  24.764  0.00  0.00    +0.000 A 
ATOM      3  C   UNL     1      -0.642  15.155  23.567  0.00  0.00    +0.000 A 
ATOM      4  C   UNL     1      -1.905  14.605  23.315  0.00  0.00    +0.000 A 
ATOM      5  C   UNL     1      -2.927  14.756  24.248  0.00  0.00    +0.000 A 
ATOM      6  C   UNL     1      -2.673  15.426  25.452  0.00  0.00    +0.000 A 
ATOM      7  O   UNL     1      -4.188  14.241  24.039  0.00  0.00    +0.000 OA
ATOM      8  C   UNL     1      -4.502  13.622  22.823  0.00  0.00    +0.000 A 
ATOM      9  N   UNL     1      -5.825  13.193  22.701  0.00  0.00    +0.000 NA
ATOM     10  C   UNL     1      -6.177  12.559  21.616  0.00  0.00    +0.000 A 
ATOM     11  N   UNL     1      -5.267  12.352  20.596  0.00  0.00    +0.000 N 
ATOM     12  N   UNL     1      -5.520  11.707  19.442  0.00  0.00    +0.000 NA
ATOM     13  C   UNL     1      -4.322  11.786  18.825  0.00  0.00    +0.000 A 
ATOM     14  N   UNL     1      -3.367  12.475  19.544  0.00  0.00    +0.000 NA
ATOM     15  C   UNL     1      -3.984  12.786  20.659  0.00  0.00    +0.000 A 
ATOM     16  C   UNL     1      -3.566  13.417  21.858  0.00  0.00    +0.000 A 
ATOM     17  C   UNL     1      -2.123  13.792  22.070  0.00  0.00    +0.000 C 
ENDROOT
BRANCH  17  18
ATOM     18  C   UNL     1      -1.235  12.545  22.078  0.00  0.00    +0.000 A 
ATOM     19  C   UNL     1      -1.500  11.504  22.981  0.00  0.00    +0.000 A 
ATOM     20  C   UNL     1      -0.692  10.366  23.000  0.00  0.00    +0.000 A 
ATOM     21  C   UNL     1       0.387  10.266  22.125  0.00  0.00    +0.000 A 
ATOM     22 CL   UNL     1       1.389   8.868  22.163  0.00  0.00    +0.000 Cl
ATOM     23  C   UNL     1       0.663  11.288  21.221  0.00  0.00    +0.000 A 
ATOM     24  C   UNL     1      -0.148  12.422  21.194  0.00  0.00    +0.000 A 
ENDBRANCH  17  18
BRANCH  13  25
ATOM     25  C   UNL     1      -3.993  11.189  17.533  0.00  0.00    +0.000 A 
ATOM     26  C   UNL     1      -3.002  10.205  17.416  0.00  0.00    +0.000 A 
ATOM     27  C   UNL     1      -2.668   9.685  16.160  0.00  0.00    +0.000 A 
ATOM     28  C   UNL     1      -3.323  10.120  15.004  0.00  0.00    +0.000 A 
ATOM     29  C   UNL     1      -4.315  11.091  15.112  0.00  0.00    +0.000 A 
ATOM     30  C   UNL     1      -4.644  11.622  16.367  0.00  0.00    +0.000 A 
BRANCH  28  31
ATOM     31  O   UNL     1      -2.861   9.579  13.837  0.00  0.00    +0.000 OA
ATOM     32  C   UNL     1      -3.693   9.731  12.693  0.00  0.00    +0.000 C 
ENDBRANCH  28  31
ENDBRANCH  13  25
BRANCH   1  33
ATOM     33  O   UNL     1      -1.222  16.551  26.942  0.00  0.00    +0.000 OA
BRANCH  33  35
ATOM     34  C   UNL     1       0.741  15.824  28.150  0.00  0.00    +0.000 C 
ATOM     35  C   UNL     1       0.130  16.893  27.268  0.00  0.00    +0.000 C 
ENDBRANCH  33  35
ENDBRANCH   1  33
TORSDOF 5
ENDMDL
MODEL 5
REMARK VINA RESULT:      -7.1      4.515      6.092
REMARK  Name = 
REMARK  7 active torsions:
REMARK  status: ('A' for Active; 'I' for Inactive)
REMARK    1  A    between atoms: C_1  and  C_2
REMARK    2  A    between atoms: C_2  and  O_3
REMARK    3  A    between atoms: O_3  and  C_4
REMARK    4  A    between atoms: C_16  and  C_17
REMARK    5  A    between atoms: C_20  and  O_21
REMARK    6  A    between atoms: O_21  and  C_22
REMARK    7  A    between atoms: C_28  and  C_29
REMARK                            x       y       z     vdW  Elec       q    Type
REMARK                         _______ _______ _______ _____ _____    ______ ____
ROOT
ATOM      1  C   UNL     1      -1.520  15.953  25.726  0.00  0.00    +0.000 A 
ATOM      2  C   UNL     1      -0.475  15.816  24.811  0.00  0.00    +0.000 A 
ATOM      3  C   UNL     1      -0.680  15.163  23.603  0.00  0.00    +0.000 A 
ATOM      4  C   UNL     1      -1.933  14.620  23.298  0.00  0.00    +0.000 A 
ATOM      5  C   UNL     1      -2.993  14.773  24.188  0.00  0.00    +0.000 A 
ATOM      6  C   UNL     1      -2.786  15.440  25.403  0.00  0.00    +0.000 A 
ATOM      7  O   UNL     1      -4.246  14.265  23.925  0.00  0.00    +0.000 OA
ATOM      8  C   UNL     1      -4.512  13.649  22.697  0.00  0.00    +0.000 A 
ATOM      9  N   UNL     1      -5.831  13.227  22.519  0.00  0.00    +0.000 NA
ATOM     10  C   UNL     1      -6.140  12.596  21.418  0.00  0.00    +0.000 A 
ATOM     11  N   UNL     1      -5.189  12.387  20.437  0.00  0.00    +0.000 N 
ATOM     12  N   UNL     1      -5.397  11.746  19.271  0.00  0.00    +0.000 NA
ATOM     13  C   UNL     1      -4.174  11.820  18.705  0.00  0.00    +0.000 A 
ATOM     14  N   UNL     1      -3.246  12.503  19.465  0.00  0.00    +0.000 NA
ATOM     15  C   UNL     1      -3.908  12.815  20.554  0.00  0.00    +0.000 A 
ATOM     16  C   UNL     1      -3.538  13.442  21.771  0.00  0.00    +0.000 A 
ATOM     17  C   UNL     1      -2.102  13.810  22.043  0.00  0.00    +0.000 C 
ENDROOT
BRANCH  17  18
ATOM     18  C   UNL     1      -1.222  12.559  22.086  0.00  0.00    +0.000 A 
ATOM     19  C   UNL     1      -0.163  12.417  21.176  0.00  0.00    +0.000 A 
ATOM     20  C   UNL     1       0.641  11.277  21.203  0.00  0.00    +0.000 A 
ATOM     21  C   UNL     1       0.388  10.270  22.131  0.00  0.00    +0.000 A 
ATOM     22 CL   UNL     1       1.372   8.860  22.151  0.00  0.00    +0.000 Cl
ATOM     23  C   UNL     1      -0.656  10.396  23.044  0.00  0.00    +0.000 A 
ATOM     24  C   UNL     1      -1.456  11.537  23.024  0.00  0.00    +0.000 A 
ENDBRANCH  17  18
BRANCH  13  25
ATOM     25  C   UNL     1      -3.793  11.224  17.427  0.00  0.00    +0.000 A 
ATOM     26  C   UNL     1      -4.500  11.507  16.251  0.00  0.00    +0.000 A 
ATOM     27  C   UNL     1      -4.149  10.883  15.048  0.00  0.00    +0.000 A 
ATOM     28  C   UNL     1      -3.081   9.983  14.990  0.00  0.00    +0.000 A 
ATOM     29  C   UNL     1      -2.367   9.702  16.152  0.00  0.00    +0.000 A 
ATOM     30  C   UNL     1      -2.724  10.317  17.360  0.00  0.00    +0.000 A 
BRANCH  28  31
ATOM     31  O   UNL     1      -2.880   9.398  13.771  0.00  0.00    +0.000 OA
ATOM     32  C   UNL     1      -3.783   9.763  12.734  0.00  0.00    +0.000 C 
ENDBRANCH  28  31
ENDBRANCH  13  25
BRANCH   1  33
ATOM     33  O   UNL     1      -1.393  16.556  26.955  0.00  0.00    +0.000 OA
BRANCH  33  35
ATOM     34  C   UNL     1       0.404  17.101  28.476  0.00  0.00    +0.000 C 
ATOM     35  C   UNL     1      -0.223  17.365  27.122  0.00  0.00    +0.000 C 
ENDBRANCH  33  35
ENDBRANCH   1  33
TORSDOF 5
ENDMDL
MODEL 6
REMARK VINA RESULT:      -6.9      2.769      9.037
REMARK  Name = 
REMARK  7 active torsions:
REMARK  status: ('A' for Active; 'I' for Inactive)
REMARK    1  A    between atoms: C_1  and  C_2
REMARK    2  A    between atoms: C_2  and  O_3
REMARK    3  A    between atoms: O_3  and  C_4
REMARK    4  A    between atoms: C_16  and  C_17
REMARK    5  A    between atoms: C_20  and  O_21
REMARK    6  A    between atoms: O_21  and  C_22
REMARK    7  A    between atoms: C_28  and  C_29
REMARK                            x       y       z     vdW  Elec       q    Type
REMARK                         _______ _______ _______ _____ _____    ______ ____
ROOT
ATOM      1  C   UNL     1       2.838   7.154  18.316  0.00  0.00    +0.000 A 
ATOM      2  C   UNL     1       2.699   8.253  17.467  0.00  0.00    +0.000 A 
ATOM      3  C   UNL     1       1.980   9.368  17.874  0.00  0.00    +0.000 A 
ATOM      4  C   UNL     1       1.372   9.395  19.135  0.00  0.00    +0.000 A 
ATOM      5  C   UNL     1       1.526   8.318  20.004  0.00  0.00    +0.000 A 
ATOM      6  C   UNL     1       2.259   7.196  19.593  0.00  0.00    +0.000 A 
ATOM      7  O   UNL     1       0.955   8.304  21.257  0.00  0.00    +0.000 OA
ATOM      8  C   UNL     1       0.270   9.429  21.731  0.00  0.00    +0.000 A 
ATOM      9  N   UNL     1      -0.214   9.323  23.036  0.00  0.00    +0.000 NA
ATOM     10  C   UNL     1      -0.909  10.313  23.526  0.00  0.00    +0.000 A 
ATOM     11  N   UNL     1      -1.128  11.455  22.779  0.00  0.00    +0.000 N 
ATOM     12  N   UNL     1      -1.833  12.529  23.181  0.00  0.00    +0.000 NA
ATOM     13  C   UNL     1      -1.737  13.331  22.100  0.00  0.00    +0.000 A 
ATOM     14  N   UNL     1      -0.981  12.800  21.075  0.00  0.00    +0.000 NA
ATOM     15  C   UNL     1      -0.643  11.615  21.522  0.00  0.00    +0.000 A 
ATOM     16  C   UNL     1       0.057  10.522  20.950  0.00  0.00    +0.000 A 
ATOM     17  C   UNL     1       0.496  10.557  19.509  0.00  0.00    +0.000 C 
ENDROOT
BRANCH  17  18
ATOM     18  C   UNL     1      -0.715  10.641  18.577  0.00  0.00    +0.000 A 
ATOM     19  C   UNL     1      -0.922  11.793  17.801  0.00  0.00    +0.000 A 
ATOM     20  C   UNL     1      -2.027  11.881  16.953  0.00  0.00    +0.000 A 
ATOM     21  C   UNL     1      -2.933  10.827  16.882  0.00  0.00    +0.000 A 
ATOM     22 CL   UNL     1      -4.302  10.947  15.846  0.00  0.00    +0.000 Cl
ATOM     23  C   UNL     1      -2.742   9.676  17.641  0.00  0.00    +0.000 A 
ATOM     24  C   UNL     1      -1.635   9.581  18.483  0.00  0.00    +0.000 A 
ENDBRANCH  17  18
BRANCH  13  25
ATOM     25  C   UNL     1      -2.380  14.635  21.951  0.00  0.00    +0.000 A 
ATOM     26  C   UNL     1      -3.437  15.026  22.783  0.00  0.00    +0.000 A 
ATOM     27  C   UNL     1      -4.071  16.259  22.587  0.00  0.00    +0.000 A 
ATOM     28  C   UNL     1      -3.654  17.129  21.575  0.00  0.00    +0.000 A 
ATOM     29  C   UNL     1      -2.598  16.752  20.749  0.00  0.00    +0.000 A 
ATOM     30  C   UNL     1      -1.970  15.514  20.936  0.00  0.00    +0.000 A 
BRANCH  28  31
ATOM     31  O   UNL     1      -4.394  18.272  21.451  0.00  0.00    +0.000 OA
ATOM     32  C   UNL     1      -5.618  18.162  20.735  0.00  0.00    +0.000 C 
ENDBRANCH  28  31
ENDBRANCH  13  25
BRANCH   1  33
ATOM     33  O   UNL     1       3.505   6.000  17.978  0.00  0.00    +0.000 OA
BRANCH  33  35
ATOM     34  C   UNL     1       5.887   6.240  17.641  0.00  0.00    +0.000 C 
ATOM     35  C   UNL     1       4.525   6.151  16.983  0.00  0.00    +0.000 C 
ENDBRANCH  33  35
ENDBRANCH   1  33
TORSDOF 5
ENDMDL
MODEL 7
REMARK VINA RESULT:      -6.8      0.677      1.338
REMARK  Name = 
REMARK  7 active torsions:
REMARK  status: ('A' for Active; 'I' for Inactive)
REMARK    1  A    between atoms: C_1  and  C_2
REMARK    2  A    between atoms: C_2  and  O_3
REMARK    3  A    between atoms: O_3  and  C_4
REMARK    4  A    between atoms: C_16  and  C_17
REMARK    5  A    between atoms: C_20  and  O_21
REMARK    6  A    between atoms: O_21  and  C_22
REMARK    7  A    between atoms: C_28  and  C_29
REMARK                            x       y       z     vdW  Elec       q    Type
REMARK                         _______ _______ _______ _____ _____    ______ ____
ROOT
ATOM      1  C   UNL     1      -3.280  15.100  21.888  0.00  0.00    +0.000 A 
ATOM      2  C   UNL     1      -2.950  15.037  20.534  0.00  0.00    +0.000 A 
ATOM      3  C   UNL     1      -2.146  14.012  20.054  0.00  0.00    +0.000 A 
ATOM      4  C   UNL     1      -1.644  13.040  20.928  0.00  0.00    +0.000 A 
ATOM      5  C   UNL     1      -1.988  13.074  22.276  0.00  0.00    +0.000 A 
ATOM      6  C   UNL     1      -2.806  14.105  22.757  0.00  0.00    +0.000 A 
ATOM      7  O   UNL     1      -1.526  12.133  23.171  0.00  0.00    +0.000 OA
ATOM      8  C   UNL     1      -0.759  11.051  22.721  0.00  0.00    +0.000 A 
ATOM      9  N   UNL     1      -0.398  10.131  23.707  0.00  0.00    +0.000 NA
ATOM     10  C   UNL     1       0.362   9.124  23.370  0.00  0.00    +0.000 A 
ATOM     11  N   UNL     1       0.767   8.956  22.060  0.00  0.00    +0.000 N 
ATOM     12  N   UNL     1       1.553   7.962  21.606  0.00  0.00    +0.000 NA
ATOM     13  C   UNL     1       1.637   8.266  20.294  0.00  0.00    +0.000 A 
ATOM     14  N   UNL     1       0.911   9.383  19.931  0.00  0.00    +0.000 NA
ATOM     15  C   UNL     1       0.407   9.806  21.066  0.00  0.00    +0.000 A 
ATOM     16  C   UNL     1      -0.362  10.942  21.425  0.00  0.00    +0.000 A 
ATOM     17  C   UNL     1      -0.676  12.012  20.413  0.00  0.00    +0.000 C 
ENDROOT
BRANCH  17  18
ATOM     18  C   UNL     1       0.609  12.681  19.918  0.00  0.00    +0.000 A 
ATOM     19  C   UNL     1       1.441  13.356  20.825  0.00  0.00    +0.000 A 
ATOM     20  C   UNL     1       2.610  13.974  20.381  0.00  0.00    +0.000 A 
ATOM     21  C   UNL     1       2.951  13.930  19.031  0.00  0.00    +0.000 A 
ATOM     22 CL   UNL     1       4.386  14.707  18.487  0.00  0.00    +0.000 Cl
ATOM     23  C   UNL     1       2.139  13.262  18.118  0.00  0.00    +0.000 A 
ATOM     24  C   UNL     1       0.974  12.637  18.560  0.00  0.00    +0.000 A 
ENDBRANCH  17  18
BRANCH  13  25
ATOM     25  C   UNL     1       2.431   7.542  19.304  0.00  0.00    +0.000 A 
ATOM     26  C   UNL     1       2.793   8.134  18.087  0.00  0.00    +0.000 A 
ATOM     27  C   UNL     1       3.510   7.402  17.132  0.00  0.00    +0.000 A 
ATOM     28  C   UNL     1       3.894   6.081  17.379  0.00  0.00    +0.000 A 
ATOM     29  C   UNL     1       3.546   5.489  18.589  0.00  0.00    +0.000 A 
ATOM     30  C   UNL     1       2.819   6.214  19.542  0.00  0.00    +0.000 A 
BRANCH  28  31
ATOM     31  O   UNL     1       4.536   5.460  16.343  0.00  0.00    +0.000 OA
ATOM     32  C   UNL     1       4.882   4.094  16.537  0.00  0.00    +0.000 C 
ENDBRANCH  28  31
ENDBRANCH  13  25
BRANCH   1  33
ATOM     33  O   UNL     1      -4.043  16.096  22.449  0.00  0.00    +0.000 OA
BRANCH  33  35
ATOM     34  C   UNL     1      -6.252  16.834  21.801  0.00  0.00    +0.000 C 
ATOM     35  C   UNL     1      -4.765  16.912  21.519  0.00  0.00    +0.000 C 
ENDBRANCH  33  35
ENDBRANCH   1  33
TORSDOF 5
ENDMDL
MODEL 8
REMARK VINA RESULT:      -6.8      1.037      1.065
REMARK  Name = 
REMARK  7 active torsions:
REMARK  status: ('A' for Active; 'I' for Inactive)
REMARK    1  A    between atoms: C_1  and  C_2
REMARK    2  A    between atoms: C_2  and  O_3
REMARK    3  A    between atoms: O_3  and  C_4
REMARK    4  A    between atoms: C_16  and  C_17
REMARK    5  A    between atoms: C_20  and  O_21
REMARK    6  A    between atoms: O_21  and  C_22
REMARK    7  A    between atoms: C_28  and  C_29
REMARK                            x       y       z     vdW  Elec       q    Type
REMARK                         _______ _______ _______ _____ _____    ______ ____
ROOT
ATOM      1  C   UNL     1      -2.754  16.399  21.688  0.00  0.00    +0.000 A 
ATOM      2  C   UNL     1      -2.231  16.350  20.395  0.00  0.00    +0.000 A 
ATOM      3  C   UNL     1      -1.542  15.227  19.958  0.00  0.00    +0.000 A 
ATOM      4  C   UNL     1      -1.349  14.139  20.818  0.00  0.00    +0.000 A 
ATOM      5  C   UNL     1      -1.889  14.161  22.100  0.00  0.00    +0.000 A 
ATOM      6  C   UNL     1      -2.592  15.293  22.536  0.00  0.00    +0.000 A 
ATOM      7  O   UNL     1      -1.733  13.110  22.977  0.00  0.00    +0.000 OA
ATOM      8  C   UNL     1      -1.094  11.936  22.560  0.00  0.00    +0.000 A 
ATOM      9  N   UNL     1      -1.048  10.916  23.513  0.00  0.00    +0.000 NA
ATOM     10  C   UNL     1      -0.421   9.812  23.213  0.00  0.00    +0.000 A 
ATOM     11  N   UNL     1       0.151   9.644  21.966  0.00  0.00    +0.000 N 
ATOM     12  N   UNL     1       0.825   8.552  21.556  0.00  0.00    +0.000 NA
ATOM     13  C   UNL     1       1.161   8.905  20.297  0.00  0.00    +0.000 A 
ATOM     14  N   UNL     1       0.694  10.149  19.921  0.00  0.00    +0.000 NA
ATOM     15  C   UNL     1       0.096  10.593  21.000  0.00  0.00    +0.000 A 
ATOM     16  C   UNL     1      -0.523  11.826  21.331  0.00  0.00    +0.000 A 
ATOM     17  C   UNL     1      -0.494  12.986  20.370  0.00  0.00    +0.000 C 
ENDROOT
BRANCH  17  18
ATOM     18  C   UNL     1       0.944  13.446  20.120  0.00  0.00    +0.000 A 
ATOM     19  C   UNL     1       1.479  13.397  18.823  0.00  0.00    +0.000 A 
ATOM     20  C   UNL     1       2.791  13.807  18.588  0.00  0.00    +0.000 A 
ATOM     21  C   UNL     1       3.578  14.261  19.643  0.00  0.00    +0.000 A 
ATOM     22 CL   UNL     1       5.200  14.752  19.350  0.00  0.00    +0.000 Cl
ATOM     23  C   UNL     1       3.063  14.319  20.936  0.00  0.00    +0.000 A 
ATOM     24  C   UNL     1       1.749  13.917  21.173  0.00  0.00    +0.000 A 
ENDBRANCH  17  18
BRANCH  13  25
ATOM     25  C   UNL     1       1.970   8.107  19.380  0.00  0.00    +0.000 A 
ATOM     26  C   UNL     1       2.409   6.822  19.724  0.00  0.00    +0.000 A 
ATOM     27  C   UNL     1       3.228   6.097  18.850  0.00  0.00    +0.000 A 
ATOM     28  C   UNL     1       3.607   6.628  17.614  0.00  0.00    +0.000 A 
ATOM     29  C   UNL     1       3.169   7.901  17.259  0.00  0.00    +0.000 A 
ATOM     30  C   UNL     1       2.359   8.633  18.137  0.00  0.00    +0.000 A 
BRANCH  28  31
ATOM     31  O   UNL     1       4.456   5.845  16.881  0.00  0.00    +0.000 OA
ATOM     32  C   UNL     1       5.128   4.806  17.583  0.00  0.00    +0.000 C 
ENDBRANCH  28  31
ENDBRANCH  13  25
BRANCH   1  33
ATOM     33  O   UNL     1      -3.421  17.483  22.208  0.00  0.00    +0.000 OA
BRANCH  33  35
ATOM     34  C   UNL     1      -4.436  18.026  24.333  0.00  0.00    +0.000 C 
ATOM     35  C   UNL     1      -3.145  17.770  23.584  0.00  0.00    +0.000 C 
ENDBRANCH  33  35
ENDBRANCH   1  33
TORSDOF 5
ENDMDL
MODEL 9
REMARK VINA RESULT:      -6.7      1.193      1.730
REMARK  Name = 
REMARK  7 active torsions:
REMARK  status: ('A' for Active; 'I' for Inactive)
REMARK    1  A    between atoms: C_1  and  C_2
REMARK    2  A    between atoms: C_2  and  O_3
REMARK    3  A    between atoms: O_3  and  C_4
REMARK    4  A    between atoms: C_16  and  C_17
REMARK    5  A    between atoms: C_20  and  O_21
REMARK    6  A    between atoms: O_21  and  C_22
REMARK    7  A    between atoms: C_28  and  C_29
REMARK                            x       y       z     vdW  Elec       q    Type
REMARK                         _______ _______ _______ _____ _____    ______ ____
ROOT
ATOM      1  C   UNL     1      -2.606  16.774  21.378  0.00  0.00    +0.000 A 
ATOM      2  C   UNL     1      -1.983  16.686  20.132  0.00  0.00    +0.000 A 
ATOM      3  C   UNL     1      -1.313  15.528  19.763  0.00  0.00    +0.000 A 
ATOM      4  C   UNL     1      -1.239  14.443  20.645  0.00  0.00    +0.000 A 
ATOM      5  C   UNL     1      -1.879  14.506  21.879  0.00  0.00    +0.000 A 
ATOM      6  C   UNL     1      -2.563  15.673  22.247  0.00  0.00    +0.000 A 
ATOM      7  O   UNL     1      -1.843  13.459  22.774  0.00  0.00    +0.000 OA
ATOM      8  C   UNL     1      -1.227  12.253  22.422  0.00  0.00    +0.000 A 
ATOM      9  N   UNL     1      -1.304  11.244  23.384  0.00  0.00    +0.000 NA
ATOM     10  C   UNL     1      -0.705  10.109  23.146  0.00  0.00    +0.000 A 
ATOM     11  N   UNL     1      -0.043   9.900  21.951  0.00  0.00    +0.000 N 
ATOM     12  N   UNL     1       0.611   8.775  21.606  0.00  0.00    +0.000 NA
ATOM     13  C   UNL     1       1.063   9.096  20.375  0.00  0.00    +0.000 A 
ATOM     14  N   UNL     1       0.685  10.355  19.952  0.00  0.00    +0.000 NA
ATOM     15  C   UNL     1       0.023  10.839  20.975  0.00  0.00    +0.000 A 
ATOM     16  C   UNL     1      -0.564  12.102  21.244  0.00  0.00    +0.000 A 
ATOM     17  C   UNL     1      -0.405  13.248  20.278  0.00  0.00    +0.000 C 
ENDROOT
BRANCH  17  18
ATOM     18  C   UNL     1       1.068  13.639  20.142  0.00  0.00    +0.000 A 
ATOM     19  C   UNL     1       1.781  14.086  21.265  0.00  0.00    +0.000 A 
ATOM     20  C   UNL     1       3.122  14.452  21.148  0.00  0.00    +0.000 A 
ATOM     21  C   UNL     1       3.756  14.381  19.911  0.00  0.00    +0.000 A 
ATOM     22 CL   UNL     1       5.406  14.848  19.769  0.00  0.00    +0.000 Cl
ATOM     23  C   UNL     1       3.066  13.937  18.786  0.00  0.00    +0.000 A 
ATOM     24  C   UNL     1       1.728  13.564  18.902  0.00  0.00    +0.000 A 
ENDBRANCH  17  18
BRANCH  13  25
ATOM     25  C   UNL     1       1.907   8.251  19.533  0.00  0.00    +0.000 A 
ATOM     26  C   UNL     1       2.326   8.673  18.265  0.00  0.00    +0.000 A 
ATOM     27  C   UNL     1       3.091   7.824  17.456  0.00  0.00    +0.000 A 
ATOM     28  C   UNL     1       3.465   6.553  17.900  0.00  0.00    +0.000 A 
ATOM     29  C   UNL     1       3.061   6.129  19.163  0.00  0.00    +0.000 A 
ATOM     30  C   UNL     1       2.285   6.972  19.970  0.00  0.00    +0.000 A 
BRANCH  28  31
ATOM     31  O   UNL     1       4.159   5.802  16.992  0.00  0.00    +0.000 OA
ATOM     32  C   UNL     1       4.814   4.643  17.493  0.00  0.00    +0.000 C 
ENDBRANCH  28  31
ENDBRANCH  13  25
BRANCH   1  33
ATOM     33  O   UNL     1      -3.262  17.893  21.833  0.00  0.00    +0.000 OA
BRANCH  33  35
ATOM     34  C   UNL     1      -5.082  18.028  23.418  0.00  0.00    +0.000 C 
ATOM     35  C   UNL     1      -3.585  17.890  23.228  0.00  0.00    +0.000 C 
ENDBRANCH  33  35
ENDBRANCH   1  33
TORSDOF 5
ENDMDL
