MODEL 1
REMARK VINA RESULT:      -7.9      0.000      0.000
REMARK  Name = 
REMARK  2 active torsions:
REMARK  status: ('A' for Active; 'I' for Inactive)
REMARK    1  A    between atoms: C_1  and  C_2
REMARK    2  A    between atoms: C_8  and  C_9
REMARK                            x       y       z     vdW  Elec       q    Type
REMARK                         _______ _______ _______ _____ _____    ______ ____
ROOT
ATOM      1  C   UNL     1       4.930   2.742  11.527  0.00  0.00    +0.000 C 
ATOM      2  C   UNL     1       5.734   3.562  12.494  0.00  0.00    +0.000 A 
ATOM      3  C   UNL     1       7.020   4.010  12.188  0.00  0.00    +0.000 A 
ATOM      4  C   UNL     1       7.764   4.781  13.092  0.00  0.00    +0.000 A 
ATOM      5  C   UNL     1       7.167   5.078  14.323  0.00  0.00    +0.000 A 
ATOM      6  N   UNL     1       7.602   5.793  15.402  0.00  0.00    +0.000 N 
ATOM      7  N   UNL     1       6.721   5.865  16.413  0.00  0.00    +0.000 NA
ATOM      8  C   UNL     1       5.673   5.137  15.992  0.00  0.00    +0.000 A 
ATOM      9  C   UNL     1       5.896   4.642  14.668  0.00  0.00    +0.000 A 
ATOM     10  C   UNL     1       5.164   3.883  13.734  0.00  0.00    +0.000 A 
ATOM     11  H   UNL     1       8.493   6.264  15.511  0.00  0.00    +0.000 HD
ENDROOT
BRANCH   8  12
ATOM     12  C   UNL     1       4.500   4.922  16.843  0.00  0.00    +0.000 A 
ATOM     13  C   UNL     1       3.860   6.007  17.459  0.00  0.00    +0.000 A 
ATOM     14  C   UNL     1       2.749   5.800  18.278  0.00  0.00    +0.000 A 
ATOM     15  C   UNL     1       2.275   4.505  18.477  0.00  0.00    +0.000 A 
ATOM     16  F   UNL     1       1.216   4.308  19.271  0.00  0.00    +0.000 F 
ATOM     17  C   UNL     1       2.889   3.420  17.876  0.00  0.00    +0.000 A 
ATOM     18  C   UNL     1       4.007   3.626  17.067  0.00  0.00    +0.000 A 
ENDBRANCH   8  12
TORSDOF 1
ENDMDL
MODEL 2
REMARK VINA RESULT:      -7.9      0.144      1.181
REMARK  Name = 
REMARK  2 active torsions:
REMARK  status: ('A' for Active; 'I' for Inactive)
REMARK    1  A    between atoms: C_1  and  C_2
REMARK    2  A    between atoms: C_8  and  C_9
REMARK                            x       y       z     vdW  Elec       q    Type
REMARK                         _______ _______ _______ _____ _____    ______ ____
ROOT
ATOM      1  C   UNL     1       4.966   2.817  11.509  0.00  0.00    +0.000 C 
ATOM      2  C   UNL     1       5.741   3.619  12.515  0.00  0.00    +0.000 A 
ATOM      3  C   UNL     1       7.029   4.086  12.250  0.00  0.00    +0.000 A 
ATOM      4  C   UNL     1       7.746   4.839  13.190  0.00  0.00    +0.000 A 
ATOM      5  C   UNL     1       7.119   5.099  14.414  0.00  0.00    +0.000 A 
ATOM      6  N   UNL     1       7.524   5.789  15.521  0.00  0.00    +0.000 N 
ATOM      7  N   UNL     1       6.621   5.826  16.514  0.00  0.00    +0.000 NA
ATOM      8  C   UNL     1       5.589   5.100  16.051  0.00  0.00    +0.000 A 
ATOM      9  C   UNL     1       5.845   4.642  14.720  0.00  0.00    +0.000 A 
ATOM     10  C   UNL     1       5.141   3.901  13.750  0.00  0.00    +0.000 A 
ATOM     11  H   UNL     1       8.408   6.265  15.662  0.00  0.00    +0.000 HD
ENDROOT
BRANCH   8  12
ATOM     12  C   UNL     1       4.400   4.852  16.870  0.00  0.00    +0.000 A 
ATOM     13  C   UNL     1       3.937   3.545  17.076  0.00  0.00    +0.000 A 
ATOM     14  C   UNL     1       2.797   3.311  17.847  0.00  0.00    +0.000 A 
ATOM     15  C   UNL     1       2.123   4.389  18.417  0.00  0.00    +0.000 A 
ATOM     16  F   UNL     1       1.024   4.164  19.147  0.00  0.00    +0.000 F 
ATOM     17  C   UNL     1       2.563   5.687  18.230  0.00  0.00    +0.000 A 
ATOM     18  C   UNL     1       3.695   5.921  17.449  0.00  0.00    +0.000 A 
ENDBRANCH   8  12
TORSDOF 1
ENDMDL
MODEL 3
REMARK VINA RESULT:      -7.6      1.155      1.561
REMARK  Name = 
REMARK  2 active torsions:
REMARK  status: ('A' for Active; 'I' for Inactive)
REMARK    1  A    between atoms: C_1  and  C_2
REMARK    2  A    between atoms: C_8  and  C_9
REMARK                            x       y       z     vdW  Elec       q    Type
REMARK                         _______ _______ _______ _____ _____    ______ ____
ROOT
ATOM      1  C   UNL     1       5.608   3.231  12.104  0.00  0.00    +0.000 C 
ATOM      2  C   UNL     1       6.029   3.906  13.378  0.00  0.00    +0.000 A 
ATOM      3  C   UNL     1       7.230   4.610  13.477  0.00  0.00    +0.000 A 
ATOM      4  C   UNL     1       7.615   5.243  14.667  0.00  0.00    +0.000 A 
ATOM      5  C   UNL     1       6.746   5.135  15.759  0.00  0.00    +0.000 A 
ATOM      6  N   UNL     1       6.813   5.625  17.033  0.00  0.00    +0.000 N 
ATOM      7  N   UNL     1       5.761   5.309  17.805  0.00  0.00    +0.000 NA
ATOM      8  C   UNL     1       4.983   4.552  17.012  0.00  0.00    +0.000 A 
ATOM      9  C   UNL     1       5.550   4.435  15.704  0.00  0.00    +0.000 A 
ATOM     10  C   UNL     1       5.180   3.822  14.491  0.00  0.00    +0.000 A 
ATOM     11  H   UNL     1       7.552   6.188  17.439  0.00  0.00    +0.000 HD
ENDROOT
BRANCH   8  12
ATOM     12  C   UNL     1       3.739   3.956  17.505  0.00  0.00    +0.000 A 
ATOM     13  C   UNL     1       2.619   4.760  17.764  0.00  0.00    +0.000 A 
ATOM     14  C   UNL     1       1.437   4.193  18.245  0.00  0.00    +0.000 A 
ATOM     15  C   UNL     1       1.376   2.818  18.462  0.00  0.00    +0.000 A 
ATOM     16  F   UNL     1       0.246   2.277  18.933  0.00  0.00    +0.000 F 
ATOM     17  C   UNL     1       2.468   2.005  18.211  0.00  0.00    +0.000 A 
ATOM     18  C   UNL     1       3.652   2.574  17.742  0.00  0.00    +0.000 A 
ENDBRANCH   8  12
TORSDOF 1
ENDMDL
MODEL 4
REMARK VINA RESULT:      -7.5      3.780      5.482
REMARK  Name = 
REMARK  2 active torsions:
REMARK  status: ('A' for Active; 'I' for Inactive)
REMARK    1  A    between atoms: C_1  and  C_2
REMARK    2  A    between atoms: C_8  and  C_9
REMARK                            x       y       z     vdW  Elec       q    Type
REMARK                         _______ _______ _______ _____ _____    ______ ____
ROOT
ATOM      1  C   UNL     1       0.725   2.255  18.843  0.00  0.00    +0.000 C 
ATOM      2  C   UNL     1       1.842   3.120  18.334  0.00  0.00    +0.000 A 
ATOM      3  C   UNL     1       2.958   2.580  17.693  0.00  0.00    +0.000 A 
ATOM      4  C   UNL     1       3.995   3.393  17.215  0.00  0.00    +0.000 A 
ATOM      5  C   UNL     1       3.870   4.773  17.413  0.00  0.00    +0.000 A 
ATOM      6  N   UNL     1       4.676   5.822  17.074  0.00  0.00    +0.000 N 
ATOM      7  N   UNL     1       4.202   7.026  17.435  0.00  0.00    +0.000 NA
ATOM      8  C   UNL     1       3.047   6.752  18.067  0.00  0.00    +0.000 A 
ATOM      9  C   UNL     1       2.782   5.347  18.055  0.00  0.00    +0.000 A 
ATOM     10  C   UNL     1       1.747   4.507  18.512  0.00  0.00    +0.000 A 
ATOM     11  H   UNL     1       5.566   5.786  16.590  0.00  0.00    +0.000 HD
ENDROOT
BRANCH   8  12
ATOM     12  C   UNL     1       2.234   7.812  18.666  0.00  0.00    +0.000 A 
ATOM     13  C   UNL     1       1.791   8.894  17.891  0.00  0.00    +0.000 A 
ATOM     14  C   UNL     1       1.025   9.910  18.465  0.00  0.00    +0.000 A 
ATOM     15  C   UNL     1       0.697   9.839  19.818  0.00  0.00    +0.000 A 
ATOM     16  F   UNL     1      -0.028  10.819  20.370  0.00  0.00    +0.000 F 
ATOM     17  C   UNL     1       1.120   8.779  20.601  0.00  0.00    +0.000 A 
ATOM     18  C   UNL     1       1.896   7.771  20.029  0.00  0.00    +0.000 A 
ENDBRANCH   8  12
TORSDOF 1
ENDMDL
MODEL 5
REMARK VINA RESULT:      -7.5      3.752      5.494
REMARK  Name = 
REMARK  2 active torsions:
REMARK  status: ('A' for Active; 'I' for Inactive)
REMARK    1  A    between atoms: C_1  and  C_2
REMARK    2  A    between atoms: C_8  and  C_9
REMARK                            x       y       z     vdW  Elec       q    Type
REMARK                         _______ _______ _______ _____ _____    ______ ____
ROOT
ATOM      1  C   UNL     1       0.726   2.266  18.768  0.00  0.00    +0.000 C 
ATOM      2  C   UNL     1       1.848   3.134  18.276  0.00  0.00    +0.000 A 
ATOM      3  C   UNL     1       2.969   2.598  17.639  0.00  0.00    +0.000 A 
ATOM      4  C   UNL     1       4.011   3.413  17.176  0.00  0.00    +0.000 A 
ATOM      5  C   UNL     1       3.886   4.792  17.385  0.00  0.00    +0.000 A 
ATOM      6  N   UNL     1       4.697   5.843  17.062  0.00  0.00    +0.000 N 
ATOM      7  N   UNL     1       4.221   7.044  17.429  0.00  0.00    +0.000 NA
ATOM      8  C   UNL     1       3.062   6.767  18.049  0.00  0.00    +0.000 A 
ATOM      9  C   UNL     1       2.794   5.362  18.023  0.00  0.00    +0.000 A 
ATOM     10  C   UNL     1       1.754   4.520  18.464  0.00  0.00    +0.000 A 
ATOM     11  H   UNL     1       5.591   5.809  16.585  0.00  0.00    +0.000 HD
ENDROOT
BRANCH   8  12
ATOM     12  C   UNL     1       2.245   7.823  18.651  0.00  0.00    +0.000 A 
ATOM     13  C   UNL     1       1.924   7.785  20.016  0.00  0.00    +0.000 A 
ATOM     14  C   UNL     1       1.136   8.786  20.586  0.00  0.00    +0.000 A 
ATOM     15  C   UNL     1       0.672   9.830  19.788  0.00  0.00    +0.000 A 
ATOM     16  F   UNL     1      -0.092  10.784  20.334  0.00  0.00    +0.000 F 
ATOM     17  C   UNL     1       0.979   9.891  18.440  0.00  0.00    +0.000 A 
ATOM     18  C   UNL     1       1.757   8.883  17.868  0.00  0.00    +0.000 A 
ENDBRANCH   8  12
TORSDOF 1
ENDMDL
MODEL 6
REMARK VINA RESULT:      -7.5      1.158      1.914
REMARK  Name = 
REMARK  2 active torsions:
REMARK  status: ('A' for Active; 'I' for Inactive)
REMARK    1  A    between atoms: C_1  and  C_2
REMARK    2  A    between atoms: C_8  and  C_9
REMARK                            x       y       z     vdW  Elec       q    Type
REMARK                         _______ _______ _______ _____ _____    ______ ____
ROOT
ATOM      1  C   UNL     1       5.725   3.153  12.133  0.00  0.00    +0.000 C 
ATOM      2  C   UNL     1       6.102   3.887  13.388  0.00  0.00    +0.000 A 
ATOM      3  C   UNL     1       7.275   4.638  13.477  0.00  0.00    +0.000 A 
ATOM      4  C   UNL     1       7.620   5.327  14.648  0.00  0.00    +0.000 A 
ATOM      5  C   UNL     1       6.741   5.224  15.733  0.00  0.00    +0.000 A 
ATOM      6  N   UNL     1       6.772   5.759  16.989  0.00  0.00    +0.000 N 
ATOM      7  N   UNL     1       5.722   5.432  17.759  0.00  0.00    +0.000 NA
ATOM      8  C   UNL     1       4.984   4.618  16.984  0.00  0.00    +0.000 A 
ATOM      9  C   UNL     1       5.572   4.478  15.688  0.00  0.00    +0.000 A 
ATOM     10  C   UNL     1       5.242   3.810  14.492  0.00  0.00    +0.000 A 
ATOM     11  H   UNL     1       7.484   6.364  17.385  0.00  0.00    +0.000 HD
ENDROOT
BRANCH   8  12
ATOM     12  C   UNL     1       3.756   3.994  17.482  0.00  0.00    +0.000 A 
ATOM     13  C   UNL     1       3.700   2.610  17.703  0.00  0.00    +0.000 A 
ATOM     14  C   UNL     1       2.526   2.015  18.168  0.00  0.00    +0.000 A 
ATOM     15  C   UNL     1       1.407   2.808  18.416  0.00  0.00    +0.000 A 
ATOM     16  F   UNL     1       0.279   2.234  18.851  0.00  0.00    +0.000 F 
ATOM     17  C   UNL     1       1.440   4.176  18.208  0.00  0.00    +0.000 A 
ATOM     18  C   UNL     1       2.610   4.769  17.733  0.00  0.00    +0.000 A 
ENDBRANCH   8  12
TORSDOF 1
ENDMDL
MODEL 7
REMARK VINA RESULT:      -7.4      1.127      1.210
REMARK  Name = 
REMARK  2 active torsions:
REMARK  status: ('A' for Active; 'I' for Inactive)
REMARK    1  A    between atoms: C_1  and  C_2
REMARK    2  A    between atoms: C_8  and  C_9
REMARK                            x       y       z     vdW  Elec       q    Type
REMARK                         _______ _______ _______ _____ _____    ______ ____
ROOT
ATOM      1  C   UNL     1       5.156   2.731  11.586  0.00  0.00    +0.000 C 
ATOM      2  C   UNL     1       5.885   3.570  12.596  0.00  0.00    +0.000 A 
ATOM      3  C   UNL     1       7.026   4.301  12.260  0.00  0.00    +0.000 A 
ATOM      4  C   UNL     1       7.699   5.088  13.205  0.00  0.00    +0.000 A 
ATOM      5  C   UNL     1       7.184   5.106  14.507  0.00  0.00    +0.000 A 
ATOM      6  N   UNL     1       7.584   5.756  15.639  0.00  0.00    +0.000 N 
ATOM      7  N   UNL     1       6.813   5.524  16.714  0.00  0.00    +0.000 NA
ATOM      8  C   UNL     1       5.883   4.659  16.275  0.00  0.00    +0.000 A 
ATOM      9  C   UNL     1       6.060   4.385  14.882  0.00  0.00    +0.000 A 
ATOM     10  C   UNL     1       5.394   3.616  13.908  0.00  0.00    +0.000 A 
ATOM     11  H   UNL     1       8.377   6.378  15.746  0.00  0.00    +0.000 HD
ENDROOT
BRANCH   8  12
ATOM     12  C   UNL     1       4.864   4.111  17.173  0.00  0.00    +0.000 A 
ATOM     13  C   UNL     1       5.116   3.992  18.547  0.00  0.00    +0.000 A 
ATOM     14  C   UNL     1       4.148   3.459  19.400  0.00  0.00    +0.000 A 
ATOM     15  C   UNL     1       2.924   3.050  18.877  0.00  0.00    +0.000 A 
ATOM     16  F   UNL     1       2.000   2.529  19.694  0.00  0.00    +0.000 F 
ATOM     17  C   UNL     1       2.651   3.160  17.524  0.00  0.00    +0.000 A 
ATOM     18  C   UNL     1       3.624   3.681  16.670  0.00  0.00    +0.000 A 
ENDBRANCH   8  12
TORSDOF 1
ENDMDL
MODEL 8
REMARK VINA RESULT:      -7.4      1.756      2.544
REMARK  Name = 
REMARK  2 active torsions:
REMARK  status: ('A' for Active; 'I' for Inactive)
REMARK    1  A    between atoms: C_1  and  C_2
REMARK    2  A    between atoms: C_8  and  C_9
REMARK                            x       y       z     vdW  Elec       q    Type
REMARK                         _______ _______ _______ _____ _____    ______ ____
ROOT
ATOM      1  C   UNL     1       5.212   3.998  13.265  0.00  0.00    +0.000 C 
ATOM      2  C   UNL     1       5.791   4.243  14.629  0.00  0.00    +0.000 A 
ATOM      3  C   UNL     1       7.123   4.621  14.807  0.00  0.00    +0.000 A 
ATOM      4  C   UNL     1       7.657   4.854  16.081  0.00  0.00    +0.000 A 
ATOM      5  C   UNL     1       6.799   4.685  17.175  0.00  0.00    +0.000 A 
ATOM      6  N   UNL     1       6.991   4.832  18.519  0.00  0.00    +0.000 N 
ATOM      7  N   UNL     1       5.903   4.584  19.266  0.00  0.00    +0.000 NA
ATOM      8  C   UNL     1       4.964   4.225  18.375  0.00  0.00    +0.000 A 
ATOM      9  C   UNL     1       5.473   4.299  17.040  0.00  0.00    +0.000 A 
ATOM     10  C   UNL     1       4.959   4.087  15.746  0.00  0.00    +0.000 A 
ATOM     11  H   UNL     1       7.844   5.106  18.994  0.00  0.00    +0.000 HD
ENDROOT
BRANCH   8  12
ATOM     12  C   UNL     1       3.622   3.819  18.800  0.00  0.00    +0.000 A 
ATOM     13  C   UNL     1       2.805   4.704  19.519  0.00  0.00    +0.000 A 
ATOM     14  C   UNL     1       1.531   4.312  19.933  0.00  0.00    +0.000 A 
ATOM     15  C   UNL     1       1.072   3.034  19.622  0.00  0.00    +0.000 A 
ATOM     16  F   UNL     1      -0.146   2.656  20.029  0.00  0.00    +0.000 F 
ATOM     17  C   UNL     1       1.859   2.146  18.910  0.00  0.00    +0.000 A 
ATOM     18  C   UNL     1       3.137   2.533  18.507  0.00  0.00    +0.000 A 
ENDBRANCH   8  12
TORSDOF 1
ENDMDL
MODEL 9
REMARK VINA RESULT:      -7.4      1.081      1.311
REMARK  Name = 
REMARK  2 active torsions:
REMARK  status: ('A' for Active; 'I' for Inactive)
REMARK    1  A    between atoms: C_1  and  C_2
REMARK    2  A    between atoms: C_8  and  C_9
REMARK                            x       y       z     vdW  Elec       q    Type
REMARK                         _______ _______ _______ _____ _____    ______ ____
ROOT
ATOM      1  C   UNL     1       5.220   2.458  11.518  0.00  0.00    +0.000 C 
ATOM      2  C   UNL     1       5.973   3.400  12.412  0.00  0.00    +0.000 A 
ATOM      3  C   UNL     1       7.069   4.133  11.954  0.00  0.00    +0.000 A 
ATOM      4  C   UNL     1       7.765   5.016  12.791  0.00  0.00    +0.000 A 
ATOM      5  C   UNL     1       7.320   5.129  14.114  0.00  0.00    +0.000 A 
ATOM      6  N   UNL     1       7.758   5.884  15.165  0.00  0.00    +0.000 N 
ATOM      7  N   UNL     1       7.053   5.722  16.296  0.00  0.00    +0.000 NA
ATOM      8  C   UNL     1       6.131   4.795  15.983  0.00  0.00    +0.000 A 
ATOM      9  C   UNL     1       6.242   4.410  14.610  0.00  0.00    +0.000 A 
ATOM     10  C   UNL     1       5.551   3.542  13.742  0.00  0.00    +0.000 A 
ATOM     11  H   UNL     1       8.533   6.536  15.175  0.00  0.00    +0.000 HD
ENDROOT
BRANCH   8  12
ATOM     12  C   UNL     1       5.180   4.295  16.979  0.00  0.00    +0.000 A 
ATOM     13  C   UNL     1       3.872   3.954  16.606  0.00  0.00    +0.000 A 
ATOM     14  C   UNL     1       2.963   3.488  17.558  0.00  0.00    +0.000 A 
ATOM     15  C   UNL     1       3.367   3.360  18.885  0.00  0.00    +0.000 A 
ATOM     16  F   UNL     1       2.492   2.923  19.799  0.00  0.00    +0.000 F 
ATOM     17  C   UNL     1       4.654   3.687  19.276  0.00  0.00    +0.000 A 
ATOM     18  C   UNL     1       5.558   4.164  18.326  0.00  0.00    +0.000 A 
ENDBRANCH   8  12
TORSDOF 1
ENDMDL
