MODEL 1
REMARK VINA RESULT:      -9.2      0.000      0.000
REMARK  Name = 
REMARK  8 active torsions:
REMARK  status: ('A' for Active; 'I' for Inactive)
REMARK    1  A    between atoms: C_1  and  C_2
REMARK    2  A    between atoms: C_2  and  C_3
REMARK    3  A    between atoms: C_3  and  C_4
REMARK    4  A    between atoms: C_4  and  C_5
REMARK    5  A    between atoms: C_5  and  O_7
REMARK    6  A    between atoms: C_10  and  C_11
REMARK    7  A    between atoms: C_11  and  C_12
REMARK    8  A    between atoms: C_12  and  C_13
REMARK                            x       y       z     vdW  Elec       q    Type
REMARK                         _______ _______ _______ _____ _____    ______ ____
ROOT
ATOM      1  C   UNL     1       5.760   5.102  16.627  0.00  0.00    +0.000 C 
ATOM      2  O   UNL     1       5.948   6.504  16.972  0.00  0.00    +0.000 OA
ATOM      3  C   UNL     1       4.776   7.330  16.985  0.00  0.00    +0.000 C 
ATOM      4  C   UNL     1       3.672   6.899  18.001  0.00  0.00    +0.000 C 
ATOM      5  C   UNL     1       3.671   5.395  18.142  0.00  0.00    +0.000 A 
ATOM      6  C   UNL     1       4.610   4.627  17.484  0.00  0.00    +0.000 A 
ATOM      7  N   UNL     1       4.336   3.310  17.735  0.00  0.00    +0.000 N 
ATOM      8  C   UNL     1       3.244   3.198  18.571  0.00  0.00    +0.000 A 
ATOM      9  C   UNL     1       2.586   2.060  19.047  0.00  0.00    +0.000 A 
ATOM     10  C   UNL     1       1.453   2.230  19.840  0.00  0.00    +0.000 A 
ATOM     11  C   UNL     1       1.043   3.496  20.224  0.00  0.00    +0.000 A 
ATOM     12  C   UNL     1       1.792   4.611  19.842  0.00  0.00    +0.000 A 
ATOM     13  C   UNL     1       2.856   4.497  18.917  0.00  0.00    +0.000 A 
ATOM     14  H   UNL     1       4.825   2.525  17.326  0.00  0.00    +0.000 HD
ENDROOT
BRANCH   1  16
ATOM     15  C   UNL     1       7.742   5.017  18.286  0.00  0.00    +0.000 C 
ATOM     16  C   UNL     1       7.086   4.418  17.045  0.00  0.00    +0.000 C 
ENDBRANCH   1  16
BRANCH   1  17
ATOM     17  C   UNL     1       5.459   4.965  15.117  0.00  0.00    +0.000 C 
BRANCH  17  18
ATOM     18  C   UNL     1       6.648   4.666  14.231  0.00  0.00    +0.000 C 
ATOM     19  O   UNL     1       7.615   5.385  14.053  0.00  0.00    +0.000 OA
BRANCH  18  20
ATOM     20  O   UNL     1       6.540   3.458  13.624  0.00  0.00    +0.000 OA
ATOM     21  H   UNL     1       6.121   2.766  14.171  0.00  0.00    +0.000 HD
ENDBRANCH  18  20
ENDBRANCH  17  18
ENDBRANCH   1  17
BRANCH   4  22
ATOM     22  C   UNL     1       2.339   7.517  17.493  0.00  0.00    +0.000 C 
BRANCH  22  23
ATOM     23  C   UNL     1       2.097   8.941  17.961  0.00  0.00    +0.000 C 
BRANCH  23  24
ATOM     24  C   UNL     1       1.329   9.119  19.228  0.00  0.00    +0.000 A 
ATOM     25  C   UNL     1       0.306  10.080  19.272  0.00  0.00    +0.000 A 
ATOM     26  C   UNL     1      -0.448  10.256  20.426  0.00  0.00    +0.000 A 
ATOM     27  C   UNL     1      -0.186   9.462  21.532  0.00  0.00    +0.000 A 
ATOM     28  C   UNL     1       0.805   8.481  21.487  0.00  0.00    +0.000 A 
ATOM     29  C   UNL     1       1.567   8.309  20.336  0.00  0.00    +0.000 A 
ENDBRANCH  23  24
ENDBRANCH  22  23
ENDBRANCH   4  22
TORSDOF 7
ENDMDL
MODEL 2
REMARK VINA RESULT:      -9.0      2.665      5.115
REMARK  Name = 
REMARK  8 active torsions:
REMARK  status: ('A' for Active; 'I' for Inactive)
REMARK    1  A    between atoms: C_1  and  C_2
REMARK    2  A    between atoms: C_2  and  C_3
REMARK    3  A    between atoms: C_3  and  C_4
REMARK    4  A    between atoms: C_4  and  C_5
REMARK    5  A    between atoms: C_5  and  O_7
REMARK    6  A    between atoms: C_10  and  C_11
REMARK    7  A    between atoms: C_11  and  C_12
REMARK    8  A    between atoms: C_12  and  C_13
REMARK                            x       y       z     vdW  Elec       q    Type
REMARK                         _______ _______ _______ _____ _____    ______ ____
ROOT
ATOM      1  C   UNL     1       3.245   3.537  19.519  0.00  0.00    +0.000 C 
ATOM      2  O   UNL     1       2.240   3.633  18.469  0.00  0.00    +0.000 OA
ATOM      3  C   UNL     1       1.832   4.952  18.083  0.00  0.00    +0.000 C 
ATOM      4  C   UNL     1       2.970   5.858  17.516  0.00  0.00    +0.000 C 
ATOM      5  C   UNL     1       4.275   5.523  18.199  0.00  0.00    +0.000 A 
ATOM      6  C   UNL     1       4.344   4.490  19.112  0.00  0.00    +0.000 A 
ATOM      7  N   UNL     1       5.615   4.453  19.618  0.00  0.00    +0.000 N 
ATOM      8  C   UNL     1       6.394   5.430  19.032  0.00  0.00    +0.000 A 
ATOM      9  C   UNL     1       7.724   5.789  19.273  0.00  0.00    +0.000 A 
ATOM     10  C   UNL     1       8.257   6.869  18.576  0.00  0.00    +0.000 A 
ATOM     11  C   UNL     1       7.518   7.515  17.600  0.00  0.00    +0.000 A 
ATOM     12  C   UNL     1       6.236   7.056  17.286  0.00  0.00    +0.000 A 
ATOM     13  C   UNL     1       5.602   6.064  18.069  0.00  0.00    +0.000 A 
ATOM     14  H   UNL     1       5.932   3.836  20.355  0.00  0.00    +0.000 HD
ENDROOT
BRANCH   1  16
ATOM     15  C   UNL     1       3.600   1.415  18.084  0.00  0.00    +0.000 C 
ATOM     16  C   UNL     1       3.732   2.067  19.458  0.00  0.00    +0.000 C 
ENDBRANCH   1  16
BRANCH   1  17
ATOM     17  C   UNL     1       2.622   3.911  20.883  0.00  0.00    +0.000 C 
BRANCH  17  18
ATOM     18  C   UNL     1       1.501   3.017  21.365  0.00  0.00    +0.000 C 
ATOM     19  O   UNL     1       1.515   2.316  22.362  0.00  0.00    +0.000 OA
BRANCH  18  20
ATOM     20  O   UNL     1       0.418   3.074  20.551  0.00  0.00    +0.000 OA
ATOM     21  H   UNL     1       0.095   2.205  20.247  0.00  0.00    +0.000 HD
ENDBRANCH  18  20
ENDBRANCH  17  18
ENDBRANCH   1  17
BRANCH   4  22
ATOM     22  C   UNL     1       2.491   7.327  17.688  0.00  0.00    +0.000 C 
BRANCH  22  23
ATOM     23  C   UNL     1       2.441   7.800  19.130  0.00  0.00    +0.000 C 
BRANCH  23  24
ATOM     24  C   UNL     1       1.369   8.773  19.488  0.00  0.00    +0.000 A 
ATOM     25  C   UNL     1       0.795   8.708  20.769  0.00  0.00    +0.000 A 
ATOM     26  C   UNL     1      -0.188   9.615  21.148  0.00  0.00    +0.000 A 
ATOM     27  C   UNL     1      -0.587  10.593  20.251  0.00  0.00    +0.000 A 
ATOM     28  C   UNL     1       0.002  10.688  18.990  0.00  0.00    +0.000 A 
ATOM     29  C   UNL     1       0.978   9.776  18.604  0.00  0.00    +0.000 A 
ENDBRANCH  23  24
ENDBRANCH  22  23
ENDBRANCH   4  22
TORSDOF 7
ENDMDL
MODEL 3
REMARK VINA RESULT:      -8.7      0.722      1.209
REMARK  Name = 
REMARK  8 active torsions:
REMARK  status: ('A' for Active; 'I' for Inactive)
REMARK    1  A    between atoms: C_1  and  C_2
REMARK    2  A    between atoms: C_2  and  C_3
REMARK    3  A    between atoms: C_3  and  C_4
REMARK    4  A    between atoms: C_4  and  C_5
REMARK    5  A    between atoms: C_5  and  O_7
REMARK    6  A    between atoms: C_10  and  C_11
REMARK    7  A    between atoms: C_11  and  C_12
REMARK    8  A    between atoms: C_12  and  C_13
REMARK                            x       y       z     vdW  Elec       q    Type
REMARK                         _______ _______ _______ _____ _____    ______ ____
ROOT
ATOM      1  C   UNL     1       5.727   5.208  16.880  0.00  0.00    +0.000 C 
ATOM      2  O   UNL     1       5.869   6.635  17.139  0.00  0.00    +0.000 OA
ATOM      3  C   UNL     1       4.666   7.416  17.131  0.00  0.00    +0.000 C 
ATOM      4  C   UNL     1       3.601   7.004  18.196  0.00  0.00    +0.000 C 
ATOM      5  C   UNL     1       3.661   5.512  18.423  0.00  0.00    +0.000 A 
ATOM      6  C   UNL     1       4.615   4.742  17.789  0.00  0.00    +0.000 A 
ATOM      7  N   UNL     1       4.397   3.433  18.122  0.00  0.00    +0.000 N 
ATOM      8  C   UNL     1       3.327   3.330  18.989  0.00  0.00    +0.000 A 
ATOM      9  C   UNL     1       2.724   2.198  19.545  0.00  0.00    +0.000 A 
ATOM     10  C   UNL     1       1.603   2.372  20.352  0.00  0.00    +0.000 A 
ATOM     11  C   UNL     1       1.152   3.641  20.673  0.00  0.00    +0.000 A 
ATOM     12  C   UNL     1       1.850   4.760  20.209  0.00  0.00    +0.000 A 
ATOM     13  C   UNL     1       2.898   4.631  19.268  0.00  0.00    +0.000 A 
ATOM     14  H   UNL     1       4.907   2.644  17.748  0.00  0.00    +0.000 HD
ENDROOT
BRANCH   1  16
ATOM     15  C   UNL     1       7.726   5.268  18.520  0.00  0.00    +0.000 C 
ATOM     16  C   UNL     1       7.087   4.600  17.306  0.00  0.00    +0.000 C 
ENDBRANCH   1  16
BRANCH   1  17
ATOM     17  C   UNL     1       5.400   4.973  15.387  0.00  0.00    +0.000 C 
BRANCH  17  18
ATOM     18  C   UNL     1       6.577   4.642  14.497  0.00  0.00    +0.000 C 
ATOM     19  O   UNL     1       7.544   5.352  14.284  0.00  0.00    +0.000 OA
BRANCH  18  20
ATOM     20  O   UNL     1       6.459   3.414  13.933  0.00  0.00    +0.000 OA
ATOM     21  H   UNL     1       7.295   2.913  13.875  0.00  0.00    +0.000 HD
ENDBRANCH  18  20
ENDBRANCH  17  18
ENDBRANCH   1  17
BRANCH   4  22
ATOM     22  C   UNL     1       2.235   7.542  17.685  0.00  0.00    +0.000 C 
BRANCH  22  23
ATOM     23  C   UNL     1       2.103   9.054  17.737  0.00  0.00    +0.000 C 
BRANCH  23  24
ATOM     24  C   UNL     1       0.932   9.608  18.475  0.00  0.00    +0.000 A 
ATOM     25  C   UNL     1       1.053   9.856  19.852  0.00  0.00    +0.000 A 
ATOM     26  C   UNL     1      -0.008  10.397  20.568  0.00  0.00    +0.000 A 
ATOM     27  C   UNL     1      -1.186  10.700  19.905  0.00  0.00    +0.000 A 
ATOM     28  C   UNL     1      -1.305  10.490  18.530  0.00  0.00    +0.000 A 
ATOM     29  C   UNL     1      -0.248   9.940  17.813  0.00  0.00    +0.000 A 
ENDBRANCH  23  24
ENDBRANCH  22  23
ENDBRANCH   4  22
TORSDOF 7
ENDMDL
MODEL 4
REMARK VINA RESULT:      -8.5      2.587      5.004
REMARK  Name = 
REMARK  8 active torsions:
REMARK  status: ('A' for Active; 'I' for Inactive)
REMARK    1  A    between atoms: C_1  and  C_2
REMARK    2  A    between atoms: C_2  and  C_3
REMARK    3  A    between atoms: C_3  and  C_4
REMARK    4  A    between atoms: C_4  and  C_5
REMARK    5  A    between atoms: C_5  and  O_7
REMARK    6  A    between atoms: C_10  and  C_11
REMARK    7  A    between atoms: C_11  and  C_12
REMARK    8  A    between atoms: C_12  and  C_13
REMARK                            x       y       z     vdW  Elec       q    Type
REMARK                         _______ _______ _______ _____ _____    ______ ____
ROOT
ATOM      1  C   UNL     1       3.135   3.994  19.309  0.00  0.00    +0.000 C 
ATOM      2  O   UNL     1       2.160   4.288  18.267  0.00  0.00    +0.000 OA
ATOM      3  C   UNL     1       1.899   5.672  17.999  0.00  0.00    +0.000 C 
ATOM      4  C   UNL     1       3.133   6.499  17.520  0.00  0.00    +0.000 C 
ATOM      5  C   UNL     1       4.386   5.968  18.177  0.00  0.00    +0.000 A 
ATOM      6  C   UNL     1       4.334   4.858  18.994  0.00  0.00    +0.000 A 
ATOM      7  N   UNL     1       5.587   4.641  19.500  0.00  0.00    +0.000 N 
ATOM      8  C   UNL     1       6.471   5.579  19.007  0.00  0.00    +0.000 A 
ATOM      9  C   UNL     1       7.828   5.771  19.285  0.00  0.00    +0.000 A 
ATOM     10  C   UNL     1       8.482   6.847  18.690  0.00  0.00    +0.000 A 
ATOM     11  C   UNL     1       7.828   7.651  17.772  0.00  0.00    +0.000 A 
ATOM     12  C   UNL     1       6.510   7.360  17.413  0.00  0.00    +0.000 A 
ATOM     13  C   UNL     1       5.764   6.375  18.101  0.00  0.00    +0.000 A 
ATOM     14  H   UNL     1       5.826   3.931  20.180  0.00  0.00    +0.000 HD
ENDROOT
BRANCH   1  16
ATOM     15  C   UNL     1       3.014   1.910  17.781  0.00  0.00    +0.000 C 
ATOM     16  C   UNL     1       3.465   2.492  19.119  0.00  0.00    +0.000 C 
ENDBRANCH   1  16
BRANCH   1  17
ATOM     17  C   UNL     1       2.535   4.310  20.699  0.00  0.00    +0.000 C 
BRANCH  17  18
ATOM     18  C   UNL     1       1.507   3.328  21.213  0.00  0.00    +0.000 C 
ATOM     19  O   UNL     1       1.596   2.653  22.224  0.00  0.00    +0.000 OA
BRANCH  18  20
ATOM     20  O   UNL     1       0.415   3.267  20.413  0.00  0.00    +0.000 OA
ATOM     21  H   UNL     1      -0.042   4.120  20.285  0.00  0.00    +0.000 HD
ENDBRANCH  18  20
ENDBRANCH  17  18
ENDBRANCH   1  17
BRANCH   4  22
ATOM     22  C   UNL     1       2.809   7.990  17.821  0.00  0.00    +0.000 C 
BRANCH  22  23
ATOM     23  C   UNL     1       1.371   8.242  18.238  0.00  0.00    +0.000 C 
BRANCH  23  24
ATOM     24  C   UNL     1       1.152   8.910  19.553  0.00  0.00    +0.000 A 
ATOM     25  C   UNL     1       0.669  10.229  19.571  0.00  0.00    +0.000 A 
ATOM     26  C   UNL     1       0.428  10.875  20.778  0.00  0.00    +0.000 A 
ATOM     27  C   UNL     1       0.660  10.199  21.965  0.00  0.00    +0.000 A 
ATOM     28  C   UNL     1       1.106   8.877  21.958  0.00  0.00    +0.000 A 
ATOM     29  C   UNL     1       1.357   8.231  20.752  0.00  0.00    +0.000 A 
ENDBRANCH  23  24
ENDBRANCH  22  23
ENDBRANCH   4  22
TORSDOF 7
ENDMDL
MODEL 5
REMARK VINA RESULT:      -8.4      1.125      1.514
REMARK  Name = 
REMARK  8 active torsions:
REMARK  status: ('A' for Active; 'I' for Inactive)
REMARK    1  A    between atoms: C_1  and  C_2
REMARK    2  A    between atoms: C_2  and  C_3
REMARK    3  A    between atoms: C_3  and  C_4
REMARK    4  A    between atoms: C_4  and  C_5
REMARK    5  A    between atoms: C_5  and  O_7
REMARK    6  A    between atoms: C_10  and  C_11
REMARK    7  A    between atoms: C_11  and  C_12
REMARK    8  A    between atoms: C_12  and  C_13
REMARK                            x       y       z     vdW  Elec       q    Type
REMARK                         _______ _______ _______ _____ _____    ______ ____
ROOT
ATOM      1  C   UNL     1       6.239   4.958  17.492  0.00  0.00    +0.000 C 
ATOM      2  O   UNL     1       6.196   6.414  17.431  0.00  0.00    +0.000 OA
ATOM      3  C   UNL     1       4.908   7.015  17.244  0.00  0.00    +0.000 C 
ATOM      4  C   UNL     1       3.866   6.713  18.366  0.00  0.00    +0.000 C 
ATOM      5  C   UNL     1       4.099   5.326  18.917  0.00  0.00    +0.000 A 
ATOM      6  C   UNL     1       5.161   4.564  18.474  0.00  0.00    +0.000 A 
ATOM      7  N   UNL     1       5.093   3.342  19.086  0.00  0.00    +0.000 N 
ATOM      8  C   UNL     1       4.016   3.296  19.946  0.00  0.00    +0.000 A 
ATOM      9  C   UNL     1       3.536   2.244  20.734  0.00  0.00    +0.000 A 
ATOM     10  C   UNL     1       2.375   2.446  21.476  0.00  0.00    +0.000 A 
ATOM     11  C   UNL     1       1.762   3.688  21.506  0.00  0.00    +0.000 A 
ATOM     12  C   UNL     1       2.334   4.758  20.812  0.00  0.00    +0.000 A 
ATOM     13  C   UNL     1       3.421   4.561  19.929  0.00  0.00    +0.000 A 
ATOM     14  H   UNL     1       5.709   2.562  18.898  0.00  0.00    +0.000 HD
ENDROOT
BRANCH   1  16
ATOM     15  C   UNL     1       8.107   5.554  19.178  0.00  0.00    +0.000 C 
ATOM     16  C   UNL     1       7.647   4.634  18.050  0.00  0.00    +0.000 C 
ENDBRANCH   1  16
BRANCH   1  17
ATOM     17  C   UNL     1       5.994   4.364  16.085  0.00  0.00    +0.000 C 
BRANCH  17  18
ATOM     18  C   UNL     1       6.442   5.218  14.920  0.00  0.00    +0.000 C 
ATOM     19  O   UNL     1       5.719   5.749  14.095  0.00  0.00    +0.000 OA
BRANCH  18  20
ATOM     20  O   UNL     1       7.790   5.355  14.877  0.00  0.00    +0.000 OA
ATOM     21  H   UNL     1       8.135   6.123  15.370  0.00  0.00    +0.000 HD
ENDBRANCH  18  20
ENDBRANCH  17  18
ENDBRANCH   1  17
BRANCH   4  22
ATOM     22  C   UNL     1       2.463   6.950  17.740  0.00  0.00    +0.000 C 
BRANCH  22  23
ATOM     23  C   UNL     1       2.014   8.400  17.748  0.00  0.00    +0.000 C 
BRANCH  23  24
ATOM     24  C   UNL     1       1.476   8.938  19.030  0.00  0.00    +0.000 A 
ATOM     25  C   UNL     1       1.559   8.145  20.187  0.00  0.00    +0.000 A 
ATOM     26  C   UNL     1       1.092   8.622  21.405  0.00  0.00    +0.000 A 
ATOM     27  C   UNL     1       0.552   9.897  21.470  0.00  0.00    +0.000 A 
ATOM     28  C   UNL     1       0.496  10.706  20.334  0.00  0.00    +0.000 A 
ATOM     29  C   UNL     1       0.954  10.227  19.111  0.00  0.00    +0.000 A 
ENDBRANCH  23  24
ENDBRANCH  22  23
ENDBRANCH   4  22
TORSDOF 7
ENDMDL
MODEL 6
REMARK VINA RESULT:      -8.3      0.659      1.245
REMARK  Name = 
REMARK  8 active torsions:
REMARK  status: ('A' for Active; 'I' for Inactive)
REMARK    1  A    between atoms: C_1  and  C_2
REMARK    2  A    between atoms: C_2  and  C_3
REMARK    3  A    between atoms: C_3  and  C_4
REMARK    4  A    between atoms: C_4  and  C_5
REMARK    5  A    between atoms: C_5  and  O_7
REMARK    6  A    between atoms: C_10  and  C_11
REMARK    7  A    between atoms: C_11  and  C_12
REMARK    8  A    between atoms: C_12  and  C_13
REMARK                            x       y       z     vdW  Elec       q    Type
REMARK                         _______ _______ _______ _____ _____    ______ ____
ROOT
ATOM      1  C   UNL     1       5.806   5.528  16.825  0.00  0.00    +0.000 C 
ATOM      2  O   UNL     1       5.825   6.834  17.472  0.00  0.00    +0.000 OA
ATOM      3  C   UNL     1       4.580   7.544  17.530  0.00  0.00    +0.000 C 
ATOM      4  C   UNL     1       3.440   6.819  18.312  0.00  0.00    +0.000 C 
ATOM      5  C   UNL     1       3.574   5.325  18.137  0.00  0.00    +0.000 A 
ATOM      6  C   UNL     1       4.638   4.792  17.438  0.00  0.00    +0.000 A 
ATOM      7  N   UNL     1       4.474   3.435  17.381  0.00  0.00    +0.000 N 
ATOM      8  C   UNL     1       3.329   3.061  18.054  0.00  0.00    +0.000 A 
ATOM      9  C   UNL     1       2.747   1.799  18.212  0.00  0.00    +0.000 A 
ATOM     10  C   UNL     1       1.539   1.706  18.897  0.00  0.00    +0.000 A 
ATOM     11  C   UNL     1       0.974   2.823  19.489  0.00  0.00    +0.000 A 
ATOM     12  C   UNL     1       1.641   4.050  19.428  0.00  0.00    +0.000 A 
ATOM     13  C   UNL     1       2.787   4.220  18.618  0.00  0.00    +0.000 A 
ATOM     14  H   UNL     1       5.072   2.797  16.872  0.00  0.00    +0.000 HD
ENDROOT
BRANCH   1  16
ATOM     15  C   UNL     1       7.754   5.420  18.523  0.00  0.00    +0.000 C 
ATOM     16  C   UNL     1       7.152   4.875  17.231  0.00  0.00    +0.000 C 
ENDBRANCH   1  16
BRANCH   1  17
ATOM     17  C   UNL     1       5.653   5.698  15.296  0.00  0.00    +0.000 C 
BRANCH  17  18
ATOM     18  C   UNL     1       6.385   4.686  14.443  0.00  0.00    +0.000 C 
ATOM     19  O   UNL     1       6.156   3.490  14.385  0.00  0.00    +0.000 OA
BRANCH  18  20
ATOM     20  O   UNL     1       7.364   5.259  13.700  0.00  0.00    +0.000 OA
ATOM     21  H   UNL     1       7.097   6.076  13.238  0.00  0.00    +0.000 HD
ENDBRANCH  18  20
ENDBRANCH  17  18
ENDBRANCH   1  17
BRANCH   4  22
ATOM     22  C   UNL     1       2.102   7.427  17.805  0.00  0.00    +0.000 C 
BRANCH  22  23
ATOM     23  C   UNL     1       2.019   8.938  17.930  0.00  0.00    +0.000 C 
BRANCH  23  24
ATOM     24  C   UNL     1       1.290   9.483  19.111  0.00  0.00    +0.000 A 
ATOM     25  C   UNL     1       1.092   8.655  20.227  0.00  0.00    +0.000 A 
ATOM     26  C   UNL     1       0.440   9.136  21.357  0.00  0.00    +0.000 A 
ATOM     27  C   UNL     1      -0.003  10.448  21.373  0.00  0.00    +0.000 A 
ATOM     28  C   UNL     1       0.219  11.290  20.283  0.00  0.00    +0.000 A 
ATOM     29  C   UNL     1       0.863  10.809  19.148  0.00  0.00    +0.000 A 
ENDBRANCH  23  24
ENDBRANCH  22  23
ENDBRANCH   4  22
TORSDOF 7
ENDMDL
MODEL 7
REMARK VINA RESULT:      -8.2      0.908      1.477
REMARK  Name = 
REMARK  8 active torsions:
REMARK  status: ('A' for Active; 'I' for Inactive)
REMARK    1  A    between atoms: C_1  and  C_2
REMARK    2  A    between atoms: C_2  and  C_3
REMARK    3  A    between atoms: C_3  and  C_4
REMARK    4  A    between atoms: C_4  and  C_5
REMARK    5  A    between atoms: C_5  and  O_7
REMARK    6  A    between atoms: C_10  and  C_11
REMARK    7  A    between atoms: C_11  and  C_12
REMARK    8  A    between atoms: C_12  and  C_13
REMARK                            x       y       z     vdW  Elec       q    Type
REMARK                         _______ _______ _______ _____ _____    ______ ____
ROOT
ATOM      1  C   UNL     1       5.782   5.113  16.749  0.00  0.00    +0.000 C 
ATOM      2  O   UNL     1       6.007   6.528  17.011  0.00  0.00    +0.000 OA
ATOM      3  C   UNL     1       4.853   7.379  16.999  0.00  0.00    +0.000 C 
ATOM      4  C   UNL     1       3.761   7.030  18.058  0.00  0.00    +0.000 C 
ATOM      5  C   UNL     1       3.730   5.537  18.283  0.00  0.00    +0.000 A 
ATOM      6  C   UNL     1       4.639   4.713  17.652  0.00  0.00    +0.000 A 
ATOM      7  N   UNL     1       4.342   3.418  17.982  0.00  0.00    +0.000 N 
ATOM      8  C   UNL     1       3.265   3.378  18.843  0.00  0.00    +0.000 A 
ATOM      9  C   UNL     1       2.592   2.283  19.395  0.00  0.00    +0.000 A 
ATOM     10  C   UNL     1       1.480   2.522  20.197  0.00  0.00    +0.000 A 
ATOM     11  C   UNL     1       1.104   3.816  20.517  0.00  0.00    +0.000 A 
ATOM     12  C   UNL     1       1.869   4.892  20.059  0.00  0.00    +0.000 A 
ATOM     13  C   UNL     1       2.912   4.702  19.122  0.00  0.00    +0.000 A 
ATOM     14  H   UNL     1       4.807   2.600  17.609  0.00  0.00    +0.000 HD
ENDROOT
BRANCH   1  16
ATOM     15  C   UNL     1       7.785   5.065  18.384  0.00  0.00    +0.000 C 
ATOM     16  C   UNL     1       7.101   4.424  17.180  0.00  0.00    +0.000 C 
ENDBRANCH   1  16
BRANCH   1  17
ATOM     17  C   UNL     1       5.449   4.899  15.254  0.00  0.00    +0.000 C 
BRANCH  17  18
ATOM     18  C   UNL     1       6.629   4.646  14.343  0.00  0.00    +0.000 C 
ATOM     19  O   UNL     1       7.584   5.384  14.177  0.00  0.00    +0.000 OA
BRANCH  18  20
ATOM     20  O   UNL     1       6.530   3.457  13.699  0.00  0.00    +0.000 OA
ATOM     21  H   UNL     1       6.922   2.702  14.179  0.00  0.00    +0.000 HD
ENDBRANCH  18  20
ENDBRANCH  17  18
ENDBRANCH   1  17
BRANCH   4  22
ATOM     22  C   UNL     1       2.432   7.649  17.541  0.00  0.00    +0.000 C 
BRANCH  22  23
ATOM     23  C   UNL     1       1.538   8.207  18.635  0.00  0.00    +0.000 C 
BRANCH  23  24
ATOM     24  C   UNL     1       1.374   9.688  18.689  0.00  0.00    +0.000 A 
ATOM     25  C   UNL     1       0.330  10.227  19.458  0.00  0.00    +0.000 A 
ATOM     26  C   UNL     1       0.161  11.603  19.553  0.00  0.00    +0.000 A 
ATOM     27  C   UNL     1       1.043  12.440  18.888  0.00  0.00    +0.000 A 
ATOM     28  C   UNL     1       2.104  11.915  18.149  0.00  0.00    +0.000 A 
ATOM     29  C   UNL     1       2.270  10.538  18.045  0.00  0.00    +0.000 A 
ENDBRANCH  23  24
ENDBRANCH  22  23
ENDBRANCH   4  22
TORSDOF 7
ENDMDL
MODEL 8
REMARK VINA RESULT:      -8.2      2.856      5.228
REMARK  Name = 
REMARK  8 active torsions:
REMARK  status: ('A' for Active; 'I' for Inactive)
REMARK    1  A    between atoms: C_1  and  C_2
REMARK    2  A    between atoms: C_2  and  C_3
REMARK    3  A    between atoms: C_3  and  C_4
REMARK    4  A    between atoms: C_4  and  C_5
REMARK    5  A    between atoms: C_5  and  O_7
REMARK    6  A    between atoms: C_10  and  C_11
REMARK    7  A    between atoms: C_11  and  C_12
REMARK    8  A    between atoms: C_12  and  C_13
REMARK                            x       y       z     vdW  Elec       q    Type
REMARK                         _______ _______ _______ _____ _____    ______ ____
ROOT
ATOM      1  C   UNL     1       3.090   3.677  19.442  0.00  0.00    +0.000 C 
ATOM      2  O   UNL     1       1.959   4.079  18.616  0.00  0.00    +0.000 OA
ATOM      3  C   UNL     1       1.647   5.479  18.584  0.00  0.00    +0.000 C 
ATOM      4  C   UNL     1       2.783   6.399  18.037  0.00  0.00    +0.000 C 
ATOM      5  C   UNL     1       4.128   5.823  18.411  0.00  0.00    +0.000 A 
ATOM      6  C   UNL     1       4.216   4.611  19.066  0.00  0.00    +0.000 A 
ATOM      7  N   UNL     1       5.535   4.366  19.335  0.00  0.00    +0.000 N 
ATOM      8  C   UNL     1       6.323   5.387  18.844  0.00  0.00    +0.000 A 
ATOM      9  C   UNL     1       7.705   5.581  18.931  0.00  0.00    +0.000 A 
ATOM     10  C   UNL     1       8.247   6.747  18.395  0.00  0.00    +0.000 A 
ATOM     11  C   UNL     1       7.449   7.647  17.709  0.00  0.00    +0.000 A 
ATOM     12  C   UNL     1       6.093   7.367  17.523  0.00  0.00    +0.000 A 
ATOM     13  C   UNL     1       5.474   6.277  18.178  0.00  0.00    +0.000 A 
ATOM     14  H   UNL     1       5.885   3.579  19.865  0.00  0.00    +0.000 HD
ENDROOT
BRANCH   1  16
ATOM     15  C   UNL     1       2.648   1.774  17.747  0.00  0.00    +0.000 C 
ATOM     16  C   UNL     1       3.398   2.225  18.998  0.00  0.00    +0.000 C 
ENDBRANCH   1  16
BRANCH   1  17
ATOM     17  C   UNL     1       2.716   3.785  20.938  0.00  0.00    +0.000 C 
BRANCH  17  18
ATOM     18  C   UNL     1       1.570   2.912  21.398  0.00  0.00    +0.000 C 
ATOM     19  O   UNL     1       1.580   2.147  22.347  0.00  0.00    +0.000 OA
BRANCH  18  20
ATOM     20  O   UNL     1       0.467   3.069  20.624  0.00  0.00    +0.000 OA
ATOM     21  H   UNL     1       0.610   2.892  19.675  0.00  0.00    +0.000 HD
ENDBRANCH  18  20
ENDBRANCH  17  18
ENDBRANCH   1  17
BRANCH   4  22
ATOM     22  C   UNL     1       2.499   7.825  18.587  0.00  0.00    +0.000 C 
BRANCH  22  23
ATOM     23  C   UNL     1       2.050   8.820  17.531  0.00  0.00    +0.000 C 
BRANCH  23  24
ATOM     24  C   UNL     1       1.356  10.051  18.009  0.00  0.00    +0.000 A 
ATOM     25  C   UNL     1      -0.017   9.987  18.296  0.00  0.00    +0.000 A 
ATOM     26  C   UNL     1      -0.692  11.106  18.768  0.00  0.00    +0.000 A 
ATOM     27  C   UNL     1       0.008  12.285  18.964  0.00  0.00    +0.000 A 
ATOM     28  C   UNL     1       1.380  12.350  18.715  0.00  0.00    +0.000 A 
ATOM     29  C   UNL     1       2.056  11.234  18.234  0.00  0.00    +0.000 A 
ENDBRANCH  23  24
ENDBRANCH  22  23
ENDBRANCH   4  22
TORSDOF 7
ENDMDL
MODEL 9
REMARK VINA RESULT:      -8.1      2.634      5.027
REMARK  Name = 
REMARK  8 active torsions:
REMARK  status: ('A' for Active; 'I' for Inactive)
REMARK    1  A    between atoms: C_1  and  C_2
REMARK    2  A    between atoms: C_2  and  C_3
REMARK    3  A    between atoms: C_3  and  C_4
REMARK    4  A    between atoms: C_4  and  C_5
REMARK    5  A    between atoms: C_5  and  O_7
REMARK    6  A    between atoms: C_10  and  C_11
REMARK    7  A    between atoms: C_11  and  C_12
REMARK    8  A    between atoms: C_12  and  C_13
REMARK                            x       y       z     vdW  Elec       q    Type
REMARK                         _______ _______ _______ _____ _____    ______ ____
ROOT
ATOM      1  C   UNL     1       2.966   3.838  19.265  0.00  0.00    +0.000 C 
ATOM      2  O   UNL     1       1.979   4.140  18.237  0.00  0.00    +0.000 OA
ATOM      3  C   UNL     1       1.708   5.526  17.988  0.00  0.00    +0.000 C 
ATOM      4  C   UNL     1       2.934   6.365  17.507  0.00  0.00    +0.000 C 
ATOM      5  C   UNL     1       4.195   5.832  18.144  0.00  0.00    +0.000 A 
ATOM      6  C   UNL     1       4.157   4.711  18.947  0.00  0.00    +0.000 A 
ATOM      7  N   UNL     1       5.417   4.494  19.437  0.00  0.00    +0.000 N 
ATOM      8  C   UNL     1       6.292   5.442  18.947  0.00  0.00    +0.000 A 
ATOM      9  C   UNL     1       7.651   5.638  19.213  0.00  0.00    +0.000 A 
ATOM     10  C   UNL     1       8.293   6.724  18.624  0.00  0.00    +0.000 A 
ATOM     11  C   UNL     1       7.626   7.536  17.723  0.00  0.00    +0.000 A 
ATOM     12  C   UNL     1       6.305   7.243  17.374  0.00  0.00    +0.000 A 
ATOM     13  C   UNL     1       5.571   6.246  18.058  0.00  0.00    +0.000 A 
ATOM     14  H   UNL     1       5.667   3.778  20.106  0.00  0.00    +0.000 HD
ENDROOT
BRANCH   1  16
ATOM     15  C   UNL     1       3.448   1.926  17.591  0.00  0.00    +0.000 C 
ATOM     16  C   UNL     1       3.301   2.340  19.052  0.00  0.00    +0.000 C 
ENDBRANCH   1  16
BRANCH   1  17
ATOM     17  C   UNL     1       2.380   4.134  20.664  0.00  0.00    +0.000 C 
BRANCH  17  18
ATOM     18  C   UNL     1       2.169   2.933  21.560  0.00  0.00    +0.000 C 
ATOM     19  O   UNL     1       3.038   2.203  22.005  0.00  0.00    +0.000 OA
BRANCH  18  20
ATOM     20  O   UNL     1       0.859   2.736  21.847  0.00  0.00    +0.000 OA
ATOM     21  H   UNL     1       0.679   2.496  22.776  0.00  0.00    +0.000 HD
ENDBRANCH  18  20
ENDBRANCH  17  18
ENDBRANCH   1  17
BRANCH   4  22
ATOM     22  C   UNL     1       2.606   7.850  17.829  0.00  0.00    +0.000 C 
BRANCH  22  23
ATOM     23  C   UNL     1       2.047   8.075  19.223  0.00  0.00    +0.000 C 
BRANCH  23  24
ATOM     24  C   UNL     1       1.079   9.196  19.394  0.00  0.00    +0.000 A 
ATOM     25  C   UNL     1       0.441   9.720  18.257  0.00  0.00    +0.000 A 
ATOM     26  C   UNL     1      -0.488  10.747  18.380  0.00  0.00    +0.000 A 
ATOM     27  C   UNL     1      -0.786  11.242  19.639  0.00  0.00    +0.000 A 
ATOM     28  C   UNL     1      -0.184  10.704  20.778  0.00  0.00    +0.000 A 
ATOM     29  C   UNL     1       0.752   9.683  20.657  0.00  0.00    +0.000 A 
ENDBRANCH  23  24
ENDBRANCH  22  23
ENDBRANCH   4  22
TORSDOF 7
ENDMDL
