MODEL 1
REMARK VINA RESULT:      -6.2      0.000      0.000
REMARK  Name = 
REMARK  18 active torsions:
REMARK  status: ('A' for Active; 'I' for Inactive)
REMARK    1  A    between atoms: C_1  and  C_2
REMARK    2  A    between atoms: C_2  and  C_3
REMARK    3  A    between atoms: C_2  and  C_4
REMARK    4  A    between atoms: C_2  and  C_6
REMARK    5  A    between atoms: C_4  and  O_5
REMARK    6  A    between atoms: C_6  and  C_7
REMARK    7  A    between atoms: C_7  and  C_8
REMARK    8  A    between atoms: C_8  and  C_9
REMARK    9  A    between atoms: C_9  and  N_10
REMARK   10  A    between atoms: N_13  and  C_14
REMARK   11  A    between atoms: C_14  and  C_15
REMARK   12  A    between atoms: C_15  and  C_16
REMARK   13  A    between atoms: C_16  and  C_17
REMARK   14  A    between atoms: C_17  and  C_18
REMARK   15  A    between atoms: C_18  and  C_19
REMARK   16  A    between atoms: C_18  and  C_20
REMARK   17  A    between atoms: C_18  and  C_21
REMARK   18  A    between atoms: C_21  and  O_22
REMARK                            x       y       z     vdW  Elec       q    Type
REMARK                         _______ _______ _______ _____ _____    ______ ____
ROOT
ATOM      1  N   UNL     1       6.614   6.031  15.996  0.00  0.00    +0.000 N 
ATOM      2  C   UNL     1       7.210   6.512  17.129  0.00  0.00    +0.000 C 
ATOM      3  O   UNL     1       7.496   5.817  18.091  0.00  0.00    +0.000 OA
ATOM      4  N   UNL     1       7.446   7.863  17.062  0.00  0.00    +0.000 N 
ATOM      5  H   UNL     1       6.305   6.687  15.295  0.00  0.00    +0.000 HD
ATOM      6  H   UNL     1       7.463   8.272  16.141  0.00  0.00    +0.000 HD
ENDROOT
BRANCH   1   7
ATOM      7  C   UNL     1       6.128   4.670  15.949  0.00  0.00    +0.000 C 
BRANCH   7   8
ATOM      8  C   UNL     1       4.716   4.542  16.523  0.00  0.00    +0.000 C 
BRANCH   8   9
ATOM      9  C   UNL     1       4.494   3.298  17.392  0.00  0.00    +0.000 C 
BRANCH   9  10
ATOM     10  C   UNL     1       3.957   3.634  18.789  0.00  0.00    +0.000 C 
BRANCH  10  12
ATOM     11  C   UNL     1       2.015   2.224  18.087  0.00  0.00    +0.000 C 
ATOM     12  C   UNL     1       2.439   3.396  19.001  0.00  0.00    +0.000 C 
ATOM     13  C   UNL     1       1.636   4.640  18.573  0.00  0.00    +0.000 C 
BRANCH  12  14
ATOM     14  C   UNL     1       2.144   3.031  20.472  0.00  0.00    +0.000 C 
BRANCH  14  15
ATOM     15  O   UNL     1       0.754   2.862  20.710  0.00  0.00    +0.000 OA
ATOM     16  H   UNL     1       0.321   2.742  19.846  0.00  0.00    +0.000 HD
ENDBRANCH  14  15
ENDBRANCH  12  14
ENDBRANCH  10  12
ENDBRANCH   9  10
ENDBRANCH   8   9
ENDBRANCH   7   8
ENDBRANCH   1   7
BRANCH   4  17
ATOM     17  C   UNL     1       8.305   8.449  18.065  0.00  0.00    +0.000 C 
BRANCH  17  18
ATOM     18  C   UNL     1       8.255   9.972  18.047  0.00  0.00    +0.000 C 
BRANCH  18  19
ATOM     19  C   UNL     1       9.422  10.590  18.823  0.00  0.00    +0.000 C 
BRANCH  19  20
ATOM     20  C   UNL     1      10.460  11.259  17.909  0.00  0.00    +0.000 C 
BRANCH  20  21
ATOM     21  C   UNL     1      10.607  12.797  18.068  0.00  0.00    +0.000 C 
ATOM     22  C   UNL     1       9.265  13.503  17.810  0.00  0.00    +0.000 C 
ATOM     23  C   UNL     1      11.095  13.149  19.486  0.00  0.00    +0.000 C 
BRANCH  21  24
ATOM     24  C   UNL     1      11.629  13.313  17.023  0.00  0.00    +0.000 C 
BRANCH  24  25
ATOM     25  O   UNL     1      11.064  14.278  16.144  0.00  0.00    +0.000 OA
ATOM     26  H   UNL     1      10.526  13.805  15.486  0.00  0.00    +0.000 HD
ENDBRANCH  24  25
ENDBRANCH  21  24
ENDBRANCH  20  21
ENDBRANCH  19  20
ENDBRANCH  18  19
ENDBRANCH  17  18
ENDBRANCH   4  17
TORSDOF 14
ENDMDL
MODEL 2
REMARK VINA RESULT:      -6.2      1.403     10.427
REMARK  Name = 
REMARK  18 active torsions:
REMARK  status: ('A' for Active; 'I' for Inactive)
REMARK    1  A    between atoms: C_1  and  C_2
REMARK    2  A    between atoms: C_2  and  C_3
REMARK    3  A    between atoms: C_2  and  C_4
REMARK    4  A    between atoms: C_2  and  C_6
REMARK    5  A    between atoms: C_4  and  O_5
REMARK    6  A    between atoms: C_6  and  C_7
REMARK    7  A    between atoms: C_7  and  C_8
REMARK    8  A    between atoms: C_8  and  C_9
REMARK    9  A    between atoms: C_9  and  N_10
REMARK   10  A    between atoms: N_13  and  C_14
REMARK   11  A    between atoms: C_14  and  C_15
REMARK   12  A    between atoms: C_15  and  C_16
REMARK   13  A    between atoms: C_16  and  C_17
REMARK   14  A    between atoms: C_17  and  C_18
REMARK   15  A    between atoms: C_18  and  C_19
REMARK   16  A    between atoms: C_18  and  C_20
REMARK   17  A    between atoms: C_18  and  C_21
REMARK   18  A    between atoms: C_21  and  O_22
REMARK                            x       y       z     vdW  Elec       q    Type
REMARK                         _______ _______ _______ _____ _____    ______ ____
ROOT
ATOM      1  N   UNL     1       7.494   7.057  17.799  0.00  0.00    +0.000 N 
ATOM      2  C   UNL     1       6.575   6.399  17.028  0.00  0.00    +0.000 C 
ATOM      3  O   UNL     1       6.073   6.874  16.021  0.00  0.00    +0.000 OA
ATOM      4  N   UNL     1       6.282   5.150  17.515  0.00  0.00    +0.000 N 
ATOM      5  H   UNL     1       7.774   6.644  18.676  0.00  0.00    +0.000 HD
ATOM      6  H   UNL     1       6.955   4.742  18.144  0.00  0.00    +0.000 HD
ENDROOT
BRANCH   1   7
ATOM      7  C   UNL     1       7.795   8.449  17.548  0.00  0.00    +0.000 C 
BRANCH   7   8
ATOM      8  C   UNL     1       8.719   9.039  18.613  0.00  0.00    +0.000 C 
BRANCH   8   9
ATOM      9  C   UNL     1       9.094  10.509  18.385  0.00  0.00    +0.000 C 
BRANCH   9  10
ATOM     10  C   UNL     1       9.942  11.092  19.522  0.00  0.00    +0.000 C 
BRANCH  10  12
ATOM     11  C   UNL     1      11.192  12.053  17.582  0.00  0.00    +0.000 C 
ATOM     12  C   UNL     1      10.973  12.174  19.106  0.00  0.00    +0.000 C 
ATOM     13  C   UNL     1      12.326  11.920  19.798  0.00  0.00    +0.000 C 
BRANCH  12  14
ATOM     14  C   UNL     1      10.443  13.586  19.437  0.00  0.00    +0.000 C 
BRANCH  14  15
ATOM     15  O   UNL     1       9.871  14.219  18.301  0.00  0.00    +0.000 OA
ATOM     16  H   UNL     1      10.089  13.677  17.523  0.00  0.00    +0.000 HD
ENDBRANCH  14  15
ENDBRANCH  12  14
ENDBRANCH  10  12
ENDBRANCH   9  10
ENDBRANCH   8   9
ENDBRANCH   7   8
ENDBRANCH   1   7
BRANCH   4  17
ATOM     17  C   UNL     1       5.541   4.249  16.662  0.00  0.00    +0.000 C 
BRANCH  17  18
ATOM     18  C   UNL     1       4.150   3.953  17.208  0.00  0.00    +0.000 C 
BRANCH  18  19
ATOM     19  C   UNL     1       3.923   4.605  18.577  0.00  0.00    +0.000 C 
BRANCH  19  20
ATOM     20  C   UNL     1       3.609   3.584  19.681  0.00  0.00    +0.000 C 
BRANCH  20  21
ATOM     21  C   UNL     1       2.103   3.355  19.980  0.00  0.00    +0.000 C 
ATOM     22  C   UNL     1       1.266   4.558  19.513  0.00  0.00    +0.000 C 
ATOM     23  C   UNL     1       1.598   2.085  19.269  0.00  0.00    +0.000 C 
BRANCH  21  24
ATOM     24  C   UNL     1       1.914   3.205  21.511  0.00  0.00    +0.000 C 
BRANCH  24  25
ATOM     25  O   UNL     1       2.831   2.279  22.082  0.00  0.00    +0.000 OA
ATOM     26  H   UNL     1       3.606   2.777  22.394  0.00  0.00    +0.000 HD
ENDBRANCH  24  25
ENDBRANCH  21  24
ENDBRANCH  20  21
ENDBRANCH  19  20
ENDBRANCH  18  19
ENDBRANCH  17  18
ENDBRANCH   4  17
TORSDOF 14
ENDMDL
MODEL 3
REMARK VINA RESULT:      -6.1      0.937     10.478
REMARK  Name = 
REMARK  18 active torsions:
REMARK  status: ('A' for Active; 'I' for Inactive)
REMARK    1  A    between atoms: C_1  and  C_2
REMARK    2  A    between atoms: C_2  and  C_3
REMARK    3  A    between atoms: C_2  and  C_4
REMARK    4  A    between atoms: C_2  and  C_6
REMARK    5  A    between atoms: C_4  and  O_5
REMARK    6  A    between atoms: C_6  and  C_7
REMARK    7  A    between atoms: C_7  and  C_8
REMARK    8  A    between atoms: C_8  and  C_9
REMARK    9  A    between atoms: C_9  and  N_10
REMARK   10  A    between atoms: N_13  and  C_14
REMARK   11  A    between atoms: C_14  and  C_15
REMARK   12  A    between atoms: C_15  and  C_16
REMARK   13  A    between atoms: C_16  and  C_17
REMARK   14  A    between atoms: C_17  and  C_18
REMARK   15  A    between atoms: C_18  and  C_19
REMARK   16  A    between atoms: C_18  and  C_20
REMARK   17  A    between atoms: C_18  and  C_21
REMARK   18  A    between atoms: C_21  and  O_22
REMARK                            x       y       z     vdW  Elec       q    Type
REMARK                         _______ _______ _______ _____ _____    ______ ____
ROOT
ATOM      1  N   UNL     1       7.690   7.580  17.071  0.00  0.00    +0.000 N 
ATOM      2  C   UNL     1       7.342   6.262  17.185  0.00  0.00    +0.000 C 
ATOM      3  O   UNL     1       7.325   5.656  18.245  0.00  0.00    +0.000 OA
ATOM      4  N   UNL     1       7.016   5.701  15.976  0.00  0.00    +0.000 N 
ATOM      5  H   UNL     1       7.791   7.976  16.149  0.00  0.00    +0.000 HD
ATOM      6  H   UNL     1       6.764   6.338  15.237  0.00  0.00    +0.000 HD
ENDROOT
BRANCH   1   7
ATOM      7  C   UNL     1       8.234   8.292  18.206  0.00  0.00    +0.000 C 
BRANCH   7   8
ATOM      8  C   UNL     1       8.210   9.807  18.001  0.00  0.00    +0.000 C 
BRANCH   8   9
ATOM      9  C   UNL     1       9.362  10.559  18.682  0.00  0.00    +0.000 C 
BRANCH   9  10
ATOM     10  C   UNL     1       9.683  11.896  18.003  0.00  0.00    +0.000 C 
BRANCH  10  12
ATOM     11  C   UNL     1      11.944  12.792  17.420  0.00  0.00    +0.000 C 
ATOM     12  C   UNL     1      10.915  12.655  18.564  0.00  0.00    +0.000 C 
ATOM     13  C   UNL     1      11.575  11.843  19.696  0.00  0.00    +0.000 C 
BRANCH  12  14
ATOM     14  C   UNL     1      10.509  14.060  19.060  0.00  0.00    +0.000 C 
BRANCH  14  15
ATOM     15  O   UNL     1      10.602  15.034  18.030  0.00  0.00    +0.000 OA
ATOM     16  H   UNL     1       9.867  15.661  18.152  0.00  0.00    +0.000 HD
ENDBRANCH  14  15
ENDBRANCH  12  14
ENDBRANCH  10  12
ENDBRANCH   9  10
ENDBRANCH   8   9
ENDBRANCH   7   8
ENDBRANCH   1   7
BRANCH   4  17
ATOM     17  C   UNL     1       6.375   4.406  15.983  0.00  0.00    +0.000 C 
BRANCH  17  18
ATOM     18  C   UNL     1       4.861   4.513  16.112  0.00  0.00    +0.000 C 
BRANCH  18  19
ATOM     19  C   UNL     1       4.307   3.540  17.158  0.00  0.00    +0.000 C 
BRANCH  19  20
ATOM     20  C   UNL     1       2.940   3.970  17.710  0.00  0.00    +0.000 C 
BRANCH  20  21
ATOM     21  C   UNL     1       2.490   3.267  19.020  0.00  0.00    +0.000 C 
ATOM     22  C   UNL     1       1.468   2.158  18.720  0.00  0.00    +0.000 C 
ATOM     23  C   UNL     1       3.702   2.651  19.745  0.00  0.00    +0.000 C 
BRANCH  21  24
ATOM     24  C   UNL     1       1.809   4.311  19.940  0.00  0.00    +0.000 C 
BRANCH  24  25
ATOM     25  O   UNL     1       0.511   3.902  20.355  0.00  0.00    +0.000 OA
ATOM     26  H   UNL     1      -0.099   4.646  20.208  0.00  0.00    +0.000 HD
ENDBRANCH  24  25
ENDBRANCH  21  24
ENDBRANCH  20  21
ENDBRANCH  19  20
ENDBRANCH  18  19
ENDBRANCH  17  18
ENDBRANCH   4  17
TORSDOF 14
ENDMDL
MODEL 4
REMARK VINA RESULT:      -6.1      1.476      1.839
REMARK  Name = 
REMARK  18 active torsions:
REMARK  status: ('A' for Active; 'I' for Inactive)
REMARK    1  A    between atoms: C_1  and  C_2
REMARK    2  A    between atoms: C_2  and  C_3
REMARK    3  A    between atoms: C_2  and  C_4
REMARK    4  A    between atoms: C_2  and  C_6
REMARK    5  A    between atoms: C_4  and  O_5
REMARK    6  A    between atoms: C_6  and  C_7
REMARK    7  A    between atoms: C_7  and  C_8
REMARK    8  A    between atoms: C_8  and  C_9
REMARK    9  A    between atoms: C_9  and  N_10
REMARK   10  A    between atoms: N_13  and  C_14
REMARK   11  A    between atoms: C_14  and  C_15
REMARK   12  A    between atoms: C_15  and  C_16
REMARK   13  A    between atoms: C_16  and  C_17
REMARK   14  A    between atoms: C_17  and  C_18
REMARK   15  A    between atoms: C_18  and  C_19
REMARK   16  A    between atoms: C_18  and  C_20
REMARK   17  A    between atoms: C_18  and  C_21
REMARK   18  A    between atoms: C_21  and  O_22
REMARK                            x       y       z     vdW  Elec       q    Type
REMARK                         _______ _______ _______ _____ _____    ______ ____
ROOT
ATOM      1  N   UNL     1       5.837   5.668  16.713  0.00  0.00    +0.000 N 
ATOM      2  C   UNL     1       6.640   6.296  17.626  0.00  0.00    +0.000 C 
ATOM      3  O   UNL     1       6.901   5.837  18.727  0.00  0.00    +0.000 OA
ATOM      4  N   UNL     1       7.114   7.499  17.164  0.00  0.00    +0.000 N 
ATOM      5  H   UNL     1       5.576   6.163  15.875  0.00  0.00    +0.000 HD
ATOM      6  H   UNL     1       7.100   7.635  16.166  0.00  0.00    +0.000 HD
ENDROOT
BRANCH   1   7
ATOM      7  C   UNL     1       5.104   4.478  17.084  0.00  0.00    +0.000 C 
BRANCH   7   8
ATOM      8  C   UNL     1       3.705   4.803  17.608  0.00  0.00    +0.000 C 
BRANCH   8   9
ATOM      9  C   UNL     1       3.573   4.759  19.136  0.00  0.00    +0.000 C 
BRANCH   9  10
ATOM     10  C   UNL     1       3.067   3.406  19.652  0.00  0.00    +0.000 C 
BRANCH  10  12
ATOM     11  C   UNL     1       0.729   2.713  19.096  0.00  0.00    +0.000 C 
ATOM     12  C   UNL     1       1.606   3.389  20.174  0.00  0.00    +0.000 C 
ATOM     13  C   UNL     1       1.090   4.829  20.366  0.00  0.00    +0.000 C 
BRANCH  12  14
ATOM     14  C   UNL     1       1.507   2.589  21.491  0.00  0.00    +0.000 C 
BRANCH  14  15
ATOM     15  O   UNL     1       2.772   2.444  22.120  0.00  0.00    +0.000 OA
ATOM     16  H   UNL     1       3.161   1.608  21.809  0.00  0.00    +0.000 HD
ENDBRANCH  14  15
ENDBRANCH  12  14
ENDBRANCH  10  12
ENDBRANCH   9  10
ENDBRANCH   8   9
ENDBRANCH   7   8
ENDBRANCH   1   7
BRANCH   4  17
ATOM     17  C   UNL     1       8.177   8.135  17.906  0.00  0.00    +0.000 C 
BRANCH  17  18
ATOM     18  C   UNL     1       8.034   9.652  17.931  0.00  0.00    +0.000 C 
BRANCH  18  19
ATOM     19  C   UNL     1       9.185  10.321  18.689  0.00  0.00    +0.000 C 
BRANCH  19  20
ATOM     20  C   UNL     1       9.215  11.846  18.507  0.00  0.00    +0.000 C 
BRANCH  20  21
ATOM     21  C   UNL     1      10.609  12.515  18.646  0.00  0.00    +0.000 C 
ATOM     22  C   UNL     1      11.483  11.751  19.655  0.00  0.00    +0.000 C 
ATOM     23  C   UNL     1      11.329  12.551  17.284  0.00  0.00    +0.000 C 
BRANCH  21  24
ATOM     24  C   UNL     1      10.421  13.961  19.173  0.00  0.00    +0.000 C 
BRANCH  24  25
ATOM     25  O   UNL     1      11.343  14.284  20.207  0.00  0.00    +0.000 OA
ATOM     26  H   UNL     1      10.851  14.724  20.921  0.00  0.00    +0.000 HD
ENDBRANCH  24  25
ENDBRANCH  21  24
ENDBRANCH  20  21
ENDBRANCH  19  20
ENDBRANCH  18  19
ENDBRANCH  17  18
ENDBRANCH   4  17
TORSDOF 14
ENDMDL
MODEL 5
REMARK VINA RESULT:      -6.1      1.550      2.000
REMARK  Name = 
REMARK  18 active torsions:
REMARK  status: ('A' for Active; 'I' for Inactive)
REMARK    1  A    between atoms: C_1  and  C_2
REMARK    2  A    between atoms: C_2  and  C_3
REMARK    3  A    between atoms: C_2  and  C_4
REMARK    4  A    between atoms: C_2  and  C_6
REMARK    5  A    between atoms: C_4  and  O_5
REMARK    6  A    between atoms: C_6  and  C_7
REMARK    7  A    between atoms: C_7  and  C_8
REMARK    8  A    between atoms: C_8  and  C_9
REMARK    9  A    between atoms: C_9  and  N_10
REMARK   10  A    between atoms: N_13  and  C_14
REMARK   11  A    between atoms: C_14  and  C_15
REMARK   12  A    between atoms: C_15  and  C_16
REMARK   13  A    between atoms: C_16  and  C_17
REMARK   14  A    between atoms: C_17  and  C_18
REMARK   15  A    between atoms: C_18  and  C_19
REMARK   16  A    between atoms: C_18  and  C_20
REMARK   17  A    between atoms: C_18  and  C_21
REMARK   18  A    between atoms: C_21  and  O_22
REMARK                            x       y       z     vdW  Elec       q    Type
REMARK                         _______ _______ _______ _____ _____    ______ ____
ROOT
ATOM      1  N   UNL     1       5.416   5.892  17.926  0.00  0.00    +0.000 N 
ATOM      2  C   UNL     1       6.168   6.816  17.253  0.00  0.00    +0.000 C 
ATOM      3  O   UNL     1       5.885   7.240  16.144  0.00  0.00    +0.000 OA
ATOM      4  N   UNL     1       7.274   7.207  17.965  0.00  0.00    +0.000 N 
ATOM      5  H   UNL     1       5.776   5.506  18.785  0.00  0.00    +0.000 HD
ATOM      6  H   UNL     1       7.250   7.045  18.959  0.00  0.00    +0.000 HD
ENDROOT
BRANCH   1   7
ATOM      7  C   UNL     1       4.311   5.230  17.266  0.00  0.00    +0.000 C 
BRANCH   7   8
ATOM      8  C   UNL     1       4.493   3.713  17.221  0.00  0.00    +0.000 C 
BRANCH   8   9
ATOM      9  C   UNL     1       3.289   2.913  17.736  0.00  0.00    +0.000 C 
BRANCH   9  10
ATOM     10  C   UNL     1       2.197   3.805  18.340  0.00  0.00    +0.000 C 
BRANCH  10  12
ATOM     11  C   UNL     1       0.655   3.262  20.232  0.00  0.00    +0.000 C 
ATOM     12  C   UNL     1       2.075   3.763  19.886  0.00  0.00    +0.000 C 
ATOM     13  C   UNL     1       2.230   5.179  20.474  0.00  0.00    +0.000 C 
BRANCH  12  14
ATOM     14  C   UNL     1       3.120   2.799  20.489  0.00  0.00    +0.000 C 
BRANCH  14  15
ATOM     15  O   UNL     1       2.870   2.537  21.863  0.00  0.00    +0.000 OA
ATOM     16  H   UNL     1       1.906   2.471  21.979  0.00  0.00    +0.000 HD
ENDBRANCH  14  15
ENDBRANCH  12  14
ENDBRANCH  10  12
ENDBRANCH   9  10
ENDBRANCH   8   9
ENDBRANCH   7   8
ENDBRANCH   1   7
BRANCH   4  17
ATOM     17  C   UNL     1       8.003   8.364  17.499  0.00  0.00    +0.000 C 
BRANCH  17  18
ATOM     18  C   UNL     1       8.738   9.075  18.628  0.00  0.00    +0.000 C 
BRANCH  18  19
ATOM     19  C   UNL     1       8.928  10.566  18.334  0.00  0.00    +0.000 C 
BRANCH  19  20
ATOM     20  C   UNL     1       9.631  11.317  19.476  0.00  0.00    +0.000 C 
BRANCH  20  21
ATOM     21  C   UNL     1      10.848  12.188  19.063  0.00  0.00    +0.000 C 
ATOM     22  C   UNL     1      12.130  11.699  19.758  0.00  0.00    +0.000 C 
ATOM     23  C   UNL     1      11.054  12.138  17.537  0.00  0.00    +0.000 C 
BRANCH  21  24
ATOM     24  C   UNL     1      10.590  13.650  19.505  0.00  0.00    +0.000 C 
BRANCH  24  25
ATOM     25  O   UNL     1      10.093  14.457  18.445  0.00  0.00    +0.000 OA
ATOM     26  H   UNL     1       9.445  15.079  18.819  0.00  0.00    +0.000 HD
ENDBRANCH  24  25
ENDBRANCH  21  24
ENDBRANCH  20  21
ENDBRANCH  19  20
ENDBRANCH  18  19
ENDBRANCH  17  18
ENDBRANCH   4  17
TORSDOF 14
ENDMDL
MODEL 6
REMARK VINA RESULT:      -6.0      1.641      1.880
REMARK  Name = 
REMARK  18 active torsions:
REMARK  status: ('A' for Active; 'I' for Inactive)
REMARK    1  A    between atoms: C_1  and  C_2
REMARK    2  A    between atoms: C_2  and  C_3
REMARK    3  A    between atoms: C_2  and  C_4
REMARK    4  A    between atoms: C_2  and  C_6
REMARK    5  A    between atoms: C_4  and  O_5
REMARK    6  A    between atoms: C_6  and  C_7
REMARK    7  A    between atoms: C_7  and  C_8
REMARK    8  A    between atoms: C_8  and  C_9
REMARK    9  A    between atoms: C_9  and  N_10
REMARK   10  A    between atoms: N_13  and  C_14
REMARK   11  A    between atoms: C_14  and  C_15
REMARK   12  A    between atoms: C_15  and  C_16
REMARK   13  A    between atoms: C_16  and  C_17
REMARK   14  A    between atoms: C_17  and  C_18
REMARK   15  A    between atoms: C_18  and  C_19
REMARK   16  A    between atoms: C_18  and  C_20
REMARK   17  A    between atoms: C_18  and  C_21
REMARK   18  A    between atoms: C_21  and  O_22
REMARK                            x       y       z     vdW  Elec       q    Type
REMARK                         _______ _______ _______ _____ _____    ______ ____
ROOT
ATOM      1  N   UNL     1       7.232   5.604  15.611  0.00  0.00    +0.000 N 
ATOM      2  C   UNL     1       6.857   6.738  16.279  0.00  0.00    +0.000 C 
ATOM      3  O   UNL     1       5.696   7.086  16.422  0.00  0.00    +0.000 OA
ATOM      4  N   UNL     1       7.934   7.436  16.766  0.00  0.00    +0.000 N 
ATOM      5  H   UNL     1       8.212   5.446  15.436  0.00  0.00    +0.000 HD
ATOM      6  H   UNL     1       8.795   6.924  16.867  0.00  0.00    +0.000 HD
ENDROOT
BRANCH   1   7
ATOM      7  C   UNL     1       6.253   4.833  14.876  0.00  0.00    +0.000 C 
BRANCH   7   8
ATOM      8  C   UNL     1       5.808   3.587  15.643  0.00  0.00    +0.000 C 
BRANCH   8   9
ATOM      9  C   UNL     1       4.536   3.775  16.480  0.00  0.00    +0.000 C 
BRANCH   9  10
ATOM     10  C   UNL     1       4.832   4.042  17.961  0.00  0.00    +0.000 C 
BRANCH  10  12
ATOM     11  C   UNL     1       2.344   3.815  18.053  0.00  0.00    +0.000 C 
ATOM     12  C   UNL     1       3.618   3.929  18.920  0.00  0.00    +0.000 C 
ATOM     13  C   UNL     1       3.491   5.204  19.776  0.00  0.00    +0.000 C 
BRANCH  12  14
ATOM     14  C   UNL     1       3.744   2.676  19.814  0.00  0.00    +0.000 C 
BRANCH  14  15
ATOM     15  O   UNL     1       5.084   2.211  19.890  0.00  0.00    +0.000 OA
ATOM     16  H   UNL     1       5.484   2.598  20.689  0.00  0.00    +0.000 HD
ENDBRANCH  14  15
ENDBRANCH  12  14
ENDBRANCH  10  12
ENDBRANCH   9  10
ENDBRANCH   8   9
ENDBRANCH   7   8
ENDBRANCH   1   7
BRANCH   4  17
ATOM     17  C   UNL     1       7.678   8.497  17.713  0.00  0.00    +0.000 C 
BRANCH  17  18
ATOM     18  C   UNL     1       8.768   8.597  18.773  0.00  0.00    +0.000 C 
BRANCH  18  19
ATOM     19  C   UNL     1       8.996  10.044  19.222  0.00  0.00    +0.000 C 
BRANCH  19  20
ATOM     20  C   UNL     1       9.405  10.971  18.067  0.00  0.00    +0.000 C 
BRANCH  20  21
ATOM     21  C   UNL     1      10.342  12.150  18.448  0.00  0.00    +0.000 C 
ATOM     22  C   UNL     1      10.277  12.432  19.958  0.00  0.00    +0.000 C 
ATOM     23  C   UNL     1      11.798  11.828  18.059  0.00  0.00    +0.000 C 
BRANCH  21  24
ATOM     24  C   UNL     1       9.873  13.424  17.701  0.00  0.00    +0.000 C 
BRANCH  24  25
ATOM     25  O   UNL     1       8.546  13.301  17.201  0.00  0.00    +0.000 OA
ATOM     26  H   UNL     1       8.582  12.782  16.379  0.00  0.00    +0.000 HD
ENDBRANCH  24  25
ENDBRANCH  21  24
ENDBRANCH  20  21
ENDBRANCH  19  20
ENDBRANCH  18  19
ENDBRANCH  17  18
ENDBRANCH   4  17
TORSDOF 14
ENDMDL
MODEL 7
REMARK VINA RESULT:      -6.0      1.119     10.613
REMARK  Name = 
REMARK  18 active torsions:
REMARK  status: ('A' for Active; 'I' for Inactive)
REMARK    1  A    between atoms: C_1  and  C_2
REMARK    2  A    between atoms: C_2  and  C_3
REMARK    3  A    between atoms: C_2  and  C_4
REMARK    4  A    between atoms: C_2  and  C_6
REMARK    5  A    between atoms: C_4  and  O_5
REMARK    6  A    between atoms: C_6  and  C_7
REMARK    7  A    between atoms: C_7  and  C_8
REMARK    8  A    between atoms: C_8  and  C_9
REMARK    9  A    between atoms: C_9  and  N_10
REMARK   10  A    between atoms: N_13  and  C_14
REMARK   11  A    between atoms: C_14  and  C_15
REMARK   12  A    between atoms: C_15  and  C_16
REMARK   13  A    between atoms: C_16  and  C_17
REMARK   14  A    between atoms: C_17  and  C_18
REMARK   15  A    between atoms: C_18  and  C_19
REMARK   16  A    between atoms: C_18  and  C_20
REMARK   17  A    between atoms: C_18  and  C_21
REMARK   18  A    between atoms: C_21  and  O_22
REMARK                            x       y       z     vdW  Elec       q    Type
REMARK                         _______ _______ _______ _____ _____    ______ ____
ROOT
ATOM      1  N   UNL     1       7.447   7.684  17.376  0.00  0.00    +0.000 N 
ATOM      2  C   UNL     1       7.107   6.373  17.570  0.00  0.00    +0.000 C 
ATOM      3  O   UNL     1       7.464   5.718  18.537  0.00  0.00    +0.000 OA
ATOM      4  N   UNL     1       6.324   5.880  16.556  0.00  0.00    +0.000 N 
ATOM      5  H   UNL     1       7.210   8.121  16.499  0.00  0.00    +0.000 HD
ATOM      6  H   UNL     1       5.841   6.559  15.990  0.00  0.00    +0.000 HD
ENDROOT
BRANCH   1   7
ATOM      7  C   UNL     1       8.410   8.324  18.244  0.00  0.00    +0.000 C 
BRANCH   7   8
ATOM      8  C   UNL     1       8.359   9.849  18.136  0.00  0.00    +0.000 C 
BRANCH   8   9
ATOM      9  C   UNL     1       9.578  10.569  18.727  0.00  0.00    +0.000 C 
BRANCH   9  10
ATOM     10  C   UNL     1      10.052  11.744  17.864  0.00  0.00    +0.000 C 
BRANCH  10  12
ATOM     11  C   UNL     1      12.099  13.084  17.348  0.00  0.00    +0.000 C 
ATOM     12  C   UNL     1      11.159  12.633  18.488  0.00  0.00    +0.000 C 
ATOM     13  C   UNL     1      11.996  11.819  19.495  0.00  0.00    +0.000 C 
BRANCH  12  14
ATOM     14  C   UNL     1      10.542  13.877  19.165  0.00  0.00    +0.000 C 
BRANCH  14  15
ATOM     15  O   UNL     1      11.058  15.086  18.627  0.00  0.00    +0.000 OA
ATOM     16  H   UNL     1      10.348  15.503  18.108  0.00  0.00    +0.000 HD
ENDBRANCH  14  15
ENDBRANCH  12  14
ENDBRANCH  10  12
ENDBRANCH   9  10
ENDBRANCH   8   9
ENDBRANCH   7   8
ENDBRANCH   1   7
BRANCH   4  17
ATOM     17  C   UNL     1       5.675   4.606  16.762  0.00  0.00    +0.000 C 
BRANCH  17  18
ATOM     18  C   UNL     1       4.169   4.750  16.944  0.00  0.00    +0.000 C 
BRANCH  18  19
ATOM     19  C   UNL     1       3.560   3.529  17.640  0.00  0.00    +0.000 C 
BRANCH  19  20
ATOM     20  C   UNL     1       3.536   3.662  19.170  0.00  0.00    +0.000 C 
BRANCH  20  21
ATOM     21  C   UNL     1       2.142   3.517  19.839  0.00  0.00    +0.000 C 
ATOM     22  C   UNL     1       1.643   4.876  20.359  0.00  0.00    +0.000 C 
ATOM     23  C   UNL     1       1.117   2.957  18.834  0.00  0.00    +0.000 C 
BRANCH  21  24
ATOM     24  C   UNL     1       2.263   2.556  21.048  0.00  0.00    +0.000 C 
BRANCH  24  25
ATOM     25  O   UNL     1       2.180   3.239  22.293  0.00  0.00    +0.000 OA
ATOM     26  H   UNL     1       2.568   2.666  22.976  0.00  0.00    +0.000 HD
ENDBRANCH  24  25
ENDBRANCH  21  24
ENDBRANCH  20  21
ENDBRANCH  19  20
ENDBRANCH  18  19
ENDBRANCH  17  18
ENDBRANCH   4  17
TORSDOF 14
ENDMDL
MODEL 8
REMARK VINA RESULT:      -6.0      1.294     10.434
REMARK  Name = 
REMARK  18 active torsions:
REMARK  status: ('A' for Active; 'I' for Inactive)
REMARK    1  A    between atoms: C_1  and  C_2
REMARK    2  A    between atoms: C_2  and  C_3
REMARK    3  A    between atoms: C_2  and  C_4
REMARK    4  A    between atoms: C_2  and  C_6
REMARK    5  A    between atoms: C_4  and  O_5
REMARK    6  A    between atoms: C_6  and  C_7
REMARK    7  A    between atoms: C_7  and  C_8
REMARK    8  A    between atoms: C_8  and  C_9
REMARK    9  A    between atoms: C_9  and  N_10
REMARK   10  A    between atoms: N_13  and  C_14
REMARK   11  A    between atoms: C_14  and  C_15
REMARK   12  A    between atoms: C_15  and  C_16
REMARK   13  A    between atoms: C_16  and  C_17
REMARK   14  A    between atoms: C_17  and  C_18
REMARK   15  A    between atoms: C_18  and  C_19
REMARK   16  A    between atoms: C_18  and  C_20
REMARK   17  A    between atoms: C_18  and  C_21
REMARK   18  A    between atoms: C_21  and  O_22
REMARK                            x       y       z     vdW  Elec       q    Type
REMARK                         _______ _______ _______ _____ _____    ______ ____
ROOT
ATOM      1  N   UNL     1       7.827   7.309  17.102  0.00  0.00    +0.000 N 
ATOM      2  C   UNL     1       6.595   6.726  16.979  0.00  0.00    +0.000 C 
ATOM      3  O   UNL     1       5.656   6.964  17.722  0.00  0.00    +0.000 OA
ATOM      4  N   UNL     1       6.538   5.843  15.929  0.00  0.00    +0.000 N 
ATOM      5  H   UNL     1       8.581   6.975  16.523  0.00  0.00    +0.000 HD
ATOM      6  H   UNL     1       7.239   5.950  15.212  0.00  0.00    +0.000 HD
ENDROOT
BRANCH   1   7
ATOM      7  C   UNL     1       8.133   8.130  18.253  0.00  0.00    +0.000 C 
BRANCH   7   8
ATOM      8  C   UNL     1       8.505   9.560  17.857  0.00  0.00    +0.000 C 
BRANCH   8   9
ATOM      9  C   UNL     1       9.221  10.356  18.956  0.00  0.00    +0.000 C 
BRANCH   9  10
ATOM     10  C   UNL     1       9.215  11.868  18.695  0.00  0.00    +0.000 C 
BRANCH  10  12
ATOM     11  C   UNL     1      10.615  13.026  20.413  0.00  0.00    +0.000 C 
ATOM     12  C   UNL     1      10.565  12.596  18.930  0.00  0.00    +0.000 C 
ATOM     13  C   UNL     1      10.643  13.870  18.067  0.00  0.00    +0.000 C 
BRANCH  12  14
ATOM     14  C   UNL     1      11.751  11.654  18.629  0.00  0.00    +0.000 C 
BRANCH  14  15
ATOM     15  O   UNL     1      12.219  11.799  17.295  0.00  0.00    +0.000 OA
ATOM     16  H   UNL     1      13.063  12.281  17.331  0.00  0.00    +0.000 HD
ENDBRANCH  14  15
ENDBRANCH  12  14
ENDBRANCH  10  12
ENDBRANCH   9  10
ENDBRANCH   8   9
ENDBRANCH   7   8
ENDBRANCH   1   7
BRANCH   4  17
ATOM     17  C   UNL     1       5.239   5.364  15.519  0.00  0.00    +0.000 C 
BRANCH  17  18
ATOM     18  C   UNL     1       4.790   4.154  16.329  0.00  0.00    +0.000 C 
BRANCH  18  19
ATOM     19  C   UNL     1       3.640   4.498  17.280  0.00  0.00    +0.000 C 
BRANCH  19  20
ATOM     20  C   UNL     1       2.556   3.411  17.328  0.00  0.00    +0.000 C 
BRANCH  20  21
ATOM     21  C   UNL     1       2.024   3.050  18.742  0.00  0.00    +0.000 C 
ATOM     22  C   UNL     1       0.763   2.175  18.643  0.00  0.00    +0.000 C 
ATOM     23  C   UNL     1       3.098   2.293  19.546  0.00  0.00    +0.000 C 
BRANCH  21  24
ATOM     24  C   UNL     1       1.644   4.357  19.483  0.00  0.00    +0.000 C 
BRANCH  24  25
ATOM     25  O   UNL     1       0.578   4.166  20.405  0.00  0.00    +0.000 OA
ATOM     26  H   UNL     1       0.205   5.039  20.618  0.00  0.00    +0.000 HD
ENDBRANCH  24  25
ENDBRANCH  21  24
ENDBRANCH  20  21
ENDBRANCH  19  20
ENDBRANCH  18  19
ENDBRANCH  17  18
ENDBRANCH   4  17
TORSDOF 14
ENDMDL
MODEL 9
REMARK VINA RESULT:      -5.9      1.639     10.355
REMARK  Name = 
REMARK  18 active torsions:
REMARK  status: ('A' for Active; 'I' for Inactive)
REMARK    1  A    between atoms: C_1  and  C_2
REMARK    2  A    between atoms: C_2  and  C_3
REMARK    3  A    between atoms: C_2  and  C_4
REMARK    4  A    between atoms: C_2  and  C_6
REMARK    5  A    between atoms: C_4  and  O_5
REMARK    6  A    between atoms: C_6  and  C_7
REMARK    7  A    between atoms: C_7  and  C_8
REMARK    8  A    between atoms: C_8  and  C_9
REMARK    9  A    between atoms: C_9  and  N_10
REMARK   10  A    between atoms: N_13  and  C_14
REMARK   11  A    between atoms: C_14  and  C_15
REMARK   12  A    between atoms: C_15  and  C_16
REMARK   13  A    between atoms: C_16  and  C_17
REMARK   14  A    between atoms: C_17  and  C_18
REMARK   15  A    between atoms: C_18  and  C_19
REMARK   16  A    between atoms: C_18  and  C_20
REMARK   17  A    between atoms: C_18  and  C_21
REMARK   18  A    between atoms: C_21  and  O_22
REMARK                            x       y       z     vdW  Elec       q    Type
REMARK                         _______ _______ _______ _____ _____    ______ ____
ROOT
ATOM      1  N   UNL     1       8.524   8.071  18.786  0.00  0.00    +0.000 N 
ATOM      2  C   UNL     1       7.876   7.149  18.011  0.00  0.00    +0.000 C 
ATOM      3  O   UNL     1       7.502   7.367  16.869  0.00  0.00    +0.000 OA
ATOM      4  N   UNL     1       7.693   5.954  18.662  0.00  0.00    +0.000 N 
ATOM      5  H   UNL     1       8.697   7.853  19.756  0.00  0.00    +0.000 HD
ATOM      6  H   UNL     1       8.293   5.776  19.452  0.00  0.00    +0.000 HD
ENDROOT
BRANCH   1   7
ATOM      7  C   UNL     1       8.649   9.440  18.339  0.00  0.00    +0.000 C 
BRANCH   7   8
ATOM      8  C   UNL     1       9.141  10.367  19.452  0.00  0.00    +0.000 C 
BRANCH   8   9
ATOM      9  C   UNL     1      10.512  11.004  19.190  0.00  0.00    +0.000 C 
BRANCH   9  10
ATOM     10  C   UNL     1      10.604  11.671  17.811  0.00  0.00    +0.000 C 
BRANCH  10  12
ATOM     11  C   UNL     1       9.420  13.872  17.862  0.00  0.00    +0.000 C 
ATOM     12  C   UNL     1      10.814  13.208  17.822  0.00  0.00    +0.000 C 
ATOM     13  C   UNL     1      11.515  13.662  16.526  0.00  0.00    +0.000 C 
BRANCH  12  14
ATOM     14  C   UNL     1      11.623  13.639  19.064  0.00  0.00    +0.000 C 
BRANCH  14  15
ATOM     15  O   UNL     1      12.013  15.003  18.997  0.00  0.00    +0.000 OA
ATOM     16  H   UNL     1      11.318  15.484  18.515  0.00  0.00    +0.000 HD
ENDBRANCH  14  15
ENDBRANCH  12  14
ENDBRANCH  10  12
ENDBRANCH   9  10
ENDBRANCH   8   9
ENDBRANCH   7   8
ENDBRANCH   1   7
BRANCH   4  17
ATOM     17  C   UNL     1       7.270   4.816  17.880  0.00  0.00    +0.000 C 
BRANCH  17  18
ATOM     18  C   UNL     1       5.758   4.773  17.696  0.00  0.00    +0.000 C 
BRANCH  18  19
ATOM     19  C   UNL     1       5.062   4.057  18.858  0.00  0.00    +0.000 C 
BRANCH  19  20
ATOM     20  C   UNL     1       4.059   4.954  19.600  0.00  0.00    +0.000 C 
BRANCH  20  21
ATOM     21  C   UNL     1       2.564   4.561  19.452  0.00  0.00    +0.000 C 
ATOM     22  C   UNL     1       2.386   3.038  19.570  0.00  0.00    +0.000 C 
ATOM     23  C   UNL     1       1.715   5.252  20.536  0.00  0.00    +0.000 C 
BRANCH  21  24
ATOM     24  C   UNL     1       2.069   4.995  18.048  0.00  0.00    +0.000 C 
BRANCH  24  25
ATOM     25  O   UNL     1       1.315   3.976  17.402  0.00  0.00    +0.000 OA
ATOM     26  H   UNL     1       1.882   3.565  16.728  0.00  0.00    +0.000 HD
ENDBRANCH  24  25
ENDBRANCH  21  24
ENDBRANCH  20  21
ENDBRANCH  19  20
ENDBRANCH  18  19
ENDBRANCH  17  18
ENDBRANCH   4  17
TORSDOF 14
ENDMDL
