MODEL 1
REMARK VINA RESULT:      -7.7      0.000      0.000
REMARK  Name = 
REMARK  8 active torsions:
REMARK  status: ('A' for Active; 'I' for Inactive)
REMARK    1  A    between atoms: C_1  and  O_2
REMARK    2  A    between atoms: O_2  and  C_3
REMARK    3  A    between atoms: C_6  and  C_7
REMARK    4  A    between atoms: N_9  and  C_10
REMARK    5  A    between atoms: N_13  and  C_14
REMARK    6  A    between atoms: C_14  and  C_15
REMARK    7  A    between atoms: C_24  and  O_25
REMARK    8  A    between atoms: O_25  and  C_26
REMARK                            x       y       z     vdW  Elec       q    Type
REMARK                         _______ _______ _______ _____ _____    ______ ____
ROOT
ATOM      1  C   UNL     1       8.341   9.240  18.228  0.00  0.00    +0.000 C 
ATOM      2  O   UNL     1       7.361   9.570  17.572  0.00  0.00    +0.000 OA
ATOM      3  N   UNL     1       8.599   7.954  18.681  0.00  0.00    +0.000 N 
ATOM      4  H   UNL     1       9.294   7.869  19.414  0.00  0.00    +0.000 HD
ENDROOT
BRANCH   1   8
ATOM      5  C   UNL     1      11.032  12.313  19.537  0.00  0.00    +0.000 A 
ATOM      6  C   UNL     1      11.091  11.838  18.218  0.00  0.00    +0.000 A 
ATOM      7  C   UNL     1      10.223  10.846  17.773  0.00  0.00    +0.000 A 
ATOM      8  C   UNL     1       9.312  10.283  18.663  0.00  0.00    +0.000 A 
ATOM      9  C   UNL     1       9.285  10.707  19.994  0.00  0.00    +0.000 A 
ATOM     10  C   UNL     1      10.146  11.716  20.448  0.00  0.00    +0.000 A 
BRANCH   5  12
ATOM     11  C   UNL     1      11.738  14.559  19.259  0.00  0.00    +0.000 C 
ATOM     12  O   UNL     1      11.871  13.309  19.941  0.00  0.00    +0.000 OA
ENDBRANCH   5  12
BRANCH  10  13
ATOM     13  O   UNL     1       9.969  11.970  21.780  0.00  0.00    +0.000 OA
ATOM     14  C   UNL     1       8.999  12.934  22.175  0.00  0.00    +0.000 C 
ENDBRANCH  10  13
ENDBRANCH   1   8
BRANCH   3  15
ATOM     15  C   UNL     1       7.798   6.830  18.407  0.00  0.00    +0.000 A 
ATOM     16  C   UNL     1       7.236   6.588  17.157  0.00  0.00    +0.000 A 
ATOM     17  C   UNL     1       6.322   5.559  17.002  0.00  0.00    +0.000 A 
ATOM     18  N   UNL     1       5.977   4.781  18.051  0.00  0.00    +0.000 N 
ATOM     19  C   UNL     1       6.601   4.923  19.242  0.00  0.00    +0.000 A 
ATOM     20  C   UNL     1       7.527   5.943  19.443  0.00  0.00    +0.000 A 
BRANCH  18  21
ATOM     21  C   UNL     1       4.813   3.876  17.929  0.00  0.00    +0.000 C 
BRANCH  21  22
ATOM     22  C   UNL     1       3.903   3.926  19.124  0.00  0.00    +0.000 A 
ATOM     23  C   UNL     1       3.182   5.093  19.421  0.00  0.00    +0.000 A 
ATOM     24  C   UNL     1       2.268   5.110  20.475  0.00  0.00    +0.000 A 
ATOM     25  C   UNL     1       2.071   3.970  21.248  0.00  0.00    +0.000 A 
ATOM     26  C   UNL     1       2.798   2.813  20.979  0.00  0.00    +0.000 A 
ATOM     27  C   UNL     1       3.711   2.789  19.925  0.00  0.00    +0.000 A 
ENDBRANCH  21  22
ENDBRANCH  18  21
ENDBRANCH   3  15
TORSDOF 6
ENDMDL
MODEL 2
REMARK VINA RESULT:      -7.7      0.369      1.034
REMARK  Name = 
REMARK  8 active torsions:
REMARK  status: ('A' for Active; 'I' for Inactive)
REMARK    1  A    between atoms: C_1  and  O_2
REMARK    2  A    between atoms: O_2  and  C_3
REMARK    3  A    between atoms: C_6  and  C_7
REMARK    4  A    between atoms: N_9  and  C_10
REMARK    5  A    between atoms: N_13  and  C_14
REMARK    6  A    between atoms: C_14  and  C_15
REMARK    7  A    between atoms: C_24  and  O_25
REMARK    8  A    between atoms: O_25  and  C_26
REMARK                            x       y       z     vdW  Elec       q    Type
REMARK                         _______ _______ _______ _____ _____    ______ ____
ROOT
ATOM      1  C   UNL     1       8.413   9.363  18.227  0.00  0.00    +0.000 C 
ATOM      2  O   UNL     1       7.457   9.690  17.534  0.00  0.00    +0.000 OA
ATOM      3  N   UNL     1       8.651   8.079  18.698  0.00  0.00    +0.000 N 
ATOM      4  H   UNL     1       9.320   7.999  19.455  0.00  0.00    +0.000 HD
ENDROOT
BRANCH   1   8
ATOM      5  C   UNL     1      11.065  12.437  19.609  0.00  0.00    +0.000 A 
ATOM      6  C   UNL     1      11.155  11.969  18.289  0.00  0.00    +0.000 A 
ATOM      7  C   UNL     1      10.300  10.976  17.821  0.00  0.00    +0.000 A 
ATOM      8  C   UNL     1       9.371  10.406  18.688  0.00  0.00    +0.000 A 
ATOM      9  C   UNL     1       9.313  10.825  20.019  0.00  0.00    +0.000 A 
ATOM     10  C   UNL     1      10.160  11.834  20.497  0.00  0.00    +0.000 A 
BRANCH   5  12
ATOM     11  C   UNL     1      11.611  14.743  19.535  0.00  0.00    +0.000 C 
ATOM     12  O   UNL     1      11.892  13.434  20.036  0.00  0.00    +0.000 OA
ENDBRANCH   5  12
BRANCH  10  13
ATOM     13  O   UNL     1       9.953  12.082  21.826  0.00  0.00    +0.000 OA
ATOM     14  C   UNL     1       9.026  13.095  22.202  0.00  0.00    +0.000 C 
ENDBRANCH  10  13
ENDBRANCH   1   8
BRANCH   3  15
ATOM     15  C   UNL     1       7.857   6.955  18.404  0.00  0.00    +0.000 A 
ATOM     16  C   UNL     1       7.226   6.775  17.177  0.00  0.00    +0.000 A 
ATOM     17  C   UNL     1       6.324   5.737  17.014  0.00  0.00    +0.000 A 
ATOM     18  N   UNL     1       6.058   4.890  18.032  0.00  0.00    +0.000 N 
ATOM     19  C   UNL     1       6.750   4.976  19.191  0.00  0.00    +0.000 A 
ATOM     20  C   UNL     1       7.666   6.003  19.399  0.00  0.00    +0.000 A 
BRANCH  18  21
ATOM     21  C   UNL     1       4.907   3.967  17.924  0.00  0.00    +0.000 C 
BRANCH  21  22
ATOM     22  C   UNL     1       3.794   4.304  18.876  0.00  0.00    +0.000 A 
ATOM     23  C   UNL     1       3.370   3.369  19.834  0.00  0.00    +0.000 A 
ATOM     24  C   UNL     1       2.401   3.714  20.778  0.00  0.00    +0.000 A 
ATOM     25  C   UNL     1       1.841   4.988  20.771  0.00  0.00    +0.000 A 
ATOM     26  C   UNL     1       2.237   5.917  19.811  0.00  0.00    +0.000 A 
ATOM     27  C   UNL     1       3.206   5.579  18.867  0.00  0.00    +0.000 A 
ENDBRANCH  21  22
ENDBRANCH  18  21
ENDBRANCH   3  15
TORSDOF 6
ENDMDL
MODEL 3
REMARK VINA RESULT:      -7.7      0.870      2.073
REMARK  Name = 
REMARK  8 active torsions:
REMARK  status: ('A' for Active; 'I' for Inactive)
REMARK    1  A    between atoms: C_1  and  O_2
REMARK    2  A    between atoms: O_2  and  C_3
REMARK    3  A    between atoms: C_6  and  C_7
REMARK    4  A    between atoms: N_9  and  C_10
REMARK    5  A    between atoms: N_13  and  C_14
REMARK    6  A    between atoms: C_14  and  C_15
REMARK    7  A    between atoms: C_24  and  O_25
REMARK    8  A    between atoms: O_25  and  C_26
REMARK                            x       y       z     vdW  Elec       q    Type
REMARK                         _______ _______ _______ _____ _____    ______ ____
ROOT
ATOM      1  C   UNL     1       8.258   9.280  18.213  0.00  0.00    +0.000 C 
ATOM      2  O   UNL     1       7.292   9.573  17.520  0.00  0.00    +0.000 OA
ATOM      3  N   UNL     1       8.550   8.004  18.674  0.00  0.00    +0.000 N 
ATOM      4  H   UNL     1       9.219   7.945  19.433  0.00  0.00    +0.000 HD
ENDROOT
BRANCH   1   8
ATOM      5  C   UNL     1      10.974  12.351  19.475  0.00  0.00    +0.000 A 
ATOM      6  C   UNL     1      10.406  11.480  20.418  0.00  0.00    +0.000 A 
ATOM      7  C   UNL     1       9.527  10.474  20.027  0.00  0.00    +0.000 A 
ATOM      8  C   UNL     1       9.170  10.359  18.686  0.00  0.00    +0.000 A 
ATOM      9  C   UNL     1       9.684  11.258  17.749  0.00  0.00    +0.000 A 
ATOM     10  C   UNL     1      10.581  12.265  18.131  0.00  0.00    +0.000 A 
BRANCH   5  12
ATOM     11  C   UNL     1      11.291  14.557  20.285  0.00  0.00    +0.000 C 
ATOM     12  O   UNL     1      11.858  13.309  19.878  0.00  0.00    +0.000 OA
ENDBRANCH   5  12
BRANCH  10  13
ATOM     13  O   UNL     1      10.950  13.044  17.067  0.00  0.00    +0.000 OA
ATOM     14  C   UNL     1      12.331  13.327  16.868  0.00  0.00    +0.000 C 
ENDBRANCH  10  13
ENDBRANCH   1   8
BRANCH   3  15
ATOM     15  C   UNL     1       7.805   6.849  18.369  0.00  0.00    +0.000 A 
ATOM     16  C   UNL     1       7.314   6.581  17.094  0.00  0.00    +0.000 A 
ATOM     17  C   UNL     1       6.447   5.519  16.902  0.00  0.00    +0.000 A 
ATOM     18  N   UNL     1       6.080   4.733  17.937  0.00  0.00    +0.000 N 
ATOM     19  C   UNL     1       6.639   4.904  19.156  0.00  0.00    +0.000 A 
ATOM     20  C   UNL     1       7.516   5.958  19.396  0.00  0.00    +0.000 A 
BRANCH  18  21
ATOM     21  C   UNL     1       4.957   3.785  17.764  0.00  0.00    +0.000 C 
BRANCH  21  22
ATOM     22  C   UNL     1       3.904   3.924  18.827  0.00  0.00    +0.000 A 
ATOM     23  C   UNL     1       3.714   2.907  19.777  0.00  0.00    +0.000 A 
ATOM     24  C   UNL     1       2.801   3.075  20.819  0.00  0.00    +0.000 A 
ATOM     25  C   UNL     1       2.063   4.251  20.919  0.00  0.00    +0.000 A 
ATOM     26  C   UNL     1       2.226   5.258  19.970  0.00  0.00    +0.000 A 
ATOM     27  C   UNL     1       3.138   5.096  18.927  0.00  0.00    +0.000 A 
ENDBRANCH  21  22
ENDBRANCH  18  21
ENDBRANCH   3  15
TORSDOF 6
ENDMDL
MODEL 4
REMARK VINA RESULT:      -7.5      0.978      1.916
REMARK  Name = 
REMARK  8 active torsions:
REMARK  status: ('A' for Active; 'I' for Inactive)
REMARK    1  A    between atoms: C_1  and  O_2
REMARK    2  A    between atoms: O_2  and  C_3
REMARK    3  A    between atoms: C_6  and  C_7
REMARK    4  A    between atoms: N_9  and  C_10
REMARK    5  A    between atoms: N_13  and  C_14
REMARK    6  A    between atoms: C_14  and  C_15
REMARK    7  A    between atoms: C_24  and  O_25
REMARK    8  A    between atoms: O_25  and  C_26
REMARK                            x       y       z     vdW  Elec       q    Type
REMARK                         _______ _______ _______ _____ _____    ______ ____
ROOT
ATOM      1  C   UNL     1       8.270   9.285  18.094  0.00  0.00    +0.000 C 
ATOM      2  O   UNL     1       7.393   9.558  17.284  0.00  0.00    +0.000 OA
ATOM      3  N   UNL     1       8.502   8.022  18.620  0.00  0.00    +0.000 N 
ATOM      4  H   UNL     1       9.078   7.984  19.454  0.00  0.00    +0.000 HD
ENDROOT
BRANCH   1   8
ATOM      5  C   UNL     1      10.823  12.397  19.577  0.00  0.00    +0.000 A 
ATOM      6  C   UNL     1      10.217  11.497  20.467  0.00  0.00    +0.000 A 
ATOM      7  C   UNL     1       9.391  10.477  20.005  0.00  0.00    +0.000 A 
ATOM      8  C   UNL     1       9.123  10.377  18.642  0.00  0.00    +0.000 A 
ATOM      9  C   UNL     1       9.674  11.304  17.754  0.00  0.00    +0.000 A 
ATOM     10  C   UNL     1      10.519  12.325  18.208  0.00  0.00    +0.000 A 
BRANCH   5  12
ATOM     11  C   UNL     1      11.027  14.572  20.499  0.00  0.00    +0.000 C 
ATOM     12  O   UNL     1      11.655  13.368  20.051  0.00  0.00    +0.000 OA
ENDBRANCH   5  12
BRANCH  10  13
ATOM     13  O   UNL     1      10.936  13.131  17.183  0.00  0.00    +0.000 OA
ATOM     14  C   UNL     1      12.332  13.320  16.981  0.00  0.00    +0.000 C 
ENDBRANCH  10  13
ENDBRANCH   1   8
BRANCH   3  15
ATOM     15  C   UNL     1       7.795   6.859  18.261  0.00  0.00    +0.000 A 
ATOM     16  C   UNL     1       7.281   6.652  16.984  0.00  0.00    +0.000 A 
ATOM     17  C   UNL     1       6.451   5.569  16.746  0.00  0.00    +0.000 A 
ATOM     18  N   UNL     1       6.143   4.705  17.738  0.00  0.00    +0.000 N 
ATOM     19  C   UNL     1       6.729   4.822  18.951  0.00  0.00    +0.000 A 
ATOM     20  C   UNL     1       7.570   5.894  19.236  0.00  0.00    +0.000 A 
BRANCH  18  21
ATOM     21  C   UNL     1       5.055   3.725  17.533  0.00  0.00    +0.000 C 
BRANCH  21  22
ATOM     22  C   UNL     1       3.870   3.970  18.423  0.00  0.00    +0.000 A 
ATOM     23  C   UNL     1       2.952   4.989  18.122  0.00  0.00    +0.000 A 
ATOM     24  C   UNL     1       1.803   5.157  18.896  0.00  0.00    +0.000 A 
ATOM     25  C   UNL     1       1.562   4.319  19.981  0.00  0.00    +0.000 A 
ATOM     26  C   UNL     1       2.477   3.320  20.305  0.00  0.00    +0.000 A 
ATOM     27  C   UNL     1       3.626   3.146  19.533  0.00  0.00    +0.000 A 
ENDBRANCH  21  22
ENDBRANCH  18  21
ENDBRANCH   3  15
TORSDOF 6
ENDMDL
MODEL 5
REMARK VINA RESULT:      -7.4      1.631      2.054
REMARK  Name = 
REMARK  8 active torsions:
REMARK  status: ('A' for Active; 'I' for Inactive)
REMARK    1  A    between atoms: C_1  and  O_2
REMARK    2  A    between atoms: O_2  and  C_3
REMARK    3  A    between atoms: C_6  and  C_7
REMARK    4  A    between atoms: N_9  and  C_10
REMARK    5  A    between atoms: N_13  and  C_14
REMARK    6  A    between atoms: C_14  and  C_15
REMARK    7  A    between atoms: C_24  and  O_25
REMARK    8  A    between atoms: O_25  and  C_26
REMARK                            x       y       z     vdW  Elec       q    Type
REMARK                         _______ _______ _______ _____ _____    ______ ____
ROOT
ATOM      1  C   UNL     1       8.138   8.702  18.246  0.00  0.00    +0.000 C 
ATOM      2  O   UNL     1       8.689   7.862  18.945  0.00  0.00    +0.000 OA
ATOM      3  N   UNL     1       7.133   8.437  17.325  0.00  0.00    +0.000 N 
ATOM      4  H   UNL     1       6.948   9.165  16.644  0.00  0.00    +0.000 HD
ENDROOT
BRANCH   1   8
ATOM      5  C   UNL     1       9.462  12.772  18.534  0.00  0.00    +0.000 A 
ATOM      6  C   UNL     1       8.542  12.398  17.542  0.00  0.00    +0.000 A 
ATOM      7  C   UNL     1       8.096  11.084  17.436  0.00  0.00    +0.000 A 
ATOM      8  C   UNL     1       8.606  10.116  18.298  0.00  0.00    +0.000 A 
ATOM      9  C   UNL     1       9.565  10.467  19.251  0.00  0.00    +0.000 A 
ATOM     10  C   UNL     1      10.010  11.790  19.374  0.00  0.00    +0.000 A 
BRANCH   5  12
ATOM     11  C   UNL     1      10.874  14.496  17.725  0.00  0.00    +0.000 C 
ATOM     12  O   UNL     1       9.859  14.073  18.639  0.00  0.00    +0.000 OA
ENDBRANCH   5  12
BRANCH  10  13
ATOM     13  O   UNL     1      10.958  11.916  20.353  0.00  0.00    +0.000 OA
ATOM     14  C   UNL     1      12.333  11.873  19.989  0.00  0.00    +0.000 C 
ENDBRANCH  10  13
ENDBRANCH   1   8
BRANCH   3  15
ATOM     15  C   UNL     1       6.566   7.170  17.098  0.00  0.00    +0.000 A 
ATOM     16  C   UNL     1       5.199   6.974  16.920  0.00  0.00    +0.000 A 
ATOM     17  C   UNL     1       4.691   5.686  16.872  0.00  0.00    +0.000 A 
ATOM     18  N   UNL     1       5.510   4.618  16.986  0.00  0.00    +0.000 N 
ATOM     19  C   UNL     1       6.850   4.786  17.037  0.00  0.00    +0.000 A 
ATOM     20  C   UNL     1       7.406   6.062  17.087  0.00  0.00    +0.000 A 
BRANCH  18  21
ATOM     21  C   UNL     1       4.923   3.277  17.202  0.00  0.00    +0.000 C 
BRANCH  21  22
ATOM     22  C   UNL     1       3.707   3.304  18.084  0.00  0.00    +0.000 A 
ATOM     23  C   UNL     1       3.842   3.403  19.478  0.00  0.00    +0.000 A 
ATOM     24  C   UNL     1       2.713   3.522  20.291  0.00  0.00    +0.000 A 
ATOM     25  C   UNL     1       1.442   3.534  19.723  0.00  0.00    +0.000 A 
ATOM     26  C   UNL     1       1.294   3.414  18.344  0.00  0.00    +0.000 A 
ATOM     27  C   UNL     1       2.419   3.297  17.527  0.00  0.00    +0.000 A 
ENDBRANCH  21  22
ENDBRANCH  18  21
ENDBRANCH   3  15
TORSDOF 6
ENDMDL
MODEL 6
REMARK VINA RESULT:      -7.3      6.522      9.784
REMARK  Name = 
REMARK  8 active torsions:
REMARK  status: ('A' for Active; 'I' for Inactive)
REMARK    1  A    between atoms: C_1  and  O_2
REMARK    2  A    between atoms: O_2  and  C_3
REMARK    3  A    between atoms: C_6  and  C_7
REMARK    4  A    between atoms: N_9  and  C_10
REMARK    5  A    between atoms: N_13  and  C_14
REMARK    6  A    between atoms: C_14  and  C_15
REMARK    7  A    between atoms: C_24  and  O_25
REMARK    8  A    between atoms: O_25  and  C_26
REMARK                            x       y       z     vdW  Elec       q    Type
REMARK                         _______ _______ _______ _____ _____    ______ ____
ROOT
ATOM      1  C   UNL     1       2.153   8.043  18.690  0.00  0.00    +0.000 C 
ATOM      2  O   UNL     1       1.888   8.036  19.886  0.00  0.00    +0.000 OA
ATOM      3  N   UNL     1       1.783   9.040  17.798  0.00  0.00    +0.000 N 
ATOM      4  H   UNL     1       1.840   8.803  16.814  0.00  0.00    +0.000 HD
ENDROOT
BRANCH   1   8
ATOM      5  C   UNL     1       4.153   4.604  17.087  0.00  0.00    +0.000 A 
ATOM      6  C   UNL     1       4.712   5.882  16.930  0.00  0.00    +0.000 A 
ATOM      7  C   UNL     1       4.081   7.009  17.448  0.00  0.00    +0.000 A 
ATOM      8  C   UNL     1       2.853   6.872  18.092  0.00  0.00    +0.000 A 
ATOM      9  C   UNL     1       2.261   5.612  18.201  0.00  0.00    +0.000 A 
ATOM     10  C   UNL     1       2.896   4.469  17.695  0.00  0.00    +0.000 A 
BRANCH   5  12
ATOM     11  C   UNL     1       5.955   3.773  15.788  0.00  0.00    +0.000 C 
ATOM     12  O   UNL     1       4.807   3.510  16.600  0.00  0.00    +0.000 OA
ENDBRANCH   5  12
BRANCH  10  13
ATOM     13  O   UNL     1       2.143   3.343  17.891  0.00  0.00    +0.000 OA
ATOM     14  C   UNL     1       1.605   3.091  19.185  0.00  0.00    +0.000 C 
ENDBRANCH  10  13
ENDBRANCH   1   8
BRANCH   3  15
ATOM     15  C   UNL     1       1.094  10.216  18.149  0.00  0.00    +0.000 A 
ATOM     16  C   UNL     1       1.742  11.396  18.503  0.00  0.00    +0.000 A 
ATOM     17  C   UNL     1       1.009  12.460  19.001  0.00  0.00    +0.000 A 
ATOM     18  N   UNL     1      -0.332  12.368  19.137  0.00  0.00    +0.000 N 
ATOM     19  C   UNL     1      -0.992  11.278  18.686  0.00  0.00    +0.000 A 
ATOM     20  C   UNL     1      -0.296  10.184  18.178  0.00  0.00    +0.000 A 
BRANCH  18  21
ATOM     21  C   UNL     1      -1.053  13.401  19.912  0.00  0.00    +0.000 C 
BRANCH  21  22
ATOM     22  C   UNL     1      -1.732  12.849  21.134  0.00  0.00    +0.000 A 
ATOM     23  C   UNL     1      -0.994  12.158  22.107  0.00  0.00    +0.000 A 
ATOM     24  C   UNL     1      -1.607  11.726  23.285  0.00  0.00    +0.000 A 
ATOM     25  C   UNL     1      -2.961  11.970  23.497  0.00  0.00    +0.000 A 
ATOM     26  C   UNL     1      -3.710  12.634  22.529  0.00  0.00    +0.000 A 
ATOM     27  C   UNL     1      -3.102  13.070  21.351  0.00  0.00    +0.000 A 
ENDBRANCH  21  22
ENDBRANCH  18  21
ENDBRANCH   3  15
TORSDOF 6
ENDMDL
MODEL 7
REMARK VINA RESULT:      -7.3      2.149      2.551
REMARK  Name = 
REMARK  8 active torsions:
REMARK  status: ('A' for Active; 'I' for Inactive)
REMARK    1  A    between atoms: C_1  and  O_2
REMARK    2  A    between atoms: O_2  and  C_3
REMARK    3  A    between atoms: C_6  and  C_7
REMARK    4  A    between atoms: N_9  and  C_10
REMARK    5  A    between atoms: N_13  and  C_14
REMARK    6  A    between atoms: C_14  and  C_15
REMARK    7  A    between atoms: C_24  and  O_25
REMARK    8  A    between atoms: O_25  and  C_26
REMARK                            x       y       z     vdW  Elec       q    Type
REMARK                         _______ _______ _______ _____ _____    ______ ____
ROOT
ATOM      1  C   UNL     1       8.394   9.047  18.262  0.00  0.00    +0.000 C 
ATOM      2  O   UNL     1       8.891   8.327  19.119  0.00  0.00    +0.000 OA
ATOM      3  N   UNL     1       7.395   8.660  17.379  0.00  0.00    +0.000 N 
ATOM      4  H   UNL     1       7.258   9.256  16.570  0.00  0.00    +0.000 HD
ENDROOT
BRANCH   1   8
ATOM      5  C   UNL     1       9.862  13.019  17.577  0.00  0.00    +0.000 A 
ATOM      6  C   UNL     1      10.746  11.994  17.951  0.00  0.00    +0.000 A 
ATOM      7  C   UNL     1      10.289  10.698  18.172  0.00  0.00    +0.000 A 
ATOM      8  C   UNL     1       8.928  10.424  18.066  0.00  0.00    +0.000 A 
ATOM      9  C   UNL     1       8.034  11.449  17.752  0.00  0.00    +0.000 A 
ATOM     10  C   UNL     1       8.486  12.754  17.514  0.00  0.00    +0.000 A 
BRANCH   5  12
ATOM     11  C   UNL     1      11.728  14.367  17.009  0.00  0.00    +0.000 C 
ATOM     12  O   UNL     1      10.338  14.273  17.334  0.00  0.00    +0.000 OA
ENDBRANCH   5  12
BRANCH  10  13
ATOM     13  O   UNL     1       7.450  13.606  17.239  0.00  0.00    +0.000 OA
ATOM     14  C   UNL     1       7.087  14.583  18.208  0.00  0.00    +0.000 C 
ENDBRANCH  10  13
ENDBRANCH   1   8
BRANCH   3  15
ATOM     15  C   UNL     1       6.772   7.398  17.374  0.00  0.00    +0.000 A 
ATOM     16  C   UNL     1       7.481   6.206  17.258  0.00  0.00    +0.000 A 
ATOM     17  C   UNL     1       6.796   5.014  17.087  0.00  0.00    +0.000 A 
ATOM     18  N   UNL     1       5.445   4.996  17.043  0.00  0.00    +0.000 N 
ATOM     19  C   UNL     1       4.739   6.125  17.275  0.00  0.00    +0.000 A 
ATOM     20  C   UNL     1       5.385   7.345  17.451  0.00  0.00    +0.000 A 
BRANCH  18  21
ATOM     21  C   UNL     1       4.753   3.768  16.596  0.00  0.00    +0.000 C 
BRANCH  21  22
ATOM     22  C   UNL     1       3.770   3.247  17.607  0.00  0.00    +0.000 A 
ATOM     23  C   UNL     1       4.204   2.855  18.883  0.00  0.00    +0.000 A 
ATOM     24  C   UNL     1       3.281   2.460  19.853  0.00  0.00    +0.000 A 
ATOM     25  C   UNL     1       1.921   2.442  19.557  0.00  0.00    +0.000 A 
ATOM     26  C   UNL     1       1.480   2.807  18.287  0.00  0.00    +0.000 A 
ATOM     27  C   UNL     1       2.398   3.205  17.315  0.00  0.00    +0.000 A 
ENDBRANCH  21  22
ENDBRANCH  18  21
ENDBRANCH   3  15
TORSDOF 6
ENDMDL
MODEL 8
REMARK VINA RESULT:      -7.1      7.221     10.318
REMARK  Name = 
REMARK  8 active torsions:
REMARK  status: ('A' for Active; 'I' for Inactive)
REMARK    1  A    between atoms: C_1  and  O_2
REMARK    2  A    between atoms: O_2  and  C_3
REMARK    3  A    between atoms: C_6  and  C_7
REMARK    4  A    between atoms: N_9  and  C_10
REMARK    5  A    between atoms: N_13  and  C_14
REMARK    6  A    between atoms: C_14  and  C_15
REMARK    7  A    between atoms: C_24  and  O_25
REMARK    8  A    between atoms: O_25  and  C_26
REMARK                            x       y       z     vdW  Elec       q    Type
REMARK                         _______ _______ _______ _____ _____    ______ ____
ROOT
ATOM      1  C   UNL     1       1.783   8.990  18.486  0.00  0.00    +0.000 C 
ATOM      2  O   UNL     1       2.002   9.689  17.504  0.00  0.00    +0.000 OA
ATOM      3  N   UNL     1       0.988   9.357  19.563  0.00  0.00    +0.000 N 
ATOM      4  H   UNL     1       1.097   8.805  20.406  0.00  0.00    +0.000 HD
ENDROOT
BRANCH   1   8
ATOM      5  C   UNL     1       3.780   5.226  18.978  0.00  0.00    +0.000 A 
ATOM      6  C   UNL     1       4.088   6.051  17.884  0.00  0.00    +0.000 A 
ATOM      7  C   UNL     1       3.455   7.278  17.711  0.00  0.00    +0.000 A 
ATOM      8  C   UNL     1       2.468   7.673  18.610  0.00  0.00    +0.000 A 
ATOM      9  C   UNL     1       2.113   6.833  19.668  0.00  0.00    +0.000 A 
ATOM     10  C   UNL     1       2.755   5.601  19.859  0.00  0.00    +0.000 A 
BRANCH   5  12
ATOM     11  C   UNL     1       4.038   2.974  18.282  0.00  0.00    +0.000 C 
ATOM     12  O   UNL     1       4.437   4.042  19.144  0.00  0.00    +0.000 OA
ENDBRANCH   5  12
BRANCH  10  13
ATOM     13  O   UNL     1       2.249   4.929  20.938  0.00  0.00    +0.000 OA
ATOM     14  C   UNL     1       1.285   3.904  20.722  0.00  0.00    +0.000 C 
ENDBRANCH  10  13
ENDBRANCH   1   8
BRANCH   3  15
ATOM     15  C   UNL     1       0.275  10.566  19.659  0.00  0.00    +0.000 A 
ATOM     16  C   UNL     1       0.736  11.660  20.386  0.00  0.00    +0.000 A 
ATOM     17  C   UNL     1      -0.092  12.753  20.581  0.00  0.00    +0.000 A 
ATOM     18  N   UNL     1      -1.339  12.773  20.063  0.00  0.00    +0.000 N 
ATOM     19  C   UNL     1      -1.760  11.774  19.255  0.00  0.00    +0.000 A 
ATOM     20  C   UNL     1      -0.962  10.656  19.031  0.00  0.00    +0.000 A 
BRANCH  18  21
ATOM     21  C   UNL     1      -2.289  13.818  20.505  0.00  0.00    +0.000 C 
BRANCH  21  22
ATOM     22  C   UNL     1      -2.649  13.705  21.960  0.00  0.00    +0.000 A 
ATOM     23  C   UNL     1      -2.348  14.748  22.851  0.00  0.00    +0.000 A 
ATOM     24  C   UNL     1      -2.764  14.683  24.181  0.00  0.00    +0.000 A 
ATOM     25  C   UNL     1      -3.474  13.576  24.639  0.00  0.00    +0.000 A 
ATOM     26  C   UNL     1      -3.758  12.525  23.771  0.00  0.00    +0.000 A 
ATOM     27  C   UNL     1      -3.347  12.585  22.440  0.00  0.00    +0.000 A 
ENDBRANCH  21  22
ENDBRANCH  18  21
ENDBRANCH   3  15
TORSDOF 6
ENDMDL
MODEL 9
REMARK VINA RESULT:      -7.1      7.144      9.391
REMARK  Name = 
REMARK  8 active torsions:
REMARK  status: ('A' for Active; 'I' for Inactive)
REMARK    1  A    between atoms: C_1  and  O_2
REMARK    2  A    between atoms: O_2  and  C_3
REMARK    3  A    between atoms: C_6  and  C_7
REMARK    4  A    between atoms: N_9  and  C_10
REMARK    5  A    between atoms: N_13  and  C_14
REMARK    6  A    between atoms: C_14  and  C_15
REMARK    7  A    between atoms: C_24  and  O_25
REMARK    8  A    between atoms: O_25  and  C_26
REMARK                            x       y       z     vdW  Elec       q    Type
REMARK                         _______ _______ _______ _____ _____    ______ ____
ROOT
ATOM      1  C   UNL     1       0.279  10.978  21.253  0.00  0.00    +0.000 C 
ATOM      2  O   UNL     1       1.390  11.452  21.453  0.00  0.00    +0.000 OA
ATOM      3  N   UNL     1       0.021   9.856  20.477  0.00  0.00    +0.000 N 
ATOM      4  H   UNL     1      -0.942   9.724  20.189  0.00  0.00    +0.000 HD
ENDROOT
BRANCH   1   8
ATOM      5  C   UNL     1      -3.108  13.101  22.806  0.00  0.00    +0.000 A 
ATOM      6  C   UNL     1      -2.605  11.981  23.487  0.00  0.00    +0.000 A 
ATOM      7  C   UNL     1      -1.503  11.283  23.001  0.00  0.00    +0.000 A 
ATOM      8  C   UNL     1      -0.920  11.673  21.798  0.00  0.00    +0.000 A 
ATOM      9  C   UNL     1      -1.451  12.749  21.084  0.00  0.00    +0.000 A 
ATOM     10  C   UNL     1      -2.551  13.467  21.571  0.00  0.00    +0.000 A 
BRANCH   5  12
ATOM     11  C   UNL     1      -3.850  14.901  24.160  0.00  0.00    +0.000 C 
ATOM     12  O   UNL     1      -4.169  13.789  23.318  0.00  0.00    +0.000 OA
ENDBRANCH   5  12
BRANCH  10  13
ATOM     13  O   UNL     1      -2.922  14.469  20.715  0.00  0.00    +0.000 OA
ATOM     14  C   UNL     1      -2.186  15.688  20.722  0.00  0.00    +0.000 C 
ENDBRANCH  10  13
ENDBRANCH   1   8
BRANCH   3  15
ATOM     15  C   UNL     1       1.005   9.069  19.850  0.00  0.00    +0.000 A 
ATOM     16  C   UNL     1       1.446   9.305  18.551  0.00  0.00    +0.000 A 
ATOM     17  C   UNL     1       2.288   8.393  17.936  0.00  0.00    +0.000 A 
ATOM     18  N   UNL     1       2.693   7.281  18.587  0.00  0.00    +0.000 N 
ATOM     19  C   UNL     1       2.373   7.096  19.888  0.00  0.00    +0.000 A 
ATOM     20  C   UNL     1       1.530   7.987  20.547  0.00  0.00    +0.000 A 
BRANCH  18  21
ATOM     21  C   UNL     1       3.362   6.202  17.829  0.00  0.00    +0.000 C 
BRANCH  21  22
ATOM     22  C   UNL     1       2.943   4.828  18.271  0.00  0.00    +0.000 A 
ATOM     23  C   UNL     1       1.674   4.329  17.936  0.00  0.00    +0.000 A 
ATOM     24  C   UNL     1       1.319   3.020  18.266  0.00  0.00    +0.000 A 
ATOM     25  C   UNL     1       2.220   2.202  18.941  0.00  0.00    +0.000 A 
ATOM     26  C   UNL     1       3.473   2.692  19.300  0.00  0.00    +0.000 A 
ATOM     27  C   UNL     1       3.833   3.999  18.971  0.00  0.00    +0.000 A 
ENDBRANCH  21  22
ENDBRANCH  18  21
ENDBRANCH   3  15
TORSDOF 6
ENDMDL
