MODEL 1
REMARK VINA RESULT:      -7.7      0.000      0.000
REMARK  Name = 
REMARK  12 active torsions:
REMARK  status: ('A' for Active; 'I' for Inactive)
REMARK    1  A    between atoms: N_1  and  C_2
REMARK    2  A    between atoms: C_2  and  C_3
REMARK    3  A    between atoms: C_3  and  O_4
REMARK    4  A    between atoms: O_4  and  C_5
REMARK    5  A    between atoms: C_5  and  C_6
REMARK    6  A    between atoms: C_6  and  O_7
REMARK    7  A    between atoms: O_7  and  C_8
REMARK    8  A    between atoms: C_8  and  C_9
REMARK    9  A    between atoms: C_9  and  N_10
REMARK   10  A    between atoms: N_14  and  C_15
REMARK   11  A    between atoms: C_15  and  C_16
REMARK   12  A    between atoms: C_22  and  C_23
REMARK                            x       y       z     vdW  Elec       q    Type
REMARK                         _______ _______ _______ _____ _____    ______ ____
ROOT
ATOM      1  N   UNL     1       6.650   5.650  17.514  0.00  0.00    +0.000 N 
ATOM      2  C   UNL     1       5.236   5.577  17.580  0.00  0.00    +0.000 A 
ATOM      3  N   UNL     1       4.608   4.403  17.314  0.00  0.00    +0.000 NA
ATOM      4  C   UNL     1       3.286   4.253  17.588  0.00  0.00    +0.000 A 
ATOM      5  N   UNL     1       2.652   3.012  17.347  0.00  0.00    +0.000 N 
ATOM      6  N   UNL     1       2.583   5.302  18.095  0.00  0.00    +0.000 NA
ATOM      7  C   UNL     1       3.181   6.505  18.274  0.00  0.00    +0.000 A 
ATOM      8  N   UNL     1       4.510   6.632  18.039  0.00  0.00    +0.000 NA
ATOM      9  H   UNL     1       7.161   4.841  17.127  0.00  0.00    +0.000 HD
ATOM     10  H   UNL     1       3.124   2.332  16.727  0.00  0.00    +0.000 HD
ENDROOT
BRANCH   7  11
ATOM     11  C   UNL     1       2.388   7.685  18.670  0.00  0.00    +0.000 A 
ATOM     12  C   UNL     1       2.155   8.736  17.768  0.00  0.00    +0.000 A 
ATOM     13  C   UNL     1       1.420   9.857  18.169  0.00  0.00    +0.000 A 
ATOM     14  C   UNL     1       0.940   9.950  19.480  0.00  0.00    +0.000 A 
ATOM     15 CL   UNL     1       0.040  11.367  19.988  0.00  0.00    +0.000 Cl
ATOM     16  C   UNL     1       1.181   8.916  20.387  0.00  0.00    +0.000 A 
ATOM     17  C   UNL     1       1.890   7.783  19.983  0.00  0.00    +0.000 A 
ENDBRANCH   7  11
BRANCH   1  18
ATOM     18  C   UNL     1       7.394   6.594  18.332  0.00  0.00    +0.000 C 
BRANCH  18  19
ATOM     19  C   UNL     1       7.667   7.909  17.612  0.00  0.00    +0.000 C 
BRANCH  19  20
ATOM     20  O   UNL     1       8.512   8.691  18.422  0.00  0.00    +0.000 OA
BRANCH  20  21
ATOM     21  C   UNL     1       8.534  10.014  17.939  0.00  0.00    +0.000 C 
BRANCH  21  22
ATOM     22  C   UNL     1       9.272  10.877  18.950  0.00  0.00    +0.000 C 
BRANCH  22  23
ATOM     23  O   UNL     1      10.504  11.265  18.383  0.00  0.00    +0.000 OA
BRANCH  23  24
ATOM     24  C   UNL     1      10.484  12.644  18.101  0.00  0.00    +0.000 C 
BRANCH  24  25
ATOM     25  C   UNL     1      11.484  12.942  16.979  0.00  0.00    +0.000 C 
BRANCH  25  26
ATOM     26  N   UNL     1      11.035  14.043  16.128  0.00  0.00    +0.000 NA
ATOM     27  H   UNL     1      10.839  13.691  15.163  0.00  0.00    +0.000 HD
ATOM     28  H   UNL     1      10.164  14.469  16.522  0.00  0.00    +0.000 HD
ENDBRANCH  25  26
ENDBRANCH  24  25
ENDBRANCH  23  24
ENDBRANCH  22  23
ENDBRANCH  21  22
ENDBRANCH  20  21
ENDBRANCH  19  20
ENDBRANCH  18  19
ENDBRANCH   1  18
BRANCH   5  29
ATOM     29  C   UNL     1       1.428   2.611  18.013  0.00  0.00    +0.000 C 
BRANCH  29  30
ATOM     30  C   UNL     1       1.740   2.135  19.443  0.00  0.00    +0.000 C 
ATOM     31  C   UNL     1       1.168   3.053  20.527  0.00  0.00    +0.000 C 
ATOM     32  C   UNL     1       2.090   2.703  21.649  0.00  0.00    +0.000 C 
ATOM     33  C   UNL     1       3.399   2.692  20.884  0.00  0.00    +0.000 C 
ATOM     34  O   UNL     1       3.144   2.065  19.644  0.00  0.00    +0.000 OA
ENDBRANCH  29  30
ENDBRANCH   5  29
TORSDOF 12
ENDMDL
MODEL 2
REMARK VINA RESULT:      -7.3      1.061      1.126
REMARK  Name = 
REMARK  12 active torsions:
REMARK  status: ('A' for Active; 'I' for Inactive)
REMARK    1  A    between atoms: N_1  and  C_2
REMARK    2  A    between atoms: C_2  and  C_3
REMARK    3  A    between atoms: C_3  and  O_4
REMARK    4  A    between atoms: O_4  and  C_5
REMARK    5  A    between atoms: C_5  and  C_6
REMARK    6  A    between atoms: C_6  and  O_7
REMARK    7  A    between atoms: O_7  and  C_8
REMARK    8  A    between atoms: C_8  and  C_9
REMARK    9  A    between atoms: C_9  and  N_10
REMARK   10  A    between atoms: N_14  and  C_15
REMARK   11  A    between atoms: C_15  and  C_16
REMARK   12  A    between atoms: C_22  and  C_23
REMARK                            x       y       z     vdW  Elec       q    Type
REMARK                         _______ _______ _______ _____ _____    ______ ____
ROOT
ATOM      1  N   UNL     1       5.832   6.162  16.705  0.00  0.00    +0.000 N 
ATOM      2  C   UNL     1       4.479   6.040  17.110  0.00  0.00    +0.000 A 
ATOM      3  N   UNL     1       3.849   4.842  17.007  0.00  0.00    +0.000 NA
ATOM      4  C   UNL     1       2.639   4.649  17.593  0.00  0.00    +0.000 A 
ATOM      5  N   UNL     1       2.011   3.383  17.516  0.00  0.00    +0.000 N 
ATOM      6  N   UNL     1       2.040   5.678  18.252  0.00  0.00    +0.000 NA
ATOM      7  C   UNL     1       2.620   6.903  18.278  0.00  0.00    +0.000 A 
ATOM      8  N   UNL     1       3.847   7.074  17.728  0.00  0.00    +0.000 NA
ATOM      9  H   UNL     1       6.263   5.366  16.208  0.00  0.00    +0.000 HD
ATOM     10  H   UNL     1       2.344   2.713  16.802  0.00  0.00    +0.000 HD
ENDROOT
BRANCH   7  11
ATOM     11  C   UNL     1       1.903   8.059  18.850  0.00  0.00    +0.000 A 
ATOM     12  C   UNL     1       1.624   9.195  18.072  0.00  0.00    +0.000 A 
ATOM     13  C   UNL     1       0.963  10.291  18.639  0.00  0.00    +0.000 A 
ATOM     14  C   UNL     1       0.605  10.272  19.991  0.00  0.00    +0.000 A 
ATOM     15 CL   UNL     1      -0.201  11.656  20.707  0.00  0.00    +0.000 Cl
ATOM     16  C   UNL     1       0.894   9.152  20.775  0.00  0.00    +0.000 A 
ATOM     17  C   UNL     1       1.528   8.047  20.207  0.00  0.00    +0.000 A 
ENDBRANCH   7  11
BRANCH   1  18
ATOM     18  C   UNL     1       6.716   7.140  17.316  0.00  0.00    +0.000 C 
BRANCH  18  19
ATOM     19  C   UNL     1       7.739   6.506  18.251  0.00  0.00    +0.000 C 
BRANCH  19  20
ATOM     20  O   UNL     1       8.506   7.533  18.833  0.00  0.00    +0.000 OA
BRANCH  20  21
ATOM     21  C   UNL     1       8.301   8.733  18.125  0.00  0.00    +0.000 C 
BRANCH  21  22
ATOM     22  C   UNL     1       9.063   9.840  18.834  0.00  0.00    +0.000 C 
BRANCH  22  23
ATOM     23  O   UNL     1       8.892  11.033  18.101  0.00  0.00    +0.000 OA
BRANCH  23  24
ATOM     24  C   UNL     1      10.148  11.597  17.809  0.00  0.00    +0.000 C 
BRANCH  24  25
ATOM     25  C   UNL     1      10.032  13.123  17.836  0.00  0.00    +0.000 C 
BRANCH  25  26
ATOM     26  N   UNL     1       9.392  13.600  19.061  0.00  0.00    +0.000 NA
ATOM     27  H   UNL     1       8.354  13.619  18.936  0.00  0.00    +0.000 HD
ATOM     28  H   UNL     1       9.630  12.967  19.859  0.00  0.00    +0.000 HD
ENDBRANCH  25  26
ENDBRANCH  24  25
ENDBRANCH  23  24
ENDBRANCH  22  23
ENDBRANCH  21  22
ENDBRANCH  20  21
ENDBRANCH  19  20
ENDBRANCH  18  19
ENDBRANCH   1  18
BRANCH   5  29
ATOM     29  C   UNL     1       1.000   2.948  18.458  0.00  0.00    +0.000 C 
BRANCH  29  30
ATOM     30  C   UNL     1       1.668   2.283  19.675  0.00  0.00    +0.000 C 
ATOM     31  C   UNL     1       1.518   3.092  20.967  0.00  0.00    +0.000 C 
ATOM     32  C   UNL     1       2.691   2.555  21.723  0.00  0.00    +0.000 C 
ATOM     33  C   UNL     1       3.716   2.564  20.605  0.00  0.00    +0.000 C 
ATOM     34  O   UNL     1       3.057   2.110  19.441  0.00  0.00    +0.000 OA
ENDBRANCH  29  30
ENDBRANCH   5  29
TORSDOF 12
ENDMDL
MODEL 3
REMARK VINA RESULT:      -7.3      1.336      1.713
REMARK  Name = 
REMARK  12 active torsions:
REMARK  status: ('A' for Active; 'I' for Inactive)
REMARK    1  A    between atoms: N_1  and  C_2
REMARK    2  A    between atoms: C_2  and  C_3
REMARK    3  A    between atoms: C_3  and  O_4
REMARK    4  A    between atoms: O_4  and  C_5
REMARK    5  A    between atoms: C_5  and  C_6
REMARK    6  A    between atoms: C_6  and  O_7
REMARK    7  A    between atoms: O_7  and  C_8
REMARK    8  A    between atoms: C_8  and  C_9
REMARK    9  A    between atoms: C_9  and  N_10
REMARK   10  A    between atoms: N_14  and  C_15
REMARK   11  A    between atoms: C_15  and  C_16
REMARK   12  A    between atoms: C_22  and  C_23
REMARK                            x       y       z     vdW  Elec       q    Type
REMARK                         _______ _______ _______ _____ _____    ______ ____
ROOT
ATOM      1  N   UNL     1       6.391   5.724  17.327  0.00  0.00    +0.000 N 
ATOM      2  C   UNL     1       4.983   5.681  17.486  0.00  0.00    +0.000 A 
ATOM      3  N   UNL     1       4.315   4.519  17.273  0.00  0.00    +0.000 NA
ATOM      4  C   UNL     1       3.011   4.398  17.634  0.00  0.00    +0.000 A 
ATOM      5  N   UNL     1       2.336   3.169  17.447  0.00  0.00    +0.000 N 
ATOM      6  N   UNL     1       2.364   5.465  18.177  0.00  0.00    +0.000 NA
ATOM      7  C   UNL     1       2.998   6.657  18.306  0.00  0.00    +0.000 A 
ATOM      8  N   UNL     1       4.310   6.754  17.982  0.00  0.00    +0.000 NA
ATOM      9  H   UNL     1       6.858   4.901  16.913  0.00  0.00    +0.000 HD
ATOM     10  H   UNL     1       2.753   2.474  16.804  0.00  0.00    +0.000 HD
ENDROOT
BRANCH   7  11
ATOM     11  C   UNL     1       2.257   7.857  18.743  0.00  0.00    +0.000 A 
ATOM     12  C   UNL     1       1.754   7.961  20.050  0.00  0.00    +0.000 A 
ATOM     13  C   UNL     1       1.034   9.096  20.438  0.00  0.00    +0.000 A 
ATOM     14  C   UNL     1       0.787  10.120  19.517  0.00  0.00    +0.000 A 
ATOM     15 CL   UNL     1      -0.136  11.532  19.999  0.00  0.00    +0.000 Cl
ATOM     16  C   UNL     1       1.271  10.016  18.211  0.00  0.00    +0.000 A 
ATOM     17  C   UNL     1       2.012   8.898  17.828  0.00  0.00    +0.000 A 
ENDBRANCH   7  11
BRANCH   1  18
ATOM     18  C   UNL     1       7.206   6.658  18.085  0.00  0.00    +0.000 C 
BRANCH  18  19
ATOM     19  C   UNL     1       7.765   7.784  17.225  0.00  0.00    +0.000 C 
BRANCH  19  20
ATOM     20  O   UNL     1       7.533   9.005  17.885  0.00  0.00    +0.000 OA
BRANCH  20  21
ATOM     21  C   UNL     1       8.681   9.371  18.616  0.00  0.00    +0.000 C 
BRANCH  21  22
ATOM     22  C   UNL     1       9.222  10.666  18.034  0.00  0.00    +0.000 C 
BRANCH  22  23
ATOM     23  O   UNL     1      10.042  11.277  19.006  0.00  0.00    +0.000 OA
BRANCH  23  24
ATOM     24  C   UNL     1       9.554  12.565  19.298  0.00  0.00    +0.000 C 
BRANCH  24  25
ATOM     25  C   UNL     1       9.044  12.593  20.742  0.00  0.00    +0.000 C 
BRANCH  25  26
ATOM     26  N   UNL     1       9.913  11.836  21.642  0.00  0.00    +0.000 NA
ATOM     27  H   UNL     1      10.275  12.462  22.397  0.00  0.00    +0.000 HD
ATOM     28  H   UNL     1       9.380  11.048  22.075  0.00  0.00    +0.000 HD
ENDBRANCH  25  26
ENDBRANCH  24  25
ENDBRANCH  23  24
ENDBRANCH  22  23
ENDBRANCH  21  22
ENDBRANCH  20  21
ENDBRANCH  19  20
ENDBRANCH  18  19
ENDBRANCH   1  18
BRANCH   5  29
ATOM     29  C   UNL     1       1.152   2.799  18.196  0.00  0.00    +0.000 C 
BRANCH  29  30
ATOM     30  C   UNL     1       1.553   2.259  19.580  0.00  0.00    +0.000 C 
ATOM     31  C   UNL     1       1.181   3.200  20.730  0.00  0.00    +0.000 C 
ATOM     32  C   UNL     1       2.169   2.734  21.750  0.00  0.00    +0.000 C 
ATOM     33  C   UNL     1       3.390   2.617  20.858  0.00  0.00    +0.000 C 
ATOM     34  O   UNL     1       2.955   2.049  19.640  0.00  0.00    +0.000 OA
ENDBRANCH  29  30
ENDBRANCH   5  29
TORSDOF 12
ENDMDL
MODEL 4
REMARK VINA RESULT:      -7.2      1.192      1.520
REMARK  Name = 
REMARK  12 active torsions:
REMARK  status: ('A' for Active; 'I' for Inactive)
REMARK    1  A    between atoms: N_1  and  C_2
REMARK    2  A    between atoms: C_2  and  C_3
REMARK    3  A    between atoms: C_3  and  O_4
REMARK    4  A    between atoms: O_4  and  C_5
REMARK    5  A    between atoms: C_5  and  C_6
REMARK    6  A    between atoms: C_6  and  O_7
REMARK    7  A    between atoms: O_7  and  C_8
REMARK    8  A    between atoms: C_8  and  C_9
REMARK    9  A    between atoms: C_9  and  N_10
REMARK   10  A    between atoms: N_14  and  C_15
REMARK   11  A    between atoms: C_15  and  C_16
REMARK   12  A    between atoms: C_22  and  C_23
REMARK                            x       y       z     vdW  Elec       q    Type
REMARK                         _______ _______ _______ _____ _____    ______ ____
ROOT
ATOM      1  N   UNL     1       5.824   6.352  16.729  0.00  0.00    +0.000 N 
ATOM      2  C   UNL     1       4.471   6.200  17.123  0.00  0.00    +0.000 A 
ATOM      3  N   UNL     1       3.869   4.988  17.013  0.00  0.00    +0.000 NA
ATOM      4  C   UNL     1       2.659   4.766  17.589  0.00  0.00    +0.000 A 
ATOM      5  N   UNL     1       2.060   3.487  17.505  0.00  0.00    +0.000 N 
ATOM      6  N   UNL     1       2.032   5.780  18.245  0.00  0.00    +0.000 NA
ATOM      7  C   UNL     1       2.584   7.018  18.278  0.00  0.00    +0.000 A 
ATOM      8  N   UNL     1       3.811   7.218  17.738  0.00  0.00    +0.000 NA
ATOM      9  H   UNL     1       6.277   5.568  16.233  0.00  0.00    +0.000 HD
ATOM     10  H   UNL     1       2.414   2.826  16.793  0.00  0.00    +0.000 HD
ENDROOT
BRANCH   7  11
ATOM     11  C   UNL     1       1.837   8.157  18.847  0.00  0.00    +0.000 A 
ATOM     12  C   UNL     1       1.554   8.223  20.221  0.00  0.00    +0.000 A 
ATOM     13  C   UNL     1       0.825   9.299  20.738  0.00  0.00    +0.000 A 
ATOM     14  C   UNL     1       0.348  10.300  19.884  0.00  0.00    +0.000 A 
ATOM     15 CL   UNL     1      -0.587  11.636  20.530  0.00  0.00    +0.000 Cl
ATOM     16  C   UNL     1       0.612  10.232  18.514  0.00  0.00    +0.000 A 
ATOM     17  C   UNL     1       1.363   9.175  17.998  0.00  0.00    +0.000 A 
ENDBRANCH   7  11
BRANCH   1  18
ATOM     18  C   UNL     1       6.681   7.349  17.348  0.00  0.00    +0.000 C 
BRANCH  18  19
ATOM     19  C   UNL     1       7.843   6.731  18.115  0.00  0.00    +0.000 C 
BRANCH  19  20
ATOM     20  O   UNL     1       8.541   7.762  18.772  0.00  0.00    +0.000 OA
BRANCH  20  21
ATOM     21  C   UNL     1       8.252   8.995  18.154  0.00  0.00    +0.000 C 
BRANCH  21  22
ATOM     22  C   UNL     1       9.064  10.076  18.847  0.00  0.00    +0.000 C 
BRANCH  22  23
ATOM     23  O   UNL     1       9.564  10.952  17.860  0.00  0.00    +0.000 OA
BRANCH  23  24
ATOM     24  C   UNL     1      10.768  11.530  18.303  0.00  0.00    +0.000 C 
BRANCH  24  25
ATOM     25  C   UNL     1      10.476  12.915  18.889  0.00  0.00    +0.000 C 
BRANCH  25  26
ATOM     26  N   UNL     1      10.803  12.984  20.313  0.00  0.00    +0.000 NA
ATOM     27  H   UNL     1      11.125  12.048  20.651  0.00  0.00    +0.000 HD
ATOM     28  H   UNL     1      11.563  13.686  20.472  0.00  0.00    +0.000 HD
ENDBRANCH  25  26
ENDBRANCH  24  25
ENDBRANCH  23  24
ENDBRANCH  22  23
ENDBRANCH  21  22
ENDBRANCH  20  21
ENDBRANCH  19  20
ENDBRANCH  18  19
ENDBRANCH   1  18
BRANCH   5  29
ATOM     29  C   UNL     1       1.052   3.027  18.439  0.00  0.00    +0.000 C 
BRANCH  29  30
ATOM     30  C   UNL     1       1.722   2.304  19.621  0.00  0.00    +0.000 C 
ATOM     31  C   UNL     1       1.627   3.078  20.939  0.00  0.00    +0.000 C 
ATOM     32  C   UNL     1       2.796   2.480  21.653  0.00  0.00    +0.000 C 
ATOM     33  C   UNL     1       3.797   2.489  20.514  0.00  0.00    +0.000 C 
ATOM     34  O   UNL     1       3.100   2.092  19.352  0.00  0.00    +0.000 OA
ENDBRANCH  29  30
ENDBRANCH   5  29
TORSDOF 12
ENDMDL
MODEL 5
REMARK VINA RESULT:      -7.1      3.931      7.238
REMARK  Name = 
REMARK  12 active torsions:
REMARK  status: ('A' for Active; 'I' for Inactive)
REMARK    1  A    between atoms: N_1  and  C_2
REMARK    2  A    between atoms: C_2  and  C_3
REMARK    3  A    between atoms: C_3  and  O_4
REMARK    4  A    between atoms: O_4  and  C_5
REMARK    5  A    between atoms: C_5  and  C_6
REMARK    6  A    between atoms: C_6  and  O_7
REMARK    7  A    between atoms: O_7  and  C_8
REMARK    8  A    between atoms: C_8  and  C_9
REMARK    9  A    between atoms: C_9  and  N_10
REMARK   10  A    between atoms: N_14  and  C_15
REMARK   11  A    between atoms: C_15  and  C_16
REMARK   12  A    between atoms: C_22  and  C_23
REMARK                            x       y       z     vdW  Elec       q    Type
REMARK                         _______ _______ _______ _____ _____    ______ ____
ROOT
ATOM      1  N   UNL     1       3.236   4.213  21.091  0.00  0.00    +0.000 N 
ATOM      2  C   UNL     1       3.345   5.311  20.202  0.00  0.00    +0.000 A 
ATOM      3  N   UNL     1       4.300   5.305  19.236  0.00  0.00    +0.000 NA
ATOM      4  C   UNL     1       4.278   6.230  18.242  0.00  0.00    +0.000 A 
ATOM      5  N   UNL     1       5.252   6.189  17.216  0.00  0.00    +0.000 N 
ATOM      6  N   UNL     1       3.316   7.192  18.241  0.00  0.00    +0.000 NA
ATOM      7  C   UNL     1       2.417   7.262  19.253  0.00  0.00    +0.000 A 
ATOM      8  N   UNL     1       2.420   6.308  20.216  0.00  0.00    +0.000 NA
ATOM      9  H   UNL     1       3.978   3.496  21.071  0.00  0.00    +0.000 HD
ATOM     10  H   UNL     1       6.110   5.634  17.378  0.00  0.00    +0.000 HD
ENDROOT
BRANCH   7  11
ATOM     11  C   UNL     1       1.474   8.394  19.343  0.00  0.00    +0.000 A 
ATOM     12  C   UNL     1       0.890   8.755  20.568  0.00  0.00    +0.000 A 
ATOM     13  C   UNL     1      -0.019   9.817  20.629  0.00  0.00    +0.000 A 
ATOM     14  C   UNL     1      -0.373  10.505  19.464  0.00  0.00    +0.000 A 
ATOM     15 CL   UNL     1      -1.531  11.821  19.537  0.00  0.00    +0.000 Cl
ATOM     16  C   UNL     1       0.192  10.142  18.239  0.00  0.00    +0.000 A 
ATOM     17  C   UNL     1       1.120   9.101  18.179  0.00  0.00    +0.000 A 
ENDBRANCH   7  11
BRANCH   1  18
ATOM     18  C   UNL     1       1.961   3.853  21.689  0.00  0.00    +0.000 C 
BRANCH  18  19
ATOM     19  C   UNL     1       1.277   2.699  20.968  0.00  0.00    +0.000 C 
BRANCH  19  20
ATOM     20  O   UNL     1       0.441   3.232  19.969  0.00  0.00    +0.000 OA
BRANCH  20  21
ATOM     21  C   UNL     1       0.650   2.540  18.760  0.00  0.00    +0.000 C 
BRANCH  21  22
ATOM     22  C   UNL     1       1.585   3.368  17.894  0.00  0.00    +0.000 C 
BRANCH  22  23
ATOM     23  O   UNL     1       2.373   2.486  17.127  0.00  0.00    +0.000 OA
BRANCH  23  24
ATOM     24  C   UNL     1       3.710   2.539  17.563  0.00  0.00    +0.000 C 
BRANCH  24  25
ATOM     25  C   UNL     1       3.906   1.543  18.709  0.00  0.00    +0.000 C 
BRANCH  25  26
ATOM     26  N   UNL     1       4.856   2.036  19.704  0.00  0.00    +0.000 NA
ATOM     27  H   UNL     1       4.645   1.616  20.638  0.00  0.00    +0.000 HD
ATOM     28  H   UNL     1       5.832   1.780  19.426  0.00  0.00    +0.000 HD
ENDBRANCH  25  26
ENDBRANCH  24  25
ENDBRANCH  23  24
ENDBRANCH  22  23
ENDBRANCH  21  22
ENDBRANCH  20  21
ENDBRANCH  19  20
ENDBRANCH  18  19
ENDBRANCH   1  18
BRANCH   5  29
ATOM     29  C   UNL     1       5.053   6.798  15.916  0.00  0.00    +0.000 C 
BRANCH  29  30
ATOM     30  C   UNL     1       5.698   5.926  14.825  0.00  0.00    +0.000 C 
ATOM     31  C   UNL     1       5.056   4.541  14.694  0.00  0.00    +0.000 C 
ATOM     32  C   UNL     1       6.197   3.806  14.070  0.00  0.00    +0.000 C 
ATOM     33  C   UNL     1       7.325   4.351  14.924  0.00  0.00    +0.000 C 
ATOM     34  O   UNL     1       7.077   5.731  15.100  0.00  0.00    +0.000 OA
ENDBRANCH  29  30
ENDBRANCH   5  29
TORSDOF 12
ENDMDL
MODEL 6
REMARK VINA RESULT:      -7.1      0.901      1.093
REMARK  Name = 
REMARK  12 active torsions:
REMARK  status: ('A' for Active; 'I' for Inactive)
REMARK    1  A    between atoms: N_1  and  C_2
REMARK    2  A    between atoms: C_2  and  C_3
REMARK    3  A    between atoms: C_3  and  O_4
REMARK    4  A    between atoms: O_4  and  C_5
REMARK    5  A    between atoms: C_5  and  C_6
REMARK    6  A    between atoms: C_6  and  O_7
REMARK    7  A    between atoms: O_7  and  C_8
REMARK    8  A    between atoms: C_8  and  C_9
REMARK    9  A    between atoms: C_9  and  N_10
REMARK   10  A    between atoms: N_14  and  C_15
REMARK   11  A    between atoms: C_15  and  C_16
REMARK   12  A    between atoms: C_22  and  C_23
REMARK                            x       y       z     vdW  Elec       q    Type
REMARK                         _______ _______ _______ _____ _____    ______ ____
ROOT
ATOM      1  N   UNL     1       6.551   6.449  16.437  0.00  0.00    +0.000 N 
ATOM      2  C   UNL     1       5.218   6.134  16.804  0.00  0.00    +0.000 A 
ATOM      3  N   UNL     1       4.756   4.867  16.644  0.00  0.00    +0.000 NA
ATOM      4  C   UNL     1       3.571   4.494  17.192  0.00  0.00    +0.000 A 
ATOM      5  N   UNL     1       3.118   3.160  17.055  0.00  0.00    +0.000 N 
ATOM      6  N   UNL     1       2.827   5.409  17.870  0.00  0.00    +0.000 NA
ATOM      7  C   UNL     1       3.237   6.699  17.953  0.00  0.00    +0.000 A 
ATOM      8  N   UNL     1       4.441   7.051  17.441  0.00  0.00    +0.000 NA
ATOM      9  H   UNL     1       7.094   5.737  15.924  0.00  0.00    +0.000 HD
ATOM     10  H   UNL     1       3.552   2.567  16.328  0.00  0.00    +0.000 HD
ENDROOT
BRANCH   7  11
ATOM     11  C   UNL     1       2.361   7.728  18.547  0.00  0.00    +0.000 A 
ATOM     12  C   UNL     1       1.908   8.818  17.787  0.00  0.00    +0.000 A 
ATOM     13  C   UNL     1       1.097   9.796  18.373  0.00  0.00    +0.000 A 
ATOM     14  C   UNL     1       0.758   9.707  19.728  0.00  0.00    +0.000 A 
ATOM     15 CL   UNL     1      -0.238  10.946  20.469  0.00  0.00    +0.000 Cl
ATOM     16  C   UNL     1       1.219   8.634  20.494  0.00  0.00    +0.000 A 
ATOM     17  C   UNL     1       2.005   7.642  19.906  0.00  0.00    +0.000 A 
ENDBRANCH   7  11
BRANCH   1  18
ATOM     18  C   UNL     1       7.284   7.512  17.104  0.00  0.00    +0.000 C 
BRANCH  18  19
ATOM     19  C   UNL     1       8.004   7.033  18.359  0.00  0.00    +0.000 C 
BRANCH  19  20
ATOM     20  O   UNL     1       8.719   8.117  18.901  0.00  0.00    +0.000 OA
BRANCH  20  21
ATOM     21  C   UNL     1       8.430   9.286  18.170  0.00  0.00    +0.000 C 
BRANCH  21  22
ATOM     22  C   UNL     1       8.955  10.478  18.953  0.00  0.00    +0.000 C 
BRANCH  22  23
ATOM     23  O   UNL     1      10.257  10.767  18.494  0.00  0.00    +0.000 OA
BRANCH  23  24
ATOM     24  C   UNL     1      10.231  11.915  17.678  0.00  0.00    +0.000 C 
BRANCH  24  25
ATOM     25  C   UNL     1      11.048  13.025  18.347  0.00  0.00    +0.000 C 
BRANCH  25  26
ATOM     26  N   UNL     1      12.155  13.470  17.503  0.00  0.00    +0.000 NA
ATOM     27  H   UNL     1      13.063  13.134  17.899  0.00  0.00    +0.000 HD
ATOM     28  H   UNL     1      12.043  13.091  16.534  0.00  0.00    +0.000 HD
ENDBRANCH  25  26
ENDBRANCH  24  25
ENDBRANCH  23  24
ENDBRANCH  22  23
ENDBRANCH  21  22
ENDBRANCH  20  21
ENDBRANCH  19  20
ENDBRANCH  18  19
ENDBRANCH   1  18
BRANCH   5  29
ATOM     29  C   UNL     1       2.155   2.560  17.957  0.00  0.00    +0.000 C 
BRANCH  29  30
ATOM     30  C   UNL     1       2.280   3.192  19.354  0.00  0.00    +0.000 C 
ATOM     31  C   UNL     1       3.214   2.417  20.290  0.00  0.00    +0.000 C 
ATOM     32  C   UNL     1       2.671   2.876  21.604  0.00  0.00    +0.000 C 
ATOM     33  C   UNL     1       1.190   2.773  21.297  0.00  0.00    +0.000 C 
ATOM     34  O   UNL     1       1.009   3.257  19.982  0.00  0.00    +0.000 OA
ENDBRANCH  29  30
ENDBRANCH   5  29
TORSDOF 12
ENDMDL
MODEL 7
REMARK VINA RESULT:      -7.0      3.323      5.975
REMARK  Name = 
REMARK  12 active torsions:
REMARK  status: ('A' for Active; 'I' for Inactive)
REMARK    1  A    between atoms: N_1  and  C_2
REMARK    2  A    between atoms: C_2  and  C_3
REMARK    3  A    between atoms: C_3  and  O_4
REMARK    4  A    between atoms: O_4  and  C_5
REMARK    5  A    between atoms: C_5  and  C_6
REMARK    6  A    between atoms: C_6  and  O_7
REMARK    7  A    between atoms: O_7  and  C_8
REMARK    8  A    between atoms: C_8  and  C_9
REMARK    9  A    between atoms: C_9  and  N_10
REMARK   10  A    between atoms: N_14  and  C_15
REMARK   11  A    between atoms: C_15  and  C_16
REMARK   12  A    between atoms: C_22  and  C_23
REMARK                            x       y       z     vdW  Elec       q    Type
REMARK                         _______ _______ _______ _____ _____    ______ ____
ROOT
ATOM      1  N   UNL     1       5.211   6.552  15.707  0.00  0.00    +0.000 N 
ATOM      2  C   UNL     1       4.261   6.838  16.719  0.00  0.00    +0.000 A 
ATOM      3  N   UNL     1       3.707   8.076  16.795  0.00  0.00    +0.000 NA
ATOM      4  C   UNL     1       2.641   8.304  17.604  0.00  0.00    +0.000 A 
ATOM      5  N   UNL     1       2.045   9.586  17.643  0.00  0.00    +0.000 N 
ATOM      6  N   UNL     1       2.153   7.292  18.372  0.00  0.00    +0.000 NA
ATOM      7  C   UNL     1       2.759   6.079  18.373  0.00  0.00    +0.000 A 
ATOM      8  N   UNL     1       3.795   5.850  17.530  0.00  0.00    +0.000 NA
ATOM      9  H   UNL     1       5.565   7.337  15.138  0.00  0.00    +0.000 HD
ATOM     10  H   UNL     1       2.581  10.388  17.270  0.00  0.00    +0.000 HD
ENDROOT
BRANCH   7  11
ATOM     11  C   UNL     1       2.336   5.030  19.320  0.00  0.00    +0.000 A 
ATOM     12  C   UNL     1       1.435   4.024  18.931  0.00  0.00    +0.000 A 
ATOM     13  C   UNL     1       1.028   3.051  19.850  0.00  0.00    +0.000 A 
ATOM     14  C   UNL     1       1.492   3.092  21.169  0.00  0.00    +0.000 A 
ATOM     15 CL   UNL     1       0.961   1.886  22.326  0.00  0.00    +0.000 Cl
ATOM     16  C   UNL     1       2.375   4.098  21.567  0.00  0.00    +0.000 A 
ATOM     17  C   UNL     1       2.806   5.055  20.646  0.00  0.00    +0.000 A 
ENDBRANCH   7  11
BRANCH   1  18
ATOM     18  C   UNL     1       5.369   5.207  15.181  0.00  0.00    +0.000 C 
BRANCH  18  19
ATOM     19  C   UNL     1       6.822   4.857  14.886  0.00  0.00    +0.000 C 
BRANCH  19  20
ATOM     20  O   UNL     1       7.608   5.257  15.983  0.00  0.00    +0.000 OA
BRANCH  20  21
ATOM     21  C   UNL     1       7.283   4.472  17.106  0.00  0.00    +0.000 C 
BRANCH  21  22
ATOM     22  C   UNL     1       7.525   5.304  18.355  0.00  0.00    +0.000 C 
BRANCH  22  23
ATOM     23  O   UNL     1       7.218   6.648  18.055  0.00  0.00    +0.000 OA
BRANCH  23  24
ATOM     24  C   UNL     1       8.259   7.485  18.500  0.00  0.00    +0.000 C 
BRANCH  24  25
ATOM     25  C   UNL     1       8.086   8.874  17.879  0.00  0.00    +0.000 C 
BRANCH  25  26
ATOM     26  N   UNL     1       8.819   9.898  18.622  0.00  0.00    +0.000 NA
ATOM     27  H   UNL     1       8.364  10.060  19.550  0.00  0.00    +0.000 HD
ATOM     28  H   UNL     1       9.808   9.591  18.775  0.00  0.00    +0.000 HD
ENDBRANCH  25  26
ENDBRANCH  24  25
ENDBRANCH  23  24
ENDBRANCH  22  23
ENDBRANCH  21  22
ENDBRANCH  20  21
ENDBRANCH  19  20
ENDBRANCH  18  19
ENDBRANCH   1  18
BRANCH   5  29
ATOM     29  C   UNL     1       0.681   9.807  18.082  0.00  0.00    +0.000 C 
BRANCH  29  30
ATOM     30  C   UNL     1       0.642  10.943  19.119  0.00  0.00    +0.000 C 
ATOM     31  C   UNL     1       0.798  10.454  20.562  0.00  0.00    +0.000 C 
ATOM     32  C   UNL     1       0.145  11.594  21.274  0.00  0.00    +0.000 C 
ATOM     33  C   UNL     1      -1.055  11.783  20.366  0.00  0.00    +0.000 C 
ATOM     34  O   UNL     1      -0.591  11.642  19.039  0.00  0.00    +0.000 OA
ENDBRANCH  29  30
ENDBRANCH   5  29
TORSDOF 12
ENDMDL
MODEL 8
REMARK VINA RESULT:      -7.0      3.111      4.398
REMARK  Name = 
REMARK  12 active torsions:
REMARK  status: ('A' for Active; 'I' for Inactive)
REMARK    1  A    between atoms: N_1  and  C_2
REMARK    2  A    between atoms: C_2  and  C_3
REMARK    3  A    between atoms: C_3  and  O_4
REMARK    4  A    between atoms: O_4  and  C_5
REMARK    5  A    between atoms: C_5  and  C_6
REMARK    6  A    between atoms: C_6  and  O_7
REMARK    7  A    between atoms: O_7  and  C_8
REMARK    8  A    between atoms: C_8  and  C_9
REMARK    9  A    between atoms: C_9  and  N_10
REMARK   10  A    between atoms: N_14  and  C_15
REMARK   11  A    between atoms: C_15  and  C_16
REMARK   12  A    between atoms: C_22  and  C_23
REMARK                            x       y       z     vdW  Elec       q    Type
REMARK                         _______ _______ _______ _____ _____    ______ ____
ROOT
ATOM      1  N   UNL     1       5.462   6.636  16.848  0.00  0.00    +0.000 N 
ATOM      2  C   UNL     1       4.161   6.424  17.368  0.00  0.00    +0.000 A 
ATOM      3  N   UNL     1       3.528   5.243  17.144  0.00  0.00    +0.000 NA
ATOM      4  C   UNL     1       2.388   4.935  17.815  0.00  0.00    +0.000 A 
ATOM      5  N   UNL     1       1.761   3.684  17.606  0.00  0.00    +0.000 N 
ATOM      6  N   UNL     1       1.859   5.836  18.687  0.00  0.00    +0.000 NA
ATOM      7  C   UNL     1       2.432   7.054  18.845  0.00  0.00    +0.000 A 
ATOM      8  N   UNL     1       3.593   7.335  18.204  0.00  0.00    +0.000 NA
ATOM      9  H   UNL     1       5.841   5.937  16.189  0.00  0.00    +0.000 HD
ATOM     10  H   UNL     1       2.019   3.142  16.764  0.00  0.00    +0.000 HD
ENDROOT
BRANCH   7  11
ATOM     11  C   UNL     1       1.776   8.091  19.665  0.00  0.00    +0.000 A 
ATOM     12  C   UNL     1       1.536   7.888  21.034  0.00  0.00    +0.000 A 
ATOM     13  C   UNL     1       0.892   8.874  21.789  0.00  0.00    +0.000 A 
ATOM     14  C   UNL     1       0.456  10.054  21.177  0.00  0.00    +0.000 A 
ATOM     15 CL   UNL     1      -0.374  11.279  22.120  0.00  0.00    +0.000 Cl
ATOM     16  C   UNL     1       0.677  10.256  19.813  0.00  0.00    +0.000 A 
ATOM     17  C   UNL     1       1.344   9.287  19.062  0.00  0.00    +0.000 A 
ENDBRANCH   7  11
BRANCH   1  18
ATOM     18  C   UNL     1       6.402   7.525  17.510  0.00  0.00    +0.000 C 
BRANCH  18  19
ATOM     19  C   UNL     1       7.467   6.773  18.299  0.00  0.00    +0.000 C 
BRANCH  19  20
ATOM     20  O   UNL     1       8.089   5.850  17.438  0.00  0.00    +0.000 OA
BRANCH  20  21
ATOM     21  C   UNL     1       7.471   4.591  17.572  0.00  0.00    +0.000 C 
BRANCH  21  22
ATOM     22  C   UNL     1       7.140   4.073  16.182  0.00  0.00    +0.000 C 
BRANCH  22  23
ATOM     23  O   UNL     1       7.758   4.920  15.238  0.00  0.00    +0.000 OA
BRANCH  23  24
ATOM     24  C   UNL     1       6.936   5.046  14.102  0.00  0.00    +0.000 C 
BRANCH  24  25
ATOM     25  C   UNL     1       6.024   3.820  14.003  0.00  0.00    +0.000 C 
BRANCH  25  26
ATOM     26  N   UNL     1       6.246   3.074  12.765  0.00  0.00    +0.000 NA
ATOM     27  H   UNL     1       6.955   3.568  12.174  0.00  0.00    +0.000 HD
ATOM     28  H   UNL     1       6.592   2.112  12.983  0.00  0.00    +0.000 HD
ENDBRANCH  25  26
ENDBRANCH  24  25
ENDBRANCH  23  24
ENDBRANCH  22  23
ENDBRANCH  21  22
ENDBRANCH  20  21
ENDBRANCH  19  20
ENDBRANCH  18  19
ENDBRANCH   1  18
BRANCH   5  29
ATOM     29  C   UNL     1       0.858   3.086  18.568  0.00  0.00    +0.000 C 
BRANCH  29  30
ATOM     30  C   UNL     1       1.661   2.328  19.640  0.00  0.00    +0.000 C 
ATOM     31  C   UNL     1       1.646   3.015  21.009  0.00  0.00    +0.000 C 
ATOM     32  C   UNL     1       2.898   2.436  21.582  0.00  0.00    +0.000 C 
ATOM     33  C   UNL     1       3.795   2.565  20.366  0.00  0.00    +0.000 C 
ATOM     34  O   UNL     1       3.018   2.203  19.243  0.00  0.00    +0.000 OA
ENDBRANCH  29  30
ENDBRANCH   5  29
TORSDOF 12
ENDMDL
MODEL 9
REMARK VINA RESULT:      -6.9      1.410      1.615
REMARK  Name = 
REMARK  12 active torsions:
REMARK  status: ('A' for Active; 'I' for Inactive)
REMARK    1  A    between atoms: N_1  and  C_2
REMARK    2  A    between atoms: C_2  and  C_3
REMARK    3  A    between atoms: C_3  and  O_4
REMARK    4  A    between atoms: O_4  and  C_5
REMARK    5  A    between atoms: C_5  and  C_6
REMARK    6  A    between atoms: C_6  and  O_7
REMARK    7  A    between atoms: O_7  and  C_8
REMARK    8  A    between atoms: C_8  and  C_9
REMARK    9  A    between atoms: C_9  and  N_10
REMARK   10  A    between atoms: N_14  and  C_15
REMARK   11  A    between atoms: C_15  and  C_16
REMARK   12  A    between atoms: C_22  and  C_23
REMARK                            x       y       z     vdW  Elec       q    Type
REMARK                         _______ _______ _______ _____ _____    ______ ____
ROOT
ATOM      1  N   UNL     1       6.045   4.970  16.491  0.00  0.00    +0.000 N 
ATOM      2  C   UNL     1       4.690   5.016  16.904  0.00  0.00    +0.000 A 
ATOM      3  N   UNL     1       3.943   3.882  16.894  0.00  0.00    +0.000 NA
ATOM      4  C   UNL     1       2.724   3.857  17.493  0.00  0.00    +0.000 A 
ATOM      5  N   UNL     1       1.972   2.659  17.514  0.00  0.00    +0.000 N 
ATOM      6  N   UNL     1       2.236   4.989  18.070  0.00  0.00    +0.000 NA
ATOM      7  C   UNL     1       2.936   6.148  18.002  0.00  0.00    +0.000 A 
ATOM      8  N   UNL     1       4.169   6.152  17.441  0.00  0.00    +0.000 NA
ATOM      9  H   UNL     1       6.391   4.100  16.056  0.00  0.00    +0.000 HD
ATOM     10  H   UNL     1       2.231   1.906  16.854  0.00  0.00    +0.000 HD
ENDROOT
BRANCH   7  11
ATOM     11  C   UNL     1       2.343   7.411  18.483  0.00  0.00    +0.000 A 
ATOM     12  C   UNL     1       2.250   8.534  17.644  0.00  0.00    +0.000 A 
ATOM     13  C   UNL     1       1.706   9.729  18.126  0.00  0.00    +0.000 A 
ATOM     14  C   UNL     1       1.278   9.821  19.455  0.00  0.00    +0.000 A 
ATOM     15 CL   UNL     1       0.618  11.327  20.065  0.00  0.00    +0.000 Cl
ATOM     16  C   UNL     1       1.382   8.713  20.299  0.00  0.00    +0.000 A 
ATOM     17  C   UNL     1       1.899   7.511  19.815  0.00  0.00    +0.000 A 
ENDBRANCH   7  11
BRANCH   1  18
ATOM     18  C   UNL     1       7.027   5.899  17.025  0.00  0.00    +0.000 C 
BRANCH  18  19
ATOM     19  C   UNL     1       7.459   5.548  18.443  0.00  0.00    +0.000 C 
BRANCH  19  20
ATOM     20  O   UNL     1       8.145   6.651  18.984  0.00  0.00    +0.000 OA
BRANCH  20  21
ATOM     21  C   UNL     1       7.959   7.775  18.156  0.00  0.00    +0.000 C 
BRANCH  21  22
ATOM     22  C   UNL     1       8.932   8.857  18.596  0.00  0.00    +0.000 C 
BRANCH  22  23
ATOM     23  O   UNL     1       8.265  10.098  18.539  0.00  0.00    +0.000 OA
BRANCH  23  24
ATOM     24  C   UNL     1       9.147  11.092  18.073  0.00  0.00    +0.000 C 
BRANCH  24  25
ATOM     25  C   UNL     1       9.970  11.624  19.250  0.00  0.00    +0.000 C 
BRANCH  25  26
ATOM     26  N   UNL     1       9.157  11.791  20.453  0.00  0.00    +0.000 NA
ATOM     27  H   UNL     1       8.882  12.794  20.561  0.00  0.00    +0.000 HD
ATOM     28  H   UNL     1       8.293  11.204  20.386  0.00  0.00    +0.000 HD
ENDBRANCH  25  26
ENDBRANCH  24  25
ENDBRANCH  23  24
ENDBRANCH  22  23
ENDBRANCH  21  22
ENDBRANCH  20  21
ENDBRANCH  19  20
ENDBRANCH  18  19
ENDBRANCH   1  18
BRANCH   5  29
ATOM     29  C   UNL     1       0.930   2.401  18.487  0.00  0.00    +0.000 C 
BRANCH  29  30
ATOM     30  C   UNL     1       1.558   2.069  19.853  0.00  0.00    +0.000 C 
ATOM     31  C   UNL     1       1.276   3.127  20.924  0.00  0.00    +0.000 C 
ATOM     32  C   UNL     1       2.428   2.857  21.837  0.00  0.00    +0.000 C 
ATOM     33  C   UNL     1       3.520   2.698  20.797  0.00  0.00    +0.000 C 
ATOM     34  O   UNL     1       2.967   1.952  19.732  0.00  0.00    +0.000 OA
ENDBRANCH  29  30
ENDBRANCH   5  29
TORSDOF 12
ENDMDL
