MODEL 1
REMARK VINA RESULT:      -8.6      0.000      0.000
REMARK  Name = 
REMARK  7 active torsions:
REMARK  status: ('A' for Active; 'I' for Inactive)
REMARK    1  A    between atoms: C_1  and  C_2
REMARK    2  A    between atoms: C_2  and  O_3
REMARK    3  A    between atoms: O_3  and  C_4
REMARK    4  A    between atoms: C_4  and  C_6
REMARK    5  A    between atoms: N_8  and  C_9
REMARK    6  A    between atoms: C_17  and  S_18
REMARK    7  A    between atoms: S_18  and  C_19
REMARK                            x       y       z     vdW  Elec       q    Type
REMARK                         _______ _______ _______ _____ _____    ______ ____
ROOT
ATOM      1  C   UNL     1       6.674   4.971  18.003  0.00  0.00    +0.000 A 
ATOM      2  N   UNL     1       6.909   4.960  16.718  0.00  0.00    +0.000 NA
ATOM      3  N   UNL     1       5.991   4.373  15.887  0.00  0.00    +0.000 N 
ATOM      4  C   UNL     1       4.742   3.996  16.344  0.00  0.00    +0.000 A 
ATOM      5  C   UNL     1       4.378   3.965  17.629  0.00  0.00    +0.000 A 
ATOM      6  C   UNL     1       5.437   4.343  18.592  0.00  0.00    +0.000 A 
ATOM      7  O   UNL     1       5.371   4.153  19.798  0.00  0.00    +0.000 OA
ENDROOT
BRANCH   3   8
ATOM      8  C   UNL     1       6.387   4.299  14.512  0.00  0.00    +0.000 A 
ATOM      9  C   UNL     1       7.398   5.125  13.986  0.00  0.00    +0.000 A 
ATOM     10  C   UNL     1       7.764   5.061  12.637  0.00  0.00    +0.000 A 
ATOM     11  C   UNL     1       7.125   4.166  11.784  0.00  0.00    +0.000 A 
ATOM     12  C   UNL     1       6.120   3.342  12.282  0.00  0.00    +0.000 A 
ATOM     13 CL   UNL     1       5.331   2.232  11.229  0.00  0.00    +0.000 Cl
ATOM     14  C   UNL     1       5.750   3.408  13.626  0.00  0.00    +0.000 A 
ENDBRANCH   3   8
BRANCH   1  15
ATOM     15  C   UNL     1       7.663   5.712  18.877  0.00  0.00    +0.000 C 
ATOM     16  O   UNL     1       7.713   5.543  20.082  0.00  0.00    +0.000 OA
BRANCH  15  17
ATOM     17  O   UNL     1       8.316   6.650  18.156  0.00  0.00    +0.000 OA
BRANCH  17  19
ATOM     18  C   UNL     1       8.328   9.056  18.125  0.00  0.00    +0.000 C 
ATOM     19  C   UNL     1       7.532   7.800  17.810  0.00  0.00    +0.000 C 
ENDBRANCH  17  19
ENDBRANCH  15  17
ENDBRANCH   1  15
BRANCH   5  20
ATOM     20  S   UNL     1       2.794   3.580  18.183  0.00  0.00    +0.000 S 
BRANCH  20  21
ATOM     21  C   UNL     1       2.356   5.115  18.977  0.00  0.00    +0.000 A 
ATOM     22  C   UNL     1       1.866   5.136  20.288  0.00  0.00    +0.000 A 
ATOM     23  C   UNL     1       1.529   6.347  20.898  0.00  0.00    +0.000 A 
ATOM     24  C   UNL     1       1.704   7.542  20.207  0.00  0.00    +0.000 A 
ATOM     25 CL   UNL     1       1.280   9.032  20.956  0.00  0.00    +0.000 Cl
ATOM     26  C   UNL     1       2.225   7.539  18.915  0.00  0.00    +0.000 A 
ATOM     27  C   UNL     1       2.551   6.324  18.298  0.00  0.00    +0.000 A 
ENDBRANCH  20  21
ENDBRANCH   5  20
TORSDOF 6
ENDMDL
MODEL 2
REMARK VINA RESULT:      -8.4      0.403      1.013
REMARK  Name = 
REMARK  7 active torsions:
REMARK  status: ('A' for Active; 'I' for Inactive)
REMARK    1  A    between atoms: C_1  and  C_2
REMARK    2  A    between atoms: C_2  and  O_3
REMARK    3  A    between atoms: O_3  and  C_4
REMARK    4  A    between atoms: C_4  and  C_6
REMARK    5  A    between atoms: N_8  and  C_9
REMARK    6  A    between atoms: C_17  and  S_18
REMARK    7  A    between atoms: S_18  and  C_19
REMARK                            x       y       z     vdW  Elec       q    Type
REMARK                         _______ _______ _______ _____ _____    ______ ____
ROOT
ATOM      1  C   UNL     1       6.781   5.147  17.854  0.00  0.00    +0.000 A 
ATOM      2  N   UNL     1       6.956   5.089  16.560  0.00  0.00    +0.000 NA
ATOM      3  N   UNL     1       6.028   4.425  15.802  0.00  0.00    +0.000 N 
ATOM      4  C   UNL     1       4.822   4.010  16.335  0.00  0.00    +0.000 A 
ATOM      5  C   UNL     1       4.522   4.020  17.637  0.00  0.00    +0.000 A 
ATOM      6  C   UNL     1       5.606   4.489  18.530  0.00  0.00    +0.000 A 
ATOM      7  O   UNL     1       5.606   4.350  19.744  0.00  0.00    +0.000 OA
ENDROOT
BRANCH   3   8
ATOM      8  C   UNL     1       6.362   4.307  14.413  0.00  0.00    +0.000 A 
ATOM      9  C   UNL     1       7.426   5.031  13.842  0.00  0.00    +0.000 A 
ATOM     10  C   UNL     1       7.732   4.927  12.481  0.00  0.00    +0.000 A 
ATOM     11  C   UNL     1       6.978   4.095  11.660  0.00  0.00    +0.000 A 
ATOM     12  C   UNL     1       5.920   3.372  12.202  0.00  0.00    +0.000 A 
ATOM     13 CL   UNL     1       4.988   2.338  11.188  0.00  0.00    +0.000 Cl
ATOM     14  C   UNL     1       5.609   3.478  13.558  0.00  0.00    +0.000 A 
ENDBRANCH   3   8
BRANCH   1  15
ATOM     15  C   UNL     1       7.774   5.971  18.646  0.00  0.00    +0.000 C 
ATOM     16  O   UNL     1       8.215   5.596  19.718  0.00  0.00    +0.000 OA
BRANCH  15  17
ATOM     17  O   UNL     1       7.938   7.184  18.075  0.00  0.00    +0.000 OA
BRANCH  17  19
ATOM     18  C   UNL     1       8.535   9.512  18.205  0.00  0.00    +0.000 C 
ATOM     19  C   UNL     1       8.574   8.164  18.907  0.00  0.00    +0.000 C 
ENDBRANCH  17  19
ENDBRANCH  15  17
ENDBRANCH   1  15
BRANCH   5  20
ATOM     20  S   UNL     1       2.986   3.586  18.284  0.00  0.00    +0.000 S 
BRANCH  20  21
ATOM     21  C   UNL     1       2.497   5.143  19.004  0.00  0.00    +0.000 A 
ATOM     22  C   UNL     1       2.568   6.331  18.269  0.00  0.00    +0.000 A 
ATOM     23  C   UNL     1       2.179   7.544  18.845  0.00  0.00    +0.000 A 
ATOM     24  C   UNL     1       1.695   7.566  20.150  0.00  0.00    +0.000 A 
ATOM     25 CL   UNL     1       1.225   9.061  20.861  0.00  0.00    +0.000 Cl
ATOM     26  C   UNL     1       1.585   6.385  20.880  0.00  0.00    +0.000 A 
ATOM     27  C   UNL     1       1.986   5.171  20.308  0.00  0.00    +0.000 A 
ENDBRANCH  20  21
ENDBRANCH   5  20
TORSDOF 6
ENDMDL
MODEL 3
REMARK VINA RESULT:      -8.2      2.448      7.496
REMARK  Name = 
REMARK  7 active torsions:
REMARK  status: ('A' for Active; 'I' for Inactive)
REMARK    1  A    between atoms: C_1  and  C_2
REMARK    2  A    between atoms: C_2  and  O_3
REMARK    3  A    between atoms: O_3  and  C_4
REMARK    4  A    between atoms: C_4  and  C_6
REMARK    5  A    between atoms: N_8  and  C_9
REMARK    6  A    between atoms: C_17  and  S_18
REMARK    7  A    between atoms: S_18  and  C_19
REMARK                            x       y       z     vdW  Elec       q    Type
REMARK                         _______ _______ _______ _____ _____    ______ ____
ROOT
ATOM      1  C   UNL     1       3.565   4.296  19.702  0.00  0.00    +0.000 A 
ATOM      2  N   UNL     1       2.779   5.331  19.567  0.00  0.00    +0.000 NA
ATOM      3  N   UNL     1       3.302   6.490  19.058  0.00  0.00    +0.000 N 
ATOM      4  C   UNL     1       4.562   6.526  18.491  0.00  0.00    +0.000 A 
ATOM      5  C   UNL     1       5.456   5.535  18.559  0.00  0.00    +0.000 A 
ATOM      6  C   UNL     1       5.025   4.350  19.335  0.00  0.00    +0.000 A 
ATOM      7  O   UNL     1       5.775   3.458  19.702  0.00  0.00    +0.000 OA
ENDROOT
BRANCH   3   8
ATOM      8  C   UNL     1       2.402   7.606  19.058  0.00  0.00    +0.000 A 
ATOM      9  C   UNL     1       2.175   8.375  17.901  0.00  0.00    +0.000 A 
ATOM     10  C   UNL     1       1.310   9.475  17.915  0.00  0.00    +0.000 A 
ATOM     11  C   UNL     1       0.653   9.830  19.089  0.00  0.00    +0.000 A 
ATOM     12  C   UNL     1       0.865   9.085  20.245  0.00  0.00    +0.000 A 
ATOM     13 CL   UNL     1       0.051   9.519  21.699  0.00  0.00    +0.000 Cl
ATOM     14  C   UNL     1       1.731   7.990  20.235  0.00  0.00    +0.000 A 
ENDBRANCH   3   8
BRANCH   1  15
ATOM     15  C   UNL     1       2.929   3.006  20.177  0.00  0.00    +0.000 C 
ATOM     16  O   UNL     1       2.608   2.833  21.339  0.00  0.00    +0.000 OA
BRANCH  15  17
ATOM     17  O   UNL     1       2.938   2.086  19.186  0.00  0.00    +0.000 OA
BRANCH  17  19
ATOM     18  C   UNL     1       0.593   2.331  18.708  0.00  0.00    +0.000 C 
ATOM     19  C   UNL     1       1.999   2.325  18.130  0.00  0.00    +0.000 C 
ENDBRANCH  17  19
ENDBRANCH  15  17
ENDBRANCH   1  15
BRANCH   5  20
ATOM     20  S   UNL     1       6.989   5.552  17.774  0.00  0.00    +0.000 S 
BRANCH  20  21
ATOM     21  C   UNL     1       6.527   4.931  16.167  0.00  0.00    +0.000 A 
ATOM     22  C   UNL     1       7.334   5.157  15.047  0.00  0.00    +0.000 A 
ATOM     23  C   UNL     1       6.961   4.662  13.794  0.00  0.00    +0.000 A 
ATOM     24  C   UNL     1       5.791   3.919  13.665  0.00  0.00    +0.000 A 
ATOM     25 CL   UNL     1       5.328   3.318  12.120  0.00  0.00    +0.000 Cl
ATOM     26  C   UNL     1       4.997   3.656  14.778  0.00  0.00    +0.000 A 
ATOM     27  C   UNL     1       5.364   4.162  16.032  0.00  0.00    +0.000 A 
ENDBRANCH  20  21
ENDBRANCH   5  20
TORSDOF 6
ENDMDL
MODEL 4
REMARK VINA RESULT:      -8.2      2.645      7.630
REMARK  Name = 
REMARK  7 active torsions:
REMARK  status: ('A' for Active; 'I' for Inactive)
REMARK    1  A    between atoms: C_1  and  C_2
REMARK    2  A    between atoms: C_2  and  O_3
REMARK    3  A    between atoms: O_3  and  C_4
REMARK    4  A    between atoms: C_4  and  C_6
REMARK    5  A    between atoms: N_8  and  C_9
REMARK    6  A    between atoms: C_17  and  S_18
REMARK    7  A    between atoms: S_18  and  C_19
REMARK                            x       y       z     vdW  Elec       q    Type
REMARK                         _______ _______ _______ _____ _____    ______ ____
ROOT
ATOM      1  C   UNL     1       2.608   4.094  18.850  0.00  0.00    +0.000 A 
ATOM      2  N   UNL     1       2.074   5.286  18.832  0.00  0.00    +0.000 NA
ATOM      3  N   UNL     1       2.902   6.377  18.806  0.00  0.00    +0.000 N 
ATOM      4  C   UNL     1       4.260   6.247  18.583  0.00  0.00    +0.000 A 
ATOM      5  C   UNL     1       4.923   5.087  18.577  0.00  0.00    +0.000 A 
ATOM      6  C   UNL     1       4.101   3.890  18.865  0.00  0.00    +0.000 A 
ATOM      7  O   UNL     1       4.559   2.789  19.132  0.00  0.00    +0.000 OA
ENDROOT
BRANCH   3   8
ATOM      8  C   UNL     1       2.234   7.640  18.909  0.00  0.00    +0.000 A 
ATOM      9  C   UNL     1       2.121   8.511  17.810  0.00  0.00    +0.000 A 
ATOM     10  C   UNL     1       1.486   9.752  17.924  0.00  0.00    +0.000 A 
ATOM     11  C   UNL     1       0.948  10.149  19.145  0.00  0.00    +0.000 A 
ATOM     12  C   UNL     1       1.050   9.305  20.246  0.00  0.00    +0.000 A 
ATOM     13 CL   UNL     1       0.382   9.792  21.756  0.00  0.00    +0.000 Cl
ATOM     14  C   UNL     1       1.688   8.069  20.135  0.00  0.00    +0.000 A 
ENDBRANCH   3   8
BRANCH   1  15
ATOM     15  C   UNL     1       1.662   2.914  18.781  0.00  0.00    +0.000 C 
ATOM     16  O   UNL     1       0.853   2.786  17.879  0.00  0.00    +0.000 OA
BRANCH  15  17
ATOM     17  O   UNL     1       1.753   2.172  19.907  0.00  0.00    +0.000 OA
BRANCH  17  19
ATOM     18  C   UNL     1       2.217   3.117  22.071  0.00  0.00    +0.000 C 
ATOM     19  C   UNL     1       1.137   2.753  21.065  0.00  0.00    +0.000 C 
ENDBRANCH  17  19
ENDBRANCH  15  17
ENDBRANCH   1  15
BRANCH   5  20
ATOM     20  S   UNL     1       6.598   4.926  18.209  0.00  0.00    +0.000 S 
BRANCH  20  21
ATOM     21  C   UNL     1       6.506   4.583  16.462  0.00  0.00    +0.000 A 
ATOM     22  C   UNL     1       5.440   3.851  15.926  0.00  0.00    +0.000 A 
ATOM     23  C   UNL     1       5.379   3.592  14.553  0.00  0.00    +0.000 A 
ATOM     24  C   UNL     1       6.371   4.087  13.712  0.00  0.00    +0.000 A 
ATOM     25 CL   UNL     1       6.299   3.760  12.024  0.00  0.00    +0.000 Cl
ATOM     26  C   UNL     1       7.417   4.848  14.227  0.00  0.00    +0.000 A 
ATOM     27  C   UNL     1       7.486   5.098  15.604  0.00  0.00    +0.000 A 
ENDBRANCH  20  21
ENDBRANCH   5  20
TORSDOF 6
ENDMDL
MODEL 5
REMARK VINA RESULT:      -8.2      3.980      7.455
REMARK  Name = 
REMARK  7 active torsions:
REMARK  status: ('A' for Active; 'I' for Inactive)
REMARK    1  A    between atoms: C_1  and  C_2
REMARK    2  A    between atoms: C_2  and  O_3
REMARK    3  A    between atoms: O_3  and  C_4
REMARK    4  A    between atoms: C_4  and  C_6
REMARK    5  A    between atoms: N_8  and  C_9
REMARK    6  A    between atoms: C_17  and  S_18
REMARK    7  A    between atoms: S_18  and  C_19
REMARK                            x       y       z     vdW  Elec       q    Type
REMARK                         _______ _______ _______ _____ _____    ______ ____
ROOT
ATOM      1  C   UNL     1       2.835   4.054  20.321  0.00  0.00    +0.000 A 
ATOM      2  N   UNL     1       2.197   5.192  20.264  0.00  0.00    +0.000 NA
ATOM      3  N   UNL     1       2.762   6.228  19.567  0.00  0.00    +0.000 N 
ATOM      4  C   UNL     1       3.865   6.036  18.756  0.00  0.00    +0.000 A 
ATOM      5  C   UNL     1       4.600   4.921  18.723  0.00  0.00    +0.000 A 
ATOM      6  C   UNL     1       4.177   3.859  19.663  0.00  0.00    +0.000 A 
ATOM      7  O   UNL     1       4.851   2.878  19.943  0.00  0.00    +0.000 OA
ENDROOT
BRANCH   3   8
ATOM      8  C   UNL     1       2.053   7.470  19.658  0.00  0.00    +0.000 A 
ATOM      9  C   UNL     1       2.000   8.375  18.582  0.00  0.00    +0.000 A 
ATOM     10  C   UNL     1       1.324   9.594  18.686  0.00  0.00    +0.000 A 
ATOM     11  C   UNL     1       0.683   9.936  19.873  0.00  0.00    +0.000 A 
ATOM     12  C   UNL     1       0.724   9.058  20.952  0.00  0.00    +0.000 A 
ATOM     13 CL   UNL     1      -0.070   9.477  22.420  0.00  0.00    +0.000 Cl
ATOM     14  C   UNL     1       1.403   7.843  20.852  0.00  0.00    +0.000 A 
ENDBRANCH   3   8
BRANCH   1  15
ATOM     15  C   UNL     1       2.135   2.906  21.018  0.00  0.00    +0.000 C 
ATOM     16  O   UNL     1       1.984   2.879  22.226  0.00  0.00    +0.000 OA
BRANCH  15  17
ATOM     17  O   UNL     1       1.881   1.910  20.140  0.00  0.00    +0.000 OA
BRANCH  17  19
ATOM     18  C   UNL     1       1.973   2.078  17.741  0.00  0.00    +0.000 C 
ATOM     19  C   UNL     1       1.127   2.300  18.984  0.00  0.00    +0.000 C 
ENDBRANCH  17  19
ENDBRANCH  15  17
ENDBRANCH   1  15
BRANCH   5  20
ATOM     20  S   UNL     1       5.917   4.656  17.645  0.00  0.00    +0.000 S 
BRANCH  20  21
ATOM     21  C   UNL     1       6.851   6.151  17.917  0.00  0.00    +0.000 A 
ATOM     22  C   UNL     1       7.837   6.216  18.908  0.00  0.00    +0.000 A 
ATOM     23  C   UNL     1       8.563   7.394  19.108  0.00  0.00    +0.000 A 
ATOM     24  C   UNL     1       8.321   8.501  18.300  0.00  0.00    +0.000 A 
ATOM     25 CL   UNL     1       9.209   9.953  18.553  0.00  0.00    +0.000 Cl
ATOM     26  C   UNL     1       7.369   8.438  17.286  0.00  0.00    +0.000 A 
ATOM     27  C   UNL     1       6.631   7.262  17.092  0.00  0.00    +0.000 A 
ENDBRANCH  20  21
ENDBRANCH   5  20
TORSDOF 6
ENDMDL
MODEL 6
REMARK VINA RESULT:      -8.2      2.304      7.516
REMARK  Name = 
REMARK  7 active torsions:
REMARK  status: ('A' for Active; 'I' for Inactive)
REMARK    1  A    between atoms: C_1  and  C_2
REMARK    2  A    between atoms: C_2  and  O_3
REMARK    3  A    between atoms: O_3  and  C_4
REMARK    4  A    between atoms: C_4  and  C_6
REMARK    5  A    between atoms: N_8  and  C_9
REMARK    6  A    between atoms: C_17  and  S_18
REMARK    7  A    between atoms: S_18  and  C_19
REMARK                            x       y       z     vdW  Elec       q    Type
REMARK                         _______ _______ _______ _____ _____    ______ ____
ROOT
ATOM      1  C   UNL     1       4.053   4.477  19.079  0.00  0.00    +0.000 A 
ATOM      2  N   UNL     1       3.156   5.426  19.120  0.00  0.00    +0.000 NA
ATOM      3  N   UNL     1       3.491   6.668  18.647  0.00  0.00    +0.000 N 
ATOM      4  C   UNL     1       4.659   6.879  17.938  0.00  0.00    +0.000 A 
ATOM      5  C   UNL     1       5.650   5.990  17.821  0.00  0.00    +0.000 A 
ATOM      6  C   UNL     1       5.442   4.716  18.546  0.00  0.00    +0.000 A 
ATOM      7  O   UNL     1       6.319   3.890  18.749  0.00  0.00    +0.000 OA
ENDROOT
BRANCH   3   8
ATOM      8  C   UNL     1       2.490   7.675  18.843  0.00  0.00    +0.000 A 
ATOM      9  C   UNL     1       2.101   8.544  17.807  0.00  0.00    +0.000 A 
ATOM     10  C   UNL     1       1.139   9.539  18.012  0.00  0.00    +0.000 A 
ATOM     11  C   UNL     1       0.543   9.684  19.261  0.00  0.00    +0.000 A 
ATOM     12  C   UNL     1       0.914   8.836  20.301  0.00  0.00    +0.000 A 
ATOM     13 CL   UNL     1       0.176   9.012  21.846  0.00  0.00    +0.000 Cl
ATOM     14  C   UNL     1       1.878   7.847  20.100  0.00  0.00    +0.000 A 
ENDBRANCH   3   8
BRANCH   1  15
ATOM     15  C   UNL     1       3.616   3.097  19.521  0.00  0.00    +0.000 C 
ATOM     16  O   UNL     1       4.140   2.522  20.458  0.00  0.00    +0.000 OA
BRANCH  15  17
ATOM     17  O   UNL     1       2.722   2.585  18.646  0.00  0.00    +0.000 OA
BRANCH  17  19
ATOM     18  C   UNL     1       0.755   3.048  19.951  0.00  0.00    +0.000 C 
ATOM     19  C   UNL     1       1.569   1.977  19.244  0.00  0.00    +0.000 C 
ENDBRANCH  17  19
ENDBRANCH  15  17
ENDBRANCH   1  15
BRANCH   5  20
ATOM     20  S   UNL     1       7.061   6.228  16.862  0.00  0.00    +0.000 S 
BRANCH  20  21
ATOM     21  C   UNL     1       6.641   5.246  15.434  0.00  0.00    +0.000 A 
ATOM     22  C   UNL     1       5.426   4.556  15.365  0.00  0.00    +0.000 A 
ATOM     23  C   UNL     1       5.108   3.792  14.239  0.00  0.00    +0.000 A 
ATOM     24  C   UNL     1       5.996   3.738  13.168  0.00  0.00    +0.000 A 
ATOM     25 CL   UNL     1       5.608   2.790  11.785  0.00  0.00    +0.000 Cl
ATOM     26  C   UNL     1       7.192   4.450  13.208  0.00  0.00    +0.000 A 
ATOM     27  C   UNL     1       7.517   5.206  14.342  0.00  0.00    +0.000 A 
ENDBRANCH  20  21
ENDBRANCH   5  20
TORSDOF 6
ENDMDL
MODEL 7
REMARK VINA RESULT:      -8.1      2.636      7.659
REMARK  Name = 
REMARK  7 active torsions:
REMARK  status: ('A' for Active; 'I' for Inactive)
REMARK    1  A    between atoms: C_1  and  C_2
REMARK    2  A    between atoms: C_2  and  O_3
REMARK    3  A    between atoms: O_3  and  C_4
REMARK    4  A    between atoms: C_4  and  C_6
REMARK    5  A    between atoms: N_8  and  C_9
REMARK    6  A    between atoms: C_17  and  S_18
REMARK    7  A    between atoms: S_18  and  C_19
REMARK                            x       y       z     vdW  Elec       q    Type
REMARK                         _______ _______ _______ _____ _____    ______ ____
ROOT
ATOM      1  C   UNL     1       2.644   4.159  19.022  0.00  0.00    +0.000 A 
ATOM      2  N   UNL     1       2.099   5.344  18.958  0.00  0.00    +0.000 NA
ATOM      3  N   UNL     1       2.917   6.438  18.858  0.00  0.00    +0.000 N 
ATOM      4  C   UNL     1       4.270   6.308  18.608  0.00  0.00    +0.000 A 
ATOM      5  C   UNL     1       4.943   5.154  18.642  0.00  0.00    +0.000 A 
ATOM      6  C   UNL     1       4.138   3.967  19.010  0.00  0.00    +0.000 A 
ATOM      7  O   UNL     1       4.613   2.883  19.319  0.00  0.00    +0.000 OA
ENDROOT
BRANCH   3   8
ATOM      8  C   UNL     1       2.240   7.701  18.916  0.00  0.00    +0.000 A 
ATOM      9  C   UNL     1       2.216   8.579  17.817  0.00  0.00    +0.000 A 
ATOM     10  C   UNL     1       1.572   9.819  17.888  0.00  0.00    +0.000 A 
ATOM     11  C   UNL     1       0.936  10.206  19.064  0.00  0.00    +0.000 A 
ATOM     12  C   UNL     1       0.949   9.354  20.164  0.00  0.00    +0.000 A 
ATOM     13 CL   UNL     1       0.160   9.830  21.618  0.00  0.00    +0.000 Cl
ATOM     14  C   UNL     1       1.596   8.120  20.096  0.00  0.00    +0.000 A 
ENDBRANCH   3   8
BRANCH   1  15
ATOM     15  C   UNL     1       1.707   2.969  19.035  0.00  0.00    +0.000 C 
ATOM     16  O   UNL     1       1.727   2.121  18.161  0.00  0.00    +0.000 OA
BRANCH  15  17
ATOM     17  O   UNL     1       0.795   3.101  20.024  0.00  0.00    +0.000 OA
BRANCH  17  19
ATOM     18  C   UNL     1       2.097   2.092  21.778  0.00  0.00    +0.000 C 
ATOM     19  C   UNL     1       1.346   3.335  21.327  0.00  0.00    +0.000 C 
ENDBRANCH  17  19
ENDBRANCH  15  17
ENDBRANCH   1  15
BRANCH   5  20
ATOM     20  S   UNL     1       6.609   4.987  18.241  0.00  0.00    +0.000 S 
BRANCH  20  21
ATOM     21  C   UNL     1       6.479   4.624  16.500  0.00  0.00    +0.000 A 
ATOM     22  C   UNL     1       7.422   5.113  15.589  0.00  0.00    +0.000 A 
ATOM     23  C   UNL     1       7.310   4.819  14.227  0.00  0.00    +0.000 A 
ATOM     24  C   UNL     1       6.267   4.013  13.778  0.00  0.00    +0.000 A 
ATOM     25 CL   UNL     1       6.124   3.659  12.100  0.00  0.00    +0.000 Cl
ATOM     26  C   UNL     1       5.342   3.490  14.679  0.00  0.00    +0.000 A 
ATOM     27  C   UNL     1       5.447   3.795  16.042  0.00  0.00    +0.000 A 
ENDBRANCH  20  21
ENDBRANCH   5  20
TORSDOF 6
ENDMDL
MODEL 8
REMARK VINA RESULT:      -8.1      2.304      7.545
REMARK  Name = 
REMARK  7 active torsions:
REMARK  status: ('A' for Active; 'I' for Inactive)
REMARK    1  A    between atoms: C_1  and  C_2
REMARK    2  A    between atoms: C_2  and  O_3
REMARK    3  A    between atoms: O_3  and  C_4
REMARK    4  A    between atoms: C_4  and  C_6
REMARK    5  A    between atoms: N_8  and  C_9
REMARK    6  A    between atoms: C_17  and  S_18
REMARK    7  A    between atoms: S_18  and  C_19
REMARK                            x       y       z     vdW  Elec       q    Type
REMARK                         _______ _______ _______ _____ _____    ______ ____
ROOT
ATOM      1  C   UNL     1       4.077   4.582  19.183  0.00  0.00    +0.000 A 
ATOM      2  N   UNL     1       3.162   5.514  19.195  0.00  0.00    +0.000 NA
ATOM      3  N   UNL     1       3.469   6.742  18.668  0.00  0.00    +0.000 N 
ATOM      4  C   UNL     1       4.627   6.946  17.941  0.00  0.00    +0.000 A 
ATOM      5  C   UNL     1       5.634   6.072  17.851  0.00  0.00    +0.000 A 
ATOM      6  C   UNL     1       5.457   4.825  18.628  0.00  0.00    +0.000 A 
ATOM      7  O   UNL     1       6.351   4.025  18.857  0.00  0.00    +0.000 OA
ENDROOT
BRANCH   3   8
ATOM      8  C   UNL     1       2.451   7.737  18.832  0.00  0.00    +0.000 A 
ATOM      9  C   UNL     1       2.066   8.584  17.777  0.00  0.00    +0.000 A 
ATOM     10  C   UNL     1       1.086   9.567  17.951  0.00  0.00    +0.000 A 
ATOM     11  C   UNL     1       0.468   9.723  19.188  0.00  0.00    +0.000 A 
ATOM     12  C   UNL     1       0.835   8.897  20.246  0.00  0.00    +0.000 A 
ATOM     13 CL   UNL     1       0.069   9.085  21.777  0.00  0.00    +0.000 Cl
ATOM     14  C   UNL     1       1.816   7.920  20.076  0.00  0.00    +0.000 A 
ENDBRANCH   3   8
BRANCH   1  15
ATOM     15  C   UNL     1       3.671   3.212  19.685  0.00  0.00    +0.000 C 
ATOM     16  O   UNL     1       3.890   2.199  19.047  0.00  0.00    +0.000 OA
BRANCH  15  17
ATOM     17  O   UNL     1       2.922   3.326  20.805  0.00  0.00    +0.000 OA
BRANCH  17  19
ATOM     18  C   UNL     1       0.650   3.233  20.018  0.00  0.00    +0.000 C 
ATOM     19  C   UNL     1       1.731   2.527  20.821  0.00  0.00    +0.000 C 
ENDBRANCH  17  19
ENDBRANCH  15  17
ENDBRANCH   1  15
BRANCH   5  20
ATOM     20  S   UNL     1       7.032   6.298  16.871  0.00  0.00    +0.000 S 
BRANCH  20  21
ATOM     21  C   UNL     1       6.578   5.327  15.446  0.00  0.00    +0.000 A 
ATOM     22  C   UNL     1       7.450   5.189  14.360  0.00  0.00    +0.000 A 
ATOM     23  C   UNL     1       7.082   4.423  13.250  0.00  0.00    +0.000 A 
ATOM     24  C   UNL     1       5.851   3.772  13.236  0.00  0.00    +0.000 A 
ATOM     25 CL   UNL     1       5.396   2.837  11.866  0.00  0.00    +0.000 Cl
ATOM     26  C   UNL     1       4.990   3.871  14.326  0.00  0.00    +0.000 A 
ATOM     27  C   UNL     1       5.353   4.649  15.434  0.00  0.00    +0.000 A 
ENDBRANCH  20  21
ENDBRANCH   5  20
TORSDOF 6
ENDMDL
MODEL 9
REMARK VINA RESULT:      -8.1      2.643      7.404
REMARK  Name = 
REMARK  7 active torsions:
REMARK  status: ('A' for Active; 'I' for Inactive)
REMARK    1  A    between atoms: C_1  and  C_2
REMARK    2  A    between atoms: C_2  and  O_3
REMARK    3  A    between atoms: O_3  and  C_4
REMARK    4  A    between atoms: C_4  and  C_6
REMARK    5  A    between atoms: N_8  and  C_9
REMARK    6  A    between atoms: C_17  and  S_18
REMARK    7  A    between atoms: S_18  and  C_19
REMARK                            x       y       z     vdW  Elec       q    Type
REMARK                         _______ _______ _______ _____ _____    ______ ____
ROOT
ATOM      1  C   UNL     1       3.122   4.098  20.189  0.00  0.00    +0.000 A 
ATOM      2  N   UNL     1       2.456   5.191  19.929  0.00  0.00    +0.000 NA
ATOM      3  N   UNL     1       3.126   6.256  19.387  0.00  0.00    +0.000 N 
ATOM      4  C   UNL     1       4.419   6.130  18.914  0.00  0.00    +0.000 A 
ATOM      5  C   UNL     1       5.202   5.065  19.112  0.00  0.00    +0.000 A 
ATOM      6  C   UNL     1       4.602   3.985  19.929  0.00  0.00    +0.000 A 
ATOM      7  O   UNL     1       5.232   3.054  20.407  0.00  0.00    +0.000 OA
ENDROOT
BRANCH   3   8
ATOM      8  C   UNL     1       2.345   7.449  19.249  0.00  0.00    +0.000 A 
ATOM      9  C   UNL     1       2.259   8.141  18.026  0.00  0.00    +0.000 A 
ATOM     10  C   UNL     1       1.512   9.317  17.904  0.00  0.00    +0.000 A 
ATOM     11  C   UNL     1       0.832   9.828  19.007  0.00  0.00    +0.000 A 
ATOM     12  C   UNL     1       0.905   9.161  20.226  0.00  0.00    +0.000 A 
ATOM     13 CL   UNL     1       0.062   9.788  21.590  0.00  0.00    +0.000 Cl
ATOM     14  C   UNL     1       1.655   7.991  20.351  0.00  0.00    +0.000 A 
ENDBRANCH   3   8
BRANCH   1  15
ATOM     15  C   UNL     1       2.329   2.912  20.696  0.00  0.00    +0.000 C 
ATOM     16  O   UNL     1       1.973   2.821  21.858  0.00  0.00    +0.000 OA
BRANCH  15  17
ATOM     17  O   UNL     1       2.241   1.962  19.739  0.00  0.00    +0.000 OA
BRANCH  17  19
ATOM     18  C   UNL     1       2.270   2.232  17.348  0.00  0.00    +0.000 C 
ATOM     19  C   UNL     1       1.428   2.312  18.611  0.00  0.00    +0.000 C 
ENDBRANCH  17  19
ENDBRANCH  15  17
ENDBRANCH   1  15
BRANCH   5  20
ATOM     20  S   UNL     1       6.778   4.879  18.444  0.00  0.00    +0.000 S 
BRANCH  20  21
ATOM     21  C   UNL     1       6.362   4.543  16.743  0.00  0.00    +0.000 A 
ATOM     22  C   UNL     1       5.133   3.966  16.402  0.00  0.00    +0.000 A 
ATOM     23  C   UNL     1       4.819   3.710  15.064  0.00  0.00    +0.000 A 
ATOM     24  C   UNL     1       5.723   4.055  14.063  0.00  0.00    +0.000 A 
ATOM     25 CL   UNL     1       5.338   3.732  12.418  0.00  0.00    +0.000 Cl
ATOM     26  C   UNL     1       6.933   4.664  14.386  0.00  0.00    +0.000 A 
ATOM     27  C   UNL     1       7.254   4.909  15.728  0.00  0.00    +0.000 A 
ENDBRANCH  20  21
ENDBRANCH   5  20
TORSDOF 6
ENDMDL
