MODEL 1
REMARK VINA RESULT:      -8.1      0.000      0.000
REMARK  Name = 
REMARK  5 active torsions:
REMARK  status: ('A' for Active; 'I' for Inactive)
REMARK    1  A    between atoms: C_1  and  C_2
REMARK    2  A    between atoms: C_2  and  O_3
REMARK    3  A    between atoms: C_2  and  C_16
REMARK    4  A    between atoms: O_3  and  C_4
REMARK    5  A    between atoms: C_4  and  C_6
REMARK                            x       y       z     vdW  Elec       q    Type
REMARK                         _______ _______ _______ _____ _____    ______ ____
ROOT
ATOM      1  C   UNL     1       4.171   5.438  17.364  0.00  0.00    +0.000 C 
ATOM      2  O   UNL     1       4.318   6.636  17.586  0.00  0.00    +0.000 OA
ENDROOT
BRANCH   1   3
ATOM      3  C   UNL     1       3.298   4.518  18.229  0.00  0.00    +0.000 C 
ATOM      4  C   UNL     1       1.807   4.459  17.815  0.00  0.00    +0.000 C 
ATOM      5  C   UNL     1       1.020   3.511  18.746  0.00  0.00    +0.000 C 
ATOM      6  C   UNL     1       1.620   2.098  18.669  0.00  0.00    +0.000 C 
ATOM      7  C   UNL     1       3.099   2.133  19.085  0.00  0.00    +0.000 C 
ATOM      8  C   UNL     1       3.209   2.654  20.528  0.00  0.00    +0.000 C 
ATOM      9  C   UNL     1       2.596   4.061  20.630  0.00  0.00    +0.000 C 
ATOM     10  C   UNL     1       1.121   4.007  20.197  0.00  0.00    +0.000 C 
ATOM     11  C   UNL     1       3.360   5.015  19.695  0.00  0.00    +0.000 C 
ATOM     12  C   UNL     1       3.867   3.080  18.147  0.00  0.00    +0.000 C 
ENDBRANCH   1   3
BRANCH   1  13
ATOM     13  O   UNL     1       4.763   4.779  16.329  0.00  0.00    +0.000 OA
BRANCH  13  15
ATOM     14  C   UNL     1       7.071   4.607  16.948  0.00  0.00    +0.000 C 
ATOM     15  C   UNL     1       6.087   5.220  15.951  0.00  0.00    +0.000 C 
BRANCH  15  16
ATOM     16  C   UNL     1       6.459   4.754  14.561  0.00  0.00    +0.000 A 
ATOM     17  C   UNL     1       5.689   3.796  13.892  0.00  0.00    +0.000 A 
ATOM     18  C   UNL     1       5.988   3.460  12.575  0.00  0.00    +0.000 A 
ATOM     19  C   UNL     1       7.058   4.093  11.967  0.00  0.00    +0.000 A 
ATOM     20  N   UNL     1       7.832   5.014  12.576  0.00  0.00    +0.000 NA
ATOM     21  C   UNL     1       7.514   5.325  13.854  0.00  0.00    +0.000 A 
ENDBRANCH  15  16
ENDBRANCH  13  15
ENDBRANCH   1  13
TORSDOF 4
ENDMDL
MODEL 2
REMARK VINA RESULT:      -8.1      0.188      1.596
REMARK  Name = 
REMARK  5 active torsions:
REMARK  status: ('A' for Active; 'I' for Inactive)
REMARK    1  A    between atoms: C_1  and  C_2
REMARK    2  A    between atoms: C_2  and  O_3
REMARK    3  A    between atoms: C_2  and  C_16
REMARK    4  A    between atoms: O_3  and  C_4
REMARK    5  A    between atoms: C_4  and  C_6
REMARK                            x       y       z     vdW  Elec       q    Type
REMARK                         _______ _______ _______ _____ _____    ______ ____
ROOT
ATOM      1  C   UNL     1       4.111   5.440  17.444  0.00  0.00    +0.000 C 
ATOM      2  O   UNL     1       4.197   6.657  17.569  0.00  0.00    +0.000 OA
ENDROOT
BRANCH   1   3
ATOM      3  C   UNL     1       3.305   4.546  18.398  0.00  0.00    +0.000 C 
ATOM      4  C   UNL     1       3.203   5.072  19.851  0.00  0.00    +0.000 C 
ATOM      5  C   UNL     1       2.377   4.104  20.724  0.00  0.00    +0.000 C 
ATOM      6  C   UNL     1       0.962   3.962  20.140  0.00  0.00    +0.000 C 
ATOM      7  C   UNL     1       1.041   3.431  18.700  0.00  0.00    +0.000 C 
ATOM      8  C   UNL     1       1.731   2.056  18.702  0.00  0.00    +0.000 C 
ATOM      9  C   UNL     1       3.142   2.175  19.300  0.00  0.00    +0.000 C 
ATOM     10  C   UNL     1       3.043   2.719  20.736  0.00  0.00    +0.000 C 
ATOM     11  C   UNL     1       3.974   3.150  18.449  0.00  0.00    +0.000 C 
ATOM     12  C   UNL     1       1.865   4.409  17.844  0.00  0.00    +0.000 C 
ENDBRANCH   1   3
BRANCH   1  13
ATOM     13  O   UNL     1       4.719   4.733  16.451  0.00  0.00    +0.000 OA
BRANCH  13  15
ATOM     14  C   UNL     1       7.057   4.709  16.970  0.00  0.00    +0.000 C 
ATOM     15  C   UNL     1       5.999   5.225  15.994  0.00  0.00    +0.000 C 
BRANCH  15  16
ATOM     16  C   UNL     1       6.335   4.717  14.609  0.00  0.00    +0.000 A 
ATOM     17  C   UNL     1       5.478   3.838  13.937  0.00  0.00    +0.000 A 
ATOM     18  C   UNL     1       5.754   3.468  12.624  0.00  0.00    +0.000 A 
ATOM     19  C   UNL     1       6.887   3.987  12.023  0.00  0.00    +0.000 A 
ATOM     20  N   UNL     1       7.745   4.829  12.637  0.00  0.00    +0.000 NA
ATOM     21  C   UNL     1       7.448   5.175  13.910  0.00  0.00    +0.000 A 
ENDBRANCH  15  16
ENDBRANCH  13  15
ENDBRANCH   1  13
TORSDOF 4
ENDMDL
MODEL 3
REMARK VINA RESULT:      -8.0      1.224      1.539
REMARK  Name = 
REMARK  5 active torsions:
REMARK  status: ('A' for Active; 'I' for Inactive)
REMARK    1  A    between atoms: C_1  and  C_2
REMARK    2  A    between atoms: C_2  and  O_3
REMARK    3  A    between atoms: C_2  and  C_16
REMARK    4  A    between atoms: O_3  and  C_4
REMARK    5  A    between atoms: C_4  and  C_6
REMARK                            x       y       z     vdW  Elec       q    Type
REMARK                         _______ _______ _______ _____ _____    ______ ____
ROOT
ATOM      1  C   UNL     1       3.938   6.000  18.552  0.00  0.00    +0.000 C 
ATOM      2  O   UNL     1       3.422   7.072  18.254  0.00  0.00    +0.000 OA
ENDROOT
BRANCH   1   3
ATOM      3  C   UNL     1       3.136   4.773  19.009  0.00  0.00    +0.000 C 
ATOM      4  C   UNL     1       2.041   4.307  18.019  0.00  0.00    +0.000 C 
ATOM      5  C   UNL     1       1.296   3.073  18.572  0.00  0.00    +0.000 C 
ATOM      6  C   UNL     1       2.293   1.925  18.795  0.00  0.00    +0.000 C 
ATOM      7  C   UNL     1       3.385   2.365  19.784  0.00  0.00    +0.000 C 
ATOM      8  C   UNL     1       2.734   2.741  21.125  0.00  0.00    +0.000 C 
ATOM      9  C   UNL     1       1.718   3.876  20.919  0.00  0.00    +0.000 C 
ATOM     10  C   UNL     1       0.642   3.422  19.918  0.00  0.00    +0.000 C 
ATOM     11  C   UNL     1       2.443   5.110  20.353  0.00  0.00    +0.000 C 
ATOM     12  C   UNL     1       4.117   3.593  19.216  0.00  0.00    +0.000 C 
ENDBRANCH   1   3
BRANCH   1  13
ATOM     13  O   UNL     1       5.280   5.767  18.519  0.00  0.00    +0.000 OA
BRANCH  13  15
ATOM     14  C   UNL     1       7.414   6.766  18.088  0.00  0.00    +0.000 C 
ATOM     15  C   UNL     1       6.035   6.461  17.500  0.00  0.00    +0.000 C 
BRANCH  15  16
ATOM     16  C   UNL     1       6.218   5.615  16.261  0.00  0.00    +0.000 A 
ATOM     17  C   UNL     1       5.203   4.759  15.817  0.00  0.00    +0.000 A 
ATOM     18  C   UNL     1       5.351   4.070  14.617  0.00  0.00    +0.000 A 
ATOM     19  C   UNL     1       6.518   4.255  13.897  0.00  0.00    +0.000 A 
ATOM     20  N   UNL     1       7.525   5.062  14.292  0.00  0.00    +0.000 NA
ATOM     21  C   UNL     1       7.350   5.723  15.459  0.00  0.00    +0.000 A 
ENDBRANCH  15  16
ENDBRANCH  13  15
ENDBRANCH   1  13
TORSDOF 4
ENDMDL
MODEL 4
REMARK VINA RESULT:      -8.0      0.152      1.649
REMARK  Name = 
REMARK  5 active torsions:
REMARK  status: ('A' for Active; 'I' for Inactive)
REMARK    1  A    between atoms: C_1  and  C_2
REMARK    2  A    between atoms: C_2  and  O_3
REMARK    3  A    between atoms: C_2  and  C_16
REMARK    4  A    between atoms: O_3  and  C_4
REMARK    5  A    between atoms: C_4  and  C_6
REMARK                            x       y       z     vdW  Elec       q    Type
REMARK                         _______ _______ _______ _____ _____    ______ ____
ROOT
ATOM      1  C   UNL     1       4.104   5.318  17.221  0.00  0.00    +0.000 C 
ATOM      2  O   UNL     1       4.113   6.541  17.312  0.00  0.00    +0.000 OA
ENDROOT
BRANCH   1   3
ATOM      3  C   UNL     1       3.332   4.404  18.185  0.00  0.00    +0.000 C 
ATOM      4  C   UNL     1       3.825   2.936  18.222  0.00  0.00    +0.000 C 
ATOM      5  C   UNL     1       2.986   2.106  19.217  0.00  0.00    +0.000 C 
ATOM      6  C   UNL     1       3.103   2.713  20.624  0.00  0.00    +0.000 C 
ATOM      7  C   UNL     1       2.609   4.168  20.610  0.00  0.00    +0.000 C 
ATOM      8  C   UNL     1       1.138   4.201  20.162  0.00  0.00    +0.000 C 
ATOM      9  C   UNL     1       0.998   3.580  18.763  0.00  0.00    +0.000 C 
ATOM     10  C   UNL     1       1.508   2.129  18.795  0.00  0.00    +0.000 C 
ATOM     11  C   UNL     1       1.842   4.389  17.762  0.00  0.00    +0.000 C 
ATOM     12  C   UNL     1       3.458   4.981  19.616  0.00  0.00    +0.000 C 
ENDBRANCH   1   3
BRANCH   1  13
ATOM     13  O   UNL     1       4.776   4.622  16.263  0.00  0.00    +0.000 OA
BRANCH  13  15
ATOM     14  C   UNL     1       7.094   4.579  16.862  0.00  0.00    +0.000 C 
ATOM     15  C   UNL     1       6.070   5.136  15.873  0.00  0.00    +0.000 C 
BRANCH  15  16
ATOM     16  C   UNL     1       6.455   4.691  14.480  0.00  0.00    +0.000 A 
ATOM     17  C   UNL     1       5.710   3.719  13.802  0.00  0.00    +0.000 A 
ATOM     18  C   UNL     1       6.019   3.402  12.483  0.00  0.00    +0.000 A 
ATOM     19  C   UNL     1       7.074   4.066  11.881  0.00  0.00    +0.000 A 
ATOM     20  N   UNL     1       7.825   5.001  12.500  0.00  0.00    +0.000 NA
ATOM     21  C   UNL     1       7.496   5.293  13.779  0.00  0.00    +0.000 A 
ENDBRANCH  15  16
ENDBRANCH  13  15
ENDBRANCH   1  13
TORSDOF 4
ENDMDL
MODEL 5
REMARK VINA RESULT:      -8.0      1.246      1.978
REMARK  Name = 
REMARK  5 active torsions:
REMARK  status: ('A' for Active; 'I' for Inactive)
REMARK    1  A    between atoms: C_1  and  C_2
REMARK    2  A    between atoms: C_2  and  O_3
REMARK    3  A    between atoms: C_2  and  C_16
REMARK    4  A    between atoms: O_3  and  C_4
REMARK    5  A    between atoms: C_4  and  C_6
REMARK                            x       y       z     vdW  Elec       q    Type
REMARK                         _______ _______ _______ _____ _____    ______ ____
ROOT
ATOM      1  C   UNL     1       3.881   6.051  18.513  0.00  0.00    +0.000 C 
ATOM      2  O   UNL     1       3.323   7.091  18.178  0.00  0.00    +0.000 OA
ENDROOT
BRANCH   1   3
ATOM      3  C   UNL     1       3.134   4.834  19.080  0.00  0.00    +0.000 C 
ATOM      4  C   UNL     1       2.333   5.110  20.376  0.00  0.00    +0.000 C 
ATOM      5  C   UNL     1       1.624   3.827  20.861  0.00  0.00    +0.000 C 
ATOM      6  C   UNL     1       0.662   3.326  19.771  0.00  0.00    +0.000 C 
ATOM      7  C   UNL     1       1.441   3.037  18.478  0.00  0.00    +0.000 C 
ATOM      8  C   UNL     1       2.503   1.960  18.753  0.00  0.00    +0.000 C 
ATOM      9  C   UNL     1       3.464   2.436  19.855  0.00  0.00    +0.000 C 
ATOM     10  C   UNL     1       2.666   2.731  21.136  0.00  0.00    +0.000 C 
ATOM     11  C   UNL     1       4.168   3.724  19.393  0.00  0.00    +0.000 C 
ATOM     12  C   UNL     1       2.138   4.326  18.009  0.00  0.00    +0.000 C 
ENDBRANCH   1   3
BRANCH   1  13
ATOM     13  O   UNL     1       5.225   5.849  18.429  0.00  0.00    +0.000 OA
BRANCH  13  15
ATOM     14  C   UNL     1       7.282   6.959  17.907  0.00  0.00    +0.000 C 
ATOM     15  C   UNL     1       5.920   6.531  17.360  0.00  0.00    +0.000 C 
BRANCH  15  16
ATOM     16  C   UNL     1       6.143   5.629  16.167  0.00  0.00    +0.000 A 
ATOM     17  C   UNL     1       5.169   4.704  15.771  0.00  0.00    +0.000 A 
ATOM     18  C   UNL     1       5.351   3.960  14.609  0.00  0.00    +0.000 A 
ATOM     19  C   UNL     1       6.509   4.160  13.879  0.00  0.00    +0.000 A 
ATOM     20  N   UNL     1       7.477   5.032  14.229  0.00  0.00    +0.000 NA
ATOM     21  C   UNL     1       7.270   5.746  15.359  0.00  0.00    +0.000 A 
ENDBRANCH  15  16
ENDBRANCH  13  15
ENDBRANCH   1  13
TORSDOF 4
ENDMDL
MODEL 6
REMARK VINA RESULT:      -7.9      1.260      2.349
REMARK  Name = 
REMARK  5 active torsions:
REMARK  status: ('A' for Active; 'I' for Inactive)
REMARK    1  A    between atoms: C_1  and  C_2
REMARK    2  A    between atoms: C_2  and  O_3
REMARK    3  A    between atoms: C_2  and  C_16
REMARK    4  A    between atoms: O_3  and  C_4
REMARK    5  A    between atoms: C_4  and  C_6
REMARK                            x       y       z     vdW  Elec       q    Type
REMARK                         _______ _______ _______ _____ _____    ______ ____
ROOT
ATOM      1  C   UNL     1       3.828   6.088  18.549  0.00  0.00    +0.000 C 
ATOM      2  O   UNL     1       3.192   7.115  18.336  0.00  0.00    +0.000 OA
ENDROOT
BRANCH   1   3
ATOM      3  C   UNL     1       3.191   4.791  19.071  0.00  0.00    +0.000 C 
ATOM      4  C   UNL     1       4.197   3.660  19.397  0.00  0.00    +0.000 C 
ATOM      5  C   UNL     1       3.458   2.406  19.911  0.00  0.00    +0.000 C 
ATOM      6  C   UNL     1       2.667   2.757  21.181  0.00  0.00    +0.000 C 
ATOM      7  C   UNL     1       1.655   3.874  20.876  0.00  0.00    +0.000 C 
ATOM      8  C   UNL     1       0.681   3.393  19.787  0.00  0.00    +0.000 C 
ATOM      9  C   UNL     1       1.457   3.019  18.513  0.00  0.00    +0.000 C 
ATOM     10  C   UNL     1       2.472   1.910  18.841  0.00  0.00    +0.000 C 
ATOM     11  C   UNL     1       2.212   4.256  17.997  0.00  0.00    +0.000 C 
ATOM     12  C   UNL     1       2.409   5.115  20.368  0.00  0.00    +0.000 C 
ENDBRANCH   1   3
BRANCH   1  13
ATOM     13  O   UNL     1       5.171   5.972  18.355  0.00  0.00    +0.000 OA
BRANCH  13  15
ATOM     14  C   UNL     1       7.031   7.315  17.668  0.00  0.00    +0.000 C 
ATOM     15  C   UNL     1       5.725   6.663  17.212  0.00  0.00    +0.000 C 
BRANCH  15  16
ATOM     16  C   UNL     1       6.032   5.715  16.076  0.00  0.00    +0.000 A 
ATOM     17  C   UNL     1       5.069   4.813  15.609  0.00  0.00    +0.000 A 
ATOM     18  C   UNL     1       5.338   4.025  14.494  0.00  0.00    +0.000 A 
ATOM     19  C   UNL     1       6.571   4.159  13.881  0.00  0.00    +0.000 A 
ATOM     20  N   UNL     1       7.531   5.008  14.302  0.00  0.00    +0.000 NA
ATOM     21  C   UNL     1       7.239   5.766  15.384  0.00  0.00    +0.000 A 
ENDBRANCH  15  16
ENDBRANCH  13  15
ENDBRANCH   1  13
TORSDOF 4
ENDMDL
MODEL 7
REMARK VINA RESULT:      -7.8      0.664      1.076
REMARK  Name = 
REMARK  5 active torsions:
REMARK  status: ('A' for Active; 'I' for Inactive)
REMARK    1  A    between atoms: C_1  and  C_2
REMARK    2  A    between atoms: C_2  and  O_3
REMARK    3  A    between atoms: C_2  and  C_16
REMARK    4  A    between atoms: O_3  and  C_4
REMARK    5  A    between atoms: C_4  and  C_6
REMARK                            x       y       z     vdW  Elec       q    Type
REMARK                         _______ _______ _______ _____ _____    ______ ____
ROOT
ATOM      1  C   UNL     1       4.147   5.206  17.303  0.00  0.00    +0.000 C 
ATOM      2  O   UNL     1       4.069   6.423  17.167  0.00  0.00    +0.000 OA
ENDROOT
BRANCH   1   3
ATOM      3  C   UNL     1       3.220   4.396  18.222  0.00  0.00    +0.000 C 
ATOM      4  C   UNL     1       1.733   4.379  17.792  0.00  0.00    +0.000 C 
ATOM      5  C   UNL     1       0.891   3.542  18.779  0.00  0.00    +0.000 C 
ATOM      6  C   UNL     1       1.421   2.100  18.816  0.00  0.00    +0.000 C 
ATOM      7  C   UNL     1       2.896   2.095  19.251  0.00  0.00    +0.000 C 
ATOM      8  C   UNL     1       3.015   2.717  20.652  0.00  0.00    +0.000 C 
ATOM      9  C   UNL     1       2.471   4.155  20.639  0.00  0.00    +0.000 C 
ATOM     10  C   UNL     1       1.000   4.140  20.191  0.00  0.00    +0.000 C 
ATOM     11  C   UNL     1       3.291   4.999  19.647  0.00  0.00    +0.000 C 
ATOM     12  C   UNL     1       3.719   2.931  18.255  0.00  0.00    +0.000 C 
ENDBRANCH   1   3
BRANCH   1  13
ATOM     13  O   UNL     1       5.063   4.427  16.663  0.00  0.00    +0.000 OA
BRANCH  13  15
ATOM     14  C   UNL     1       7.437   4.594  16.926  0.00  0.00    +0.000 C 
ATOM     15  C   UNL     1       6.229   5.097  16.133  0.00  0.00    +0.000 C 
BRANCH  15  16
ATOM     16  C   UNL     1       6.447   4.776  14.672  0.00  0.00    +0.000 A 
ATOM     17  C   UNL     1       7.492   5.367  13.953  0.00  0.00    +0.000 A 
ATOM     18  C   UNL     1       7.739   4.978  12.639  0.00  0.00    +0.000 A 
ATOM     19  C   UNL     1       6.924   4.009  12.081  0.00  0.00    +0.000 A 
ATOM     20  N   UNL     1       5.900   3.421  12.734  0.00  0.00    +0.000 NA
ATOM     21  C   UNL     1       5.688   3.815  14.010  0.00  0.00    +0.000 A 
ENDBRANCH  15  16
ENDBRANCH  13  15
ENDBRANCH   1  13
TORSDOF 4
ENDMDL
MODEL 8
REMARK VINA RESULT:      -7.8      0.657      1.980
REMARK  Name = 
REMARK  5 active torsions:
REMARK  status: ('A' for Active; 'I' for Inactive)
REMARK    1  A    between atoms: C_1  and  C_2
REMARK    2  A    between atoms: C_2  and  O_3
REMARK    3  A    between atoms: C_2  and  C_16
REMARK    4  A    between atoms: O_3  and  C_4
REMARK    5  A    between atoms: C_4  and  C_6
REMARK                            x       y       z     vdW  Elec       q    Type
REMARK                         _______ _______ _______ _____ _____    ______ ____
ROOT
ATOM      1  C   UNL     1       4.109   5.205  17.336  0.00  0.00    +0.000 C 
ATOM      2  O   UNL     1       4.034   6.428  17.289  0.00  0.00    +0.000 OA
ENDROOT
BRANCH   1   3
ATOM      3  C   UNL     1       3.289   4.344  18.308  0.00  0.00    +0.000 C 
ATOM      4  C   UNL     1       3.770   2.878  18.440  0.00  0.00    +0.000 C 
ATOM      5  C   UNL     1       2.882   2.101  19.437  0.00  0.00    +0.000 C 
ATOM      6  C   UNL     1       2.942   2.777  20.817  0.00  0.00    +0.000 C 
ATOM      7  C   UNL     1       2.460   4.233  20.708  0.00  0.00    +0.000 C 
ATOM      8  C   UNL     1       1.010   4.251  20.196  0.00  0.00    +0.000 C 
ATOM      9  C   UNL     1       0.926   3.562  18.824  0.00  0.00    +0.000 C 
ATOM     10  C   UNL     1       1.424   2.112  18.950  0.00  0.00    +0.000 C 
ATOM     11  C   UNL     1       1.819   4.315  17.822  0.00  0.00    +0.000 C 
ATOM     12  C   UNL     1       3.356   4.990  19.714  0.00  0.00    +0.000 C 
ENDBRANCH   1   3
BRANCH   1  13
ATOM     13  O   UNL     1       4.925   4.462  16.538  0.00  0.00    +0.000 OA
BRANCH  13  15
ATOM     14  C   UNL     1       7.289   4.557  16.912  0.00  0.00    +0.000 C 
ATOM     15  C   UNL     1       6.135   5.102  16.070  0.00  0.00    +0.000 C 
BRANCH  15  16
ATOM     16  C   UNL     1       6.411   4.789  14.617  0.00  0.00    +0.000 A 
ATOM     17  C   UNL     1       7.495   5.370  13.948  0.00  0.00    +0.000 A 
ATOM     18  C   UNL     1       7.792   4.987  12.644  0.00  0.00    +0.000 A 
ATOM     19  C   UNL     1       6.989   4.034  12.044  0.00  0.00    +0.000 A 
ATOM     20  N   UNL     1       5.929   3.456  12.647  0.00  0.00    +0.000 NA
ATOM     21  C   UNL     1       5.668   3.843  13.916  0.00  0.00    +0.000 A 
ENDBRANCH  15  16
ENDBRANCH  13  15
ENDBRANCH   1  13
TORSDOF 4
ENDMDL
MODEL 9
REMARK VINA RESULT:      -7.7      1.305      1.643
REMARK  Name = 
REMARK  5 active torsions:
REMARK  status: ('A' for Active; 'I' for Inactive)
REMARK    1  A    between atoms: C_1  and  C_2
REMARK    2  A    between atoms: C_2  and  O_3
REMARK    3  A    between atoms: C_2  and  C_16
REMARK    4  A    between atoms: O_3  and  C_4
REMARK    5  A    between atoms: C_4  and  C_6
REMARK                            x       y       z     vdW  Elec       q    Type
REMARK                         _______ _______ _______ _____ _____    ______ ____
ROOT
ATOM      1  C   UNL     1       5.761   4.496  18.697  0.00  0.00    +0.000 C 
ATOM      2  O   UNL     1       6.342   4.956  19.675  0.00  0.00    +0.000 OA
ENDROOT
BRANCH   1   3
ATOM      3  C   UNL     1       4.289   4.059  18.714  0.00  0.00    +0.000 C 
ATOM      4  C   UNL     1       3.818   3.315  17.441  0.00  0.00    +0.000 C 
ATOM      5  C   UNL     1       2.330   2.921  17.559  0.00  0.00    +0.000 C 
ATOM      6  C   UNL     1       2.134   2.006  18.778  0.00  0.00    +0.000 C 
ATOM      7  C   UNL     1       2.588   2.731  20.056  0.00  0.00    +0.000 C 
ATOM      8  C   UNL     1       1.752   4.009  20.239  0.00  0.00    +0.000 C 
ATOM      9  C   UNL     1       1.921   4.929  19.020  0.00  0.00    +0.000 C 
ATOM     10  C   UNL     1       1.474   4.183  17.751  0.00  0.00    +0.000 C 
ATOM     11  C   UNL     1       3.403   5.318  18.879  0.00  0.00    +0.000 C 
ATOM     12  C   UNL     1       4.072   3.113  19.921  0.00  0.00    +0.000 C 
ENDBRANCH   1   3
BRANCH   1  13
ATOM     13  O   UNL     1       6.348   4.315  17.481  0.00  0.00    +0.000 OA
BRANCH  13  15
ATOM     14  C   UNL     1       7.244   6.468  16.936  0.00  0.00    +0.000 C 
ATOM     15  C   UNL     1       6.227   5.399  16.533  0.00  0.00    +0.000 C 
BRANCH  15  16
ATOM     16  C   UNL     1       6.537   4.950  15.122  0.00  0.00    +0.000 A 
ATOM     17  C   UNL     1       5.753   3.979  14.487  0.00  0.00    +0.000 A 
ATOM     18  C   UNL     1       5.991   3.658  13.154  0.00  0.00    +0.000 A 
ATOM     19  C   UNL     1       7.013   4.318  12.495  0.00  0.00    +0.000 A 
ATOM     20  N   UNL     1       7.799   5.252  13.071  0.00  0.00    +0.000 NA
ATOM     21  C   UNL     1       7.540   5.548  14.365  0.00  0.00    +0.000 A 
ENDBRANCH  15  16
ENDBRANCH  13  15
ENDBRANCH   1  13
TORSDOF 4
ENDMDL
