MODEL 1
REMARK VINA RESULT:      -6.6      0.000      0.000
REMARK  Name = 
REMARK  4 active torsions:
REMARK  status: ('A' for Active; 'I' for Inactive)
REMARK    1  A    between atoms: C_1  and  C_2
REMARK    2  A    between atoms: C_3  and  C_4
REMARK    3  A    between atoms: C_4  and  O_5
REMARK    4  A    between atoms: C_9  and  C_10
REMARK                            x       y       z     vdW  Elec       q    Type
REMARK                         _______ _______ _______ _____ _____    ______ ____
ROOT
ATOM      1  C   UNL     1       3.065   7.247  17.539  0.00  0.00    +0.000 C 
ATOM      2  C   UNL     1       2.606   6.395  18.670  0.00  0.00    +0.000 A 
ATOM      3  C   UNL     1       2.030   6.732  19.895  0.00  0.00    +0.000 A 
ATOM      4  C   UNL     1       1.766   5.508  20.587  0.00  0.00    +0.000 A 
ATOM      5  C   UNL     1       2.189   4.481  19.784  0.00  0.00    +0.000 A 
ATOM      6  N   UNL     1       2.729   5.029  18.651  0.00  0.00    +0.000 N 
ATOM      7  C   UNL     1       3.214   4.104  17.627  0.00  0.00    +0.000 C 
ATOM      8  S   UNL     1       2.825   2.417  18.253  0.00  0.00    +0.000 S 
ATOM      9  C   UNL     1       2.188   3.004  19.866  0.00  0.00    +0.000 C 
ENDROOT
BRANCH   7  10
ATOM     10  C   UNL     1       4.689   4.282  17.324  0.00  0.00    +0.000 A 
ATOM     11  C   UNL     1       5.639   4.525  18.332  0.00  0.00    +0.000 A 
ATOM     12  C   UNL     1       6.986   4.706  18.016  0.00  0.00    +0.000 A 
ATOM     13  C   UNL     1       7.408   4.650  16.689  0.00  0.00    +0.000 A 
ATOM     14  C   UNL     1       6.483   4.406  15.677  0.00  0.00    +0.000 A 
ATOM     15  C   UNL     1       5.135   4.218  15.991  0.00  0.00    +0.000 A 
ENDBRANCH   7  10
BRANCH   3  16
ATOM     16  C   UNL     1       1.723   8.093  20.431  0.00  0.00    +0.000 C 
BRANCH  16  17
ATOM     17  O   UNL     1       1.809   8.127  21.852  0.00  0.00    +0.000 OA
ATOM     18  H   UNL     1       2.623   8.616  22.058  0.00  0.00    +0.000 HD
ENDBRANCH  16  17
ENDBRANCH   3  16
TORSDOF 3
ENDMDL
MODEL 2
REMARK VINA RESULT:      -6.6      2.642      4.575
REMARK  Name = 
REMARK  4 active torsions:
REMARK  status: ('A' for Active; 'I' for Inactive)
REMARK    1  A    between atoms: C_1  and  C_2
REMARK    2  A    between atoms: C_3  and  C_4
REMARK    3  A    between atoms: C_4  and  O_5
REMARK    4  A    between atoms: C_9  and  C_10
REMARK                            x       y       z     vdW  Elec       q    Type
REMARK                         _______ _______ _______ _____ _____    ______ ____
ROOT
ATOM      1  C   UNL     1       1.292   7.529  20.984  0.00  0.00    +0.000 C 
ATOM      2  C   UNL     1       1.867   7.841  19.647  0.00  0.00    +0.000 A 
ATOM      3  C   UNL     1       1.598   8.880  18.756  0.00  0.00    +0.000 A 
ATOM      4  C   UNL     1       2.464   8.703  17.629  0.00  0.00    +0.000 A 
ATOM      5  C   UNL     1       3.213   7.578  17.859  0.00  0.00    +0.000 A 
ATOM      6  N   UNL     1       2.816   7.047  19.057  0.00  0.00    +0.000 N 
ATOM      7  C   UNL     1       3.518   5.851  19.523  0.00  0.00    +0.000 C 
ATOM      8  S   UNL     1       4.823   5.517  18.267  0.00  0.00    +0.000 S 
ATOM      9  C   UNL     1       4.290   6.861  17.143  0.00  0.00    +0.000 C 
ENDROOT
BRANCH   7  10
ATOM     10  C   UNL     1       2.594   4.666  19.724  0.00  0.00    +0.000 A 
ATOM     11  C   UNL     1       1.922   4.048  18.654  0.00  0.00    +0.000 A 
ATOM     12  C   UNL     1       1.061   2.973  18.877  0.00  0.00    +0.000 A 
ATOM     13  C   UNL     1       0.853   2.498  20.170  0.00  0.00    +0.000 A 
ATOM     14  C   UNL     1       1.512   3.095  21.242  0.00  0.00    +0.000 A 
ATOM     15  C   UNL     1       2.380   4.166  21.021  0.00  0.00    +0.000 A 
ENDBRANCH   7  10
BRANCH   3  16
ATOM     16  C   UNL     1       0.609   9.991  18.899  0.00  0.00    +0.000 C 
BRANCH  16  17
ATOM     17  O   UNL     1      -0.077  10.241  17.676  0.00  0.00    +0.000 OA
ATOM     18  H   UNL     1      -0.875   9.687  17.700  0.00  0.00    +0.000 HD
ENDBRANCH  16  17
ENDBRANCH   3  16
TORSDOF 3
ENDMDL
MODEL 3
REMARK VINA RESULT:      -6.6      0.110      1.173
REMARK  Name = 
REMARK  4 active torsions:
REMARK  status: ('A' for Active; 'I' for Inactive)
REMARK    1  A    between atoms: C_1  and  C_2
REMARK    2  A    between atoms: C_3  and  C_4
REMARK    3  A    between atoms: C_4  and  O_5
REMARK    4  A    between atoms: C_9  and  C_10
REMARK                            x       y       z     vdW  Elec       q    Type
REMARK                         _______ _______ _______ _____ _____    ______ ____
ROOT
ATOM      1  C   UNL     1       3.011   7.261  17.571  0.00  0.00    +0.000 C 
ATOM      2  C   UNL     1       2.572   6.407  18.709  0.00  0.00    +0.000 A 
ATOM      3  C   UNL     1       1.990   6.742  19.931  0.00  0.00    +0.000 A 
ATOM      4  C   UNL     1       1.753   5.518  20.633  0.00  0.00    +0.000 A 
ATOM      5  C   UNL     1       2.197   4.494  19.838  0.00  0.00    +0.000 A 
ATOM      6  N   UNL     1       2.725   5.045  18.700  0.00  0.00    +0.000 N 
ATOM      7  C   UNL     1       3.228   4.123  17.682  0.00  0.00    +0.000 C 
ATOM      8  S   UNL     1       2.876   2.432  18.322  0.00  0.00    +0.000 S 
ATOM      9  C   UNL     1       2.227   3.018  19.931  0.00  0.00    +0.000 C 
ENDROOT
BRANCH   7  10
ATOM     10  C   UNL     1       4.699   4.330  17.376  0.00  0.00    +0.000 A 
ATOM     11  C   UNL     1       5.220   4.200  16.077  0.00  0.00    +0.000 A 
ATOM     12  C   UNL     1       6.583   4.377  15.833  0.00  0.00    +0.000 A 
ATOM     13  C   UNL     1       7.448   4.682  16.882  0.00  0.00    +0.000 A 
ATOM     14  C   UNL     1       6.950   4.817  18.175  0.00  0.00    +0.000 A 
ATOM     15  C   UNL     1       5.586   4.649  18.420  0.00  0.00    +0.000 A 
ENDBRANCH   7  10
BRANCH   3  16
ATOM     16  C   UNL     1       1.655   8.100  20.457  0.00  0.00    +0.000 C 
BRANCH  16  17
ATOM     17  O   UNL     1       1.869   8.184  21.863  0.00  0.00    +0.000 OA
ATOM     18  H   UNL     1       2.662   7.652  22.044  0.00  0.00    +0.000 HD
ENDBRANCH  16  17
ENDBRANCH   3  16
TORSDOF 3
ENDMDL
MODEL 4
REMARK VINA RESULT:      -6.6      2.253      4.358
REMARK  Name = 
REMARK  4 active torsions:
REMARK  status: ('A' for Active; 'I' for Inactive)
REMARK    1  A    between atoms: C_1  and  C_2
REMARK    2  A    between atoms: C_3  and  C_4
REMARK    3  A    between atoms: C_4  and  O_5
REMARK    4  A    between atoms: C_9  and  C_10
REMARK                            x       y       z     vdW  Elec       q    Type
REMARK                         _______ _______ _______ _____ _____    ______ ____
ROOT
ATOM      1  C   UNL     1       1.524   7.403  20.547  0.00  0.00    +0.000 C 
ATOM      2  C   UNL     1       2.305   7.503  19.284  0.00  0.00    +0.000 A 
ATOM      3  C   UNL     1       2.267   8.447  18.258  0.00  0.00    +0.000 A 
ATOM      4  C   UNL     1       3.256   8.064  17.297  0.00  0.00    +0.000 A 
ATOM      5  C   UNL     1       3.849   6.916  17.752  0.00  0.00    +0.000 A 
ATOM      6  N   UNL     1       3.241   6.566  18.928  0.00  0.00    +0.000 N 
ATOM      7  C   UNL     1       3.748   5.379  19.616  0.00  0.00    +0.000 C 
ATOM      8  S   UNL     1       5.172   4.789  18.609  0.00  0.00    +0.000 S 
ATOM      9  C   UNL     1       4.936   6.029  17.283  0.00  0.00    +0.000 C 
ENDROOT
BRANCH   7  10
ATOM     10  C   UNL     1       2.690   4.310  19.803  0.00  0.00    +0.000 A 
ATOM     11  C   UNL     1       2.326   3.828  21.073  0.00  0.00    +0.000 A 
ATOM     12  C   UNL     1       1.362   2.828  21.209  0.00  0.00    +0.000 A 
ATOM     13  C   UNL     1       0.748   2.289  20.080  0.00  0.00    +0.000 A 
ATOM     14  C   UNL     1       1.093   2.756  18.815  0.00  0.00    +0.000 A 
ATOM     15  C   UNL     1       2.051   3.762  18.677  0.00  0.00    +0.000 A 
ENDBRANCH   7  10
BRANCH   3  16
ATOM     16  C   UNL     1       1.385   9.647  18.135  0.00  0.00    +0.000 C 
BRANCH  16  17
ATOM     17  O   UNL     1       2.037  10.707  17.443  0.00  0.00    +0.000 OA
ATOM     18  H   UNL     1       1.417  10.996  16.753  0.00  0.00    +0.000 HD
ENDBRANCH  16  17
ENDBRANCH   3  16
TORSDOF 3
ENDMDL
MODEL 5
REMARK VINA RESULT:      -6.5      1.387      1.836
REMARK  Name = 
REMARK  4 active torsions:
REMARK  status: ('A' for Active; 'I' for Inactive)
REMARK    1  A    between atoms: C_1  and  C_2
REMARK    2  A    between atoms: C_3  and  C_4
REMARK    3  A    between atoms: C_4  and  O_5
REMARK    4  A    between atoms: C_9  and  C_10
REMARK                            x       y       z     vdW  Elec       q    Type
REMARK                         _______ _______ _______ _____ _____    ______ ____
ROOT
ATOM      1  C   UNL     1       2.852   7.874  18.403  0.00  0.00    +0.000 C 
ATOM      2  C   UNL     1       2.522   6.726  19.292  0.00  0.00    +0.000 A 
ATOM      3  C   UNL     1       1.694   6.645  20.412  0.00  0.00    +0.000 A 
ATOM      4  C   UNL     1       1.727   5.287  20.863  0.00  0.00    +0.000 A 
ATOM      5  C   UNL     1       2.565   4.597  20.026  0.00  0.00    +0.000 A 
ATOM      6  N   UNL     1       3.067   5.482  19.110  0.00  0.00    +0.000 N 
ATOM      7  C   UNL     1       3.964   4.946  18.085  0.00  0.00    +0.000 C 
ATOM      8  S   UNL     1       4.034   3.130  18.383  0.00  0.00    +0.000 S 
ATOM      9  C   UNL     1       3.014   3.192  19.902  0.00  0.00    +0.000 C 
ENDROOT
BRANCH   7  10
ATOM     10  C   UNL     1       5.336   5.589  18.109  0.00  0.00    +0.000 A 
ATOM     11  C   UNL     1       5.767   6.477  17.107  0.00  0.00    +0.000 A 
ATOM     12  C   UNL     1       7.045   7.035  17.147  0.00  0.00    +0.000 A 
ATOM     13  C   UNL     1       7.916   6.716  18.187  0.00  0.00    +0.000 A 
ATOM     14  C   UNL     1       7.507   5.841  19.190  0.00  0.00    +0.000 A 
ATOM     15  C   UNL     1       6.226   5.287  19.156  0.00  0.00    +0.000 A 
ENDBRANCH   7  10
BRANCH   3  16
ATOM     16  C   UNL     1       0.901   7.734  21.058  0.00  0.00    +0.000 C 
BRANCH  16  17
ATOM     17  O   UNL     1       1.701   8.507  21.948  0.00  0.00    +0.000 OA
ATOM     18  H   UNL     1       2.435   8.853  21.414  0.00  0.00    +0.000 HD
ENDBRANCH  16  17
ENDBRANCH   3  16
TORSDOF 3
ENDMDL
MODEL 6
REMARK VINA RESULT:      -6.5      1.365      1.475
REMARK  Name = 
REMARK  4 active torsions:
REMARK  status: ('A' for Active; 'I' for Inactive)
REMARK    1  A    between atoms: C_1  and  C_2
REMARK    2  A    between atoms: C_3  and  C_4
REMARK    3  A    between atoms: C_4  and  O_5
REMARK    4  A    between atoms: C_9  and  C_10
REMARK                            x       y       z     vdW  Elec       q    Type
REMARK                         _______ _______ _______ _____ _____    ______ ____
ROOT
ATOM      1  C   UNL     1       2.878   7.881  18.349  0.00  0.00    +0.000 C 
ATOM      2  C   UNL     1       2.536   6.751  19.256  0.00  0.00    +0.000 A 
ATOM      3  C   UNL     1       1.714   6.699  20.382  0.00  0.00    +0.000 A 
ATOM      4  C   UNL     1       1.730   5.348  20.852  0.00  0.00    +0.000 A 
ATOM      5  C   UNL     1       2.552   4.632  20.021  0.00  0.00    +0.000 A 
ATOM      6  N   UNL     1       3.062   5.496  19.089  0.00  0.00    +0.000 N 
ATOM      7  C   UNL     1       3.944   4.932  18.067  0.00  0.00    +0.000 C 
ATOM      8  S   UNL     1       3.989   3.120  18.392  0.00  0.00    +0.000 S 
ATOM      9  C   UNL     1       2.979   3.220  19.915  0.00  0.00    +0.000 C 
ENDROOT
BRANCH   7  10
ATOM     10  C   UNL     1       5.326   5.555  18.074  0.00  0.00    +0.000 A 
ATOM     11  C   UNL     1       6.269   5.280  19.081  0.00  0.00    +0.000 A 
ATOM     12  C   UNL     1       7.525   5.887  19.068  0.00  0.00    +0.000 A 
ATOM     13  C   UNL     1       7.862   6.781  18.054  0.00  0.00    +0.000 A 
ATOM     14  C   UNL     1       6.943   7.064  17.047  0.00  0.00    +0.000 A 
ATOM     15  C   UNL     1       5.688   6.452  17.053  0.00  0.00    +0.000 A 
ENDBRANCH   7  10
BRANCH   3  16
ATOM     16  C   UNL     1       0.941   7.810  21.017  0.00  0.00    +0.000 C 
BRANCH  16  17
ATOM     17  O   UNL     1       1.741   8.542  21.940  0.00  0.00    +0.000 OA
ATOM     18  H   UNL     1       1.734   9.462  21.627  0.00  0.00    +0.000 HD
ENDBRANCH  16  17
ENDBRANCH   3  16
TORSDOF 3
ENDMDL
MODEL 7
REMARK VINA RESULT:      -6.4      2.729      5.320
REMARK  Name = 
REMARK  4 active torsions:
REMARK  status: ('A' for Active; 'I' for Inactive)
REMARK    1  A    between atoms: C_1  and  C_2
REMARK    2  A    between atoms: C_3  and  C_4
REMARK    3  A    between atoms: C_4  and  O_5
REMARK    4  A    between atoms: C_9  and  C_10
REMARK                            x       y       z     vdW  Elec       q    Type
REMARK                         _______ _______ _______ _____ _____    ______ ____
ROOT
ATOM      1  C   UNL     1       4.293   3.124  17.070  0.00  0.00    +0.000 C 
ATOM      2  C   UNL     1       4.685   4.555  17.186  0.00  0.00    +0.000 A 
ATOM      3  C   UNL     1       5.915   5.184  16.989  0.00  0.00    +0.000 A 
ATOM      4  C   UNL     1       5.712   6.583  17.213  0.00  0.00    +0.000 A 
ATOM      5  C   UNL     1       4.393   6.760  17.542  0.00  0.00    +0.000 A 
ATOM      6  N   UNL     1       3.796   5.528  17.561  0.00  0.00    +0.000 N 
ATOM      7  C   UNL     1       2.363   5.484  17.855  0.00  0.00    +0.000 C 
ATOM      8  S   UNL     1       1.836   7.240  18.032  0.00  0.00    +0.000 S 
ATOM      9  C   UNL     1       3.528   7.918  17.857  0.00  0.00    +0.000 C 
ENDROOT
BRANCH   7  10
ATOM     10  C   UNL     1       2.039   4.656  19.083  0.00  0.00    +0.000 A 
ATOM     11  C   UNL     1       2.571   4.953  20.350  0.00  0.00    +0.000 A 
ATOM     12  C   UNL     1       2.269   4.158  21.456  0.00  0.00    +0.000 A 
ATOM     13  C   UNL     1       1.434   3.051  21.316  0.00  0.00    +0.000 A 
ATOM     14  C   UNL     1       0.895   2.744  20.070  0.00  0.00    +0.000 A 
ATOM     15  C   UNL     1       1.189   3.542  18.963  0.00  0.00    +0.000 A 
ENDBRANCH   7  10
BRANCH   3  16
ATOM     16  C   UNL     1       7.223   4.566  16.614  0.00  0.00    +0.000 C 
BRANCH  16  17
ATOM     17  O   UNL     1       7.915   4.074  17.758  0.00  0.00    +0.000 OA
ATOM     18  H   UNL     1       8.225   4.858  18.240  0.00  0.00    +0.000 HD
ENDBRANCH  16  17
ENDBRANCH   3  16
TORSDOF 3
ENDMDL
MODEL 8
REMARK VINA RESULT:      -6.4      2.728      5.412
REMARK  Name = 
REMARK  4 active torsions:
REMARK  status: ('A' for Active; 'I' for Inactive)
REMARK    1  A    between atoms: C_1  and  C_2
REMARK    2  A    between atoms: C_3  and  C_4
REMARK    3  A    between atoms: C_4  and  O_5
REMARK    4  A    between atoms: C_9  and  C_10
REMARK                            x       y       z     vdW  Elec       q    Type
REMARK                         _______ _______ _______ _____ _____    ______ ____
ROOT
ATOM      1  C   UNL     1       4.315   3.102  17.033  0.00  0.00    +0.000 C 
ATOM      2  C   UNL     1       4.699   4.534  17.171  0.00  0.00    +0.000 A 
ATOM      3  C   UNL     1       5.926   5.173  16.991  0.00  0.00    +0.000 A 
ATOM      4  C   UNL     1       5.713   6.568  17.233  0.00  0.00    +0.000 A 
ATOM      5  C   UNL     1       4.391   6.733  17.556  0.00  0.00    +0.000 A 
ATOM      6  N   UNL     1       3.801   5.497  17.554  0.00  0.00    +0.000 N 
ATOM      7  C   UNL     1       2.367   5.441  17.838  0.00  0.00    +0.000 C 
ATOM      8  S   UNL     1       1.829   7.191  18.036  0.00  0.00    +0.000 S 
ATOM      9  C   UNL     1       3.517   7.881  17.881  0.00  0.00    +0.000 C 
ENDROOT
BRANCH   7  10
ATOM     10  C   UNL     1       2.040   4.594  19.052  0.00  0.00    +0.000 A 
ATOM     11  C   UNL     1       1.196   3.472  18.980  0.00  0.00    +0.000 A 
ATOM     12  C   UNL     1       0.899   2.726  20.121  0.00  0.00    +0.000 A 
ATOM     13  C   UNL     1       1.435   3.090  21.355  0.00  0.00    +0.000 A 
ATOM     14  C   UNL     1       2.275   4.196  21.446  0.00  0.00    +0.000 A 
ATOM     15  C   UNL     1       2.581   4.939  20.304  0.00  0.00    +0.000 A 
ENDBRANCH   7  10
BRANCH   3  16
ATOM     16  C   UNL     1       7.240   4.568  16.616  0.00  0.00    +0.000 C 
BRANCH  16  17
ATOM     17  O   UNL     1       7.931   4.070  17.757  0.00  0.00    +0.000 OA
ATOM     18  H   UNL     1       7.299   4.120  18.494  0.00  0.00    +0.000 HD
ENDBRANCH  16  17
ENDBRANCH   3  16
TORSDOF 3
ENDMDL
MODEL 9
REMARK VINA RESULT:      -6.3      2.373      5.090
REMARK  Name = 
REMARK  4 active torsions:
REMARK  status: ('A' for Active; 'I' for Inactive)
REMARK    1  A    between atoms: C_1  and  C_2
REMARK    2  A    between atoms: C_3  and  C_4
REMARK    3  A    between atoms: C_4  and  O_5
REMARK    4  A    between atoms: C_9  and  C_10
REMARK                            x       y       z     vdW  Elec       q    Type
REMARK                         _______ _______ _______ _____ _____    ______ ____
ROOT
ATOM      1  C   UNL     1       5.819   5.808  19.322  0.00  0.00    +0.000 C 
ATOM      2  C   UNL     1       5.280   4.908  18.266  0.00  0.00    +0.000 A 
ATOM      3  C   UNL     1       5.888   4.355  17.139  0.00  0.00    +0.000 A 
ATOM      4  C   UNL     1       4.906   3.544  16.487  0.00  0.00    +0.000 A 
ATOM      5  C   UNL     1       3.749   3.633  17.216  0.00  0.00    +0.000 A 
ATOM      6  N   UNL     1       3.976   4.488  18.261  0.00  0.00    +0.000 N 
ATOM      7  C   UNL     1       2.875   4.701  19.201  0.00  0.00    +0.000 C 
ATOM      8  S   UNL     1       1.511   3.603  18.630  0.00  0.00    +0.000 S 
ATOM      9  C   UNL     1       2.396   3.041  17.129  0.00  0.00    +0.000 C 
ENDROOT
BRANCH   7  10
ATOM     10  C   UNL     1       2.449   6.154  19.289  0.00  0.00    +0.000 A 
ATOM     11  C   UNL     1       1.969   6.724  20.481  0.00  0.00    +0.000 A 
ATOM     12  C   UNL     1       1.565   8.059  20.522  0.00  0.00    +0.000 A 
ATOM     13  C   UNL     1       1.631   8.847  19.375  0.00  0.00    +0.000 A 
ATOM     14  C   UNL     1       2.107   8.300  18.186  0.00  0.00    +0.000 A 
ATOM     15  C   UNL     1       2.518   6.967  18.144  0.00  0.00    +0.000 A 
ENDBRANCH   7  10
BRANCH   3  16
ATOM     16  C   UNL     1       7.291   4.539  16.658  0.00  0.00    +0.000 C 
BRANCH  16  17
ATOM     17  O   UNL     1       8.236   4.045  17.602  0.00  0.00    +0.000 OA
ATOM     18  H   UNL     1       7.774   4.027  18.457  0.00  0.00    +0.000 HD
ENDBRANCH  16  17
ENDBRANCH   3  16
TORSDOF 3
ENDMDL
