MODEL 1
REMARK VINA RESULT:      -8.3      0.000      0.000
REMARK  Name = 
REMARK  8 active torsions:
REMARK  status: ('A' for Active; 'I' for Inactive)
REMARK    1  A    between atoms: C_1  and  O_2
REMARK    2  A    between atoms: O_2  and  C_3
REMARK    3  A    between atoms: C_3  and  C_5
REMARK    4  A    between atoms: C_8  and  C_9
REMARK    5  A    between atoms: C_9  and  N_10
REMARK    6  A    between atoms: C_16  and  C_17
REMARK    7  A    between atoms: C_18  and  C_19
REMARK    8  A    between atoms: C_19  and  C_20
REMARK                            x       y       z     vdW  Elec       q    Type
REMARK                         _______ _______ _______ _____ _____    ______ ____
ROOT
ATOM      1  N   UNL     1       2.076   8.036  19.090  0.00  0.00    +0.000 N 
ATOM      2  C   UNL     1       1.961   8.795  17.983  0.00  0.00    +0.000 A 
ATOM      3  N   UNL     1       1.735  10.061  17.957  0.00  0.00    +0.000 NA
ATOM      4  C   UNL     1       1.115  10.677  19.063  0.00  0.00    +0.000 A 
ATOM      5  C   UNL     1       0.751  12.025  18.909  0.00  0.00    +0.000 A 
ATOM      6  C   UNL     1      -0.454  12.585  19.426  0.00  0.00    +0.000 A 
ATOM      7  C   UNL     1      -1.394  11.840  20.147  0.00  0.00    +0.000 A 
ATOM      8  C   UNL     1      -0.841  10.492  20.534  0.00  0.00    +0.000 A 
ATOM      9  C   UNL     1       0.469   9.913  20.009  0.00  0.00    +0.000 A 
ATOM     10  C   UNL     1       1.342   8.544  20.234  0.00  0.00    +0.000 A 
ATOM     11  O   UNL     1       1.413   8.018  21.343  0.00  0.00    +0.000 OA
ENDROOT
BRANCH   7  12
ATOM     12  C   UNL     1      -2.850  12.616  20.326  0.00  0.00    +0.000 C 
ATOM     13  C   UNL     1      -3.987  13.252  20.385  0.00  0.00    +0.000 C 
BRANCH  13  14
ATOM     14  C   UNL     1      -5.313  13.993  20.453  0.00  0.00    +0.000 C 
BRANCH  14  15
ATOM     15  C   UNL     1      -5.948  13.682  21.788  0.00  0.00    +0.000 A 
ATOM     16  C   UNL     1      -5.152  13.418  22.911  0.00  0.00    +0.000 A 
ATOM     17  C   UNL     1      -5.731  12.961  24.095  0.00  0.00    +0.000 A 
ATOM     18  C   UNL     1      -7.110  12.766  24.168  0.00  0.00    +0.000 A 
ATOM     19  C   UNL     1      -7.913  13.046  23.065  0.00  0.00    +0.000 A 
ATOM     20  C   UNL     1      -7.337  13.504  21.881  0.00  0.00    +0.000 A 
ENDBRANCH  14  15
ENDBRANCH  13  14
ENDBRANCH   7  12
BRANCH   1  21
ATOM     21  C   UNL     1       2.758   6.620  18.937  0.00  0.00    +0.000 C 
BRANCH  21  25
ATOM     22  C   UNL     1       5.553   5.131  15.595  0.00  0.00    +0.000 A 
ATOM     23  C   UNL     1       5.329   6.522  15.827  0.00  0.00    +0.000 A 
ATOM     24  C   UNL     1       4.486   7.012  16.880  0.00  0.00    +0.000 A 
ATOM     25  C   UNL     1       3.798   6.175  17.773  0.00  0.00    +0.000 A 
ATOM     26  C   UNL     1       4.083   4.785  17.543  0.00  0.00    +0.000 A 
ATOM     27  C   UNL     1       4.926   4.282  16.482  0.00  0.00    +0.000 A 
BRANCH  22  28
ATOM     28  C   UNL     1       6.449   4.695  14.457  0.00  0.00    +0.000 C 
ATOM     29  O   UNL     1       7.587   5.168  14.257  0.00  0.00    +0.000 OA
BRANCH  28  31
ATOM     30  C   UNL     1       6.502   3.584  12.331  0.00  0.00    +0.000 C 
ATOM     31  O   UNL     1       5.853   3.796  13.604  0.00  0.00    +0.000 OA
ENDBRANCH  28  31
ENDBRANCH  22  28
ENDBRANCH  21  25
ENDBRANCH   1  21
TORSDOF 7
ENDMDL
MODEL 2
REMARK VINA RESULT:      -8.2      3.320      5.354
REMARK  Name = 
REMARK  8 active torsions:
REMARK  status: ('A' for Active; 'I' for Inactive)
REMARK    1  A    between atoms: C_1  and  O_2
REMARK    2  A    between atoms: O_2  and  C_3
REMARK    3  A    between atoms: C_3  and  C_5
REMARK    4  A    between atoms: C_8  and  C_9
REMARK    5  A    between atoms: C_9  and  N_10
REMARK    6  A    between atoms: C_16  and  C_17
REMARK    7  A    between atoms: C_18  and  C_19
REMARK    8  A    between atoms: C_19  and  C_20
REMARK                            x       y       z     vdW  Elec       q    Type
REMARK                         _______ _______ _______ _____ _____    ______ ____
ROOT
ATOM      1  N   UNL     1       2.257   7.471  19.549  0.00  0.00    +0.000 N 
ATOM      2  C   UNL     1       1.724   7.698  20.765  0.00  0.00    +0.000 A 
ATOM      3  N   UNL     1       0.664   8.385  21.008  0.00  0.00    +0.000 NA
ATOM      4  C   UNL     1       0.237   9.353  20.076  0.00  0.00    +0.000 A 
ATOM      5  C   UNL     1      -0.829  10.178  20.471  0.00  0.00    +0.000 A 
ATOM      6  C   UNL     1      -0.911  11.569  20.168  0.00  0.00    +0.000 A 
ATOM      7  C   UNL     1       0.070  12.249  19.437  0.00  0.00    +0.000 A 
ATOM      8  C   UNL     1       1.037  11.288  18.795  0.00  0.00    +0.000 A 
ATOM      9  C   UNL     1       1.095   9.793  19.093  0.00  0.00    +0.000 A 
ATOM     10  C   UNL     1       1.970   8.508  18.574  0.00  0.00    +0.000 A 
ATOM     11  O   UNL     1       2.307   8.409  17.397  0.00  0.00    +0.000 OA
ENDROOT
BRANCH   7  12
ATOM     12  C   UNL     1      -0.074  13.901  19.524  0.00  0.00    +0.000 C 
ATOM     13  C   UNL     1      -0.134  15.203  19.525  0.00  0.00    +0.000 C 
BRANCH  13  14
ATOM     14  C   UNL     1      -0.204  16.722  19.526  0.00  0.00    +0.000 C 
BRANCH  14  15
ATOM     15  C   UNL     1       0.684  17.227  18.414  0.00  0.00    +0.000 A 
ATOM     16  C   UNL     1       0.190  18.130  17.462  0.00  0.00    +0.000 A 
ATOM     17  C   UNL     1       0.951  18.460  16.340  0.00  0.00    +0.000 A 
ATOM     18  C   UNL     1       2.211  17.892  16.160  0.00  0.00    +0.000 A 
ATOM     19  C   UNL     1       2.721  17.010  17.110  0.00  0.00    +0.000 A 
ATOM     20  C   UNL     1       1.964  16.680  18.233  0.00  0.00    +0.000 A 
ENDBRANCH  14  15
ENDBRANCH  13  14
ENDBRANCH   7  12
BRANCH   1  21
ATOM     21  C   UNL     1       3.290   6.285  19.414  0.00  0.00    +0.000 C 
BRANCH  21  25
ATOM     22  C   UNL     1       5.819   5.220  15.717  0.00  0.00    +0.000 A 
ATOM     23  C   UNL     1       4.770   4.370  16.184  0.00  0.00    +0.000 A 
ATOM     24  C   UNL     1       3.949   4.693  17.316  0.00  0.00    +0.000 A 
ATOM     25  C   UNL     1       4.103   5.865  18.073  0.00  0.00    +0.000 A 
ATOM     26  C   UNL     1       5.132   6.720  17.548  0.00  0.00    +0.000 A 
ATOM     27  C   UNL     1       5.968   6.401  16.412  0.00  0.00    +0.000 A 
BRANCH  22  28
ATOM     28  C   UNL     1       6.646   4.801  14.522  0.00  0.00    +0.000 C 
ATOM     29  O   UNL     1       7.636   5.442  14.112  0.00  0.00    +0.000 OA
BRANCH  28  31
ATOM     30  C   UNL     1       6.357   3.642  12.441  0.00  0.00    +0.000 C 
ATOM     31  O   UNL     1       6.149   3.697  13.870  0.00  0.00    +0.000 OA
ENDBRANCH  28  31
ENDBRANCH  22  28
ENDBRANCH  21  25
ENDBRANCH   1  21
TORSDOF 7
ENDMDL
MODEL 3
REMARK VINA RESULT:      -8.2      1.017      1.534
REMARK  Name = 
REMARK  8 active torsions:
REMARK  status: ('A' for Active; 'I' for Inactive)
REMARK    1  A    between atoms: C_1  and  O_2
REMARK    2  A    between atoms: O_2  and  C_3
REMARK    3  A    between atoms: C_3  and  C_5
REMARK    4  A    between atoms: C_8  and  C_9
REMARK    5  A    between atoms: C_9  and  N_10
REMARK    6  A    between atoms: C_16  and  C_17
REMARK    7  A    between atoms: C_18  and  C_19
REMARK    8  A    between atoms: C_19  and  C_20
REMARK                            x       y       z     vdW  Elec       q    Type
REMARK                         _______ _______ _______ _____ _____    ______ ____
ROOT
ATOM      1  N   UNL     1       2.321   7.771  18.936  0.00  0.00    +0.000 N 
ATOM      2  C   UNL     1       2.118   8.523  17.837  0.00  0.00    +0.000 A 
ATOM      3  N   UNL     1       1.953   9.799  17.817  0.00  0.00    +0.000 NA
ATOM      4  C   UNL     1       1.493  10.457  18.976  0.00  0.00    +0.000 A 
ATOM      5  C   UNL     1       1.179  11.819  18.842  0.00  0.00    +0.000 A 
ATOM      6  C   UNL     1       0.069  12.444  19.483  0.00  0.00    +0.000 A 
ATOM      7  C   UNL     1      -0.818  11.755  20.317  0.00  0.00    +0.000 A 
ATOM      8  C   UNL     1      -0.291  10.385  20.660  0.00  0.00    +0.000 A 
ATOM      9  C   UNL     1       0.921   9.735  20.000  0.00  0.00    +0.000 A 
ATOM     10  C   UNL     1       1.746   8.327  20.147  0.00  0.00    +0.000 A 
ATOM     11  O   UNL     1       1.917   7.810  21.249  0.00  0.00    +0.000 OA
ENDROOT
BRANCH   7  12
ATOM     12  C   UNL     1      -2.206  12.604  20.646  0.00  0.00    +0.000 C 
ATOM     13  C   UNL     1      -3.337  13.197  20.906  0.00  0.00    +0.000 C 
BRANCH  13  14
ATOM     14  C   UNL     1      -4.657  13.888  21.210  0.00  0.00    +0.000 C 
BRANCH  14  15
ATOM     15  C   UNL     1      -5.723  12.824  21.319  0.00  0.00    +0.000 A 
ATOM     16  C   UNL     1      -5.906  11.892  20.287  0.00  0.00    +0.000 A 
ATOM     17  C   UNL     1      -6.998  11.024  20.306  0.00  0.00    +0.000 A 
ATOM     18  C   UNL     1      -7.915  11.077  21.355  0.00  0.00    +0.000 A 
ATOM     19  C   UNL     1      -7.730  11.985  22.396  0.00  0.00    +0.000 A 
ATOM     20  C   UNL     1      -6.640  12.853  22.380  0.00  0.00    +0.000 A 
ENDBRANCH  14  15
ENDBRANCH  13  14
ENDBRANCH   7  12
BRANCH   1  21
ATOM     21  C   UNL     1       2.911   6.322  18.730  0.00  0.00    +0.000 C 
BRANCH  21  25
ATOM     22  C   UNL     1       5.981   5.145  15.505  0.00  0.00    +0.000 A 
ATOM     23  C   UNL     1       4.927   4.266  15.901  0.00  0.00    +0.000 A 
ATOM     24  C   UNL     1       3.941   4.620  16.881  0.00  0.00    +0.000 A 
ATOM     25  C   UNL     1       3.923   5.855  17.549  0.00  0.00    +0.000 A 
ATOM     26  C   UNL     1       4.966   6.734  17.094  0.00  0.00    +0.000 A 
ATOM     27  C   UNL     1       5.966   6.384  16.111  0.00  0.00    +0.000 A 
BRANCH  22  28
ATOM     28  C   UNL     1       6.987   4.692  14.471  0.00  0.00    +0.000 C 
ATOM     29  O   UNL     1       8.010   5.344  14.174  0.00  0.00    +0.000 OA
BRANCH  28  31
ATOM     30  C   UNL     1       6.603   3.589  12.375  0.00  0.00    +0.000 C 
ATOM     31  O   UNL     1       6.621   3.538  13.819  0.00  0.00    +0.000 OA
ENDBRANCH  28  31
ENDBRANCH  22  28
ENDBRANCH  21  25
ENDBRANCH   1  21
TORSDOF 7
ENDMDL
MODEL 4
REMARK VINA RESULT:      -8.2      3.514     12.592
REMARK  Name = 
REMARK  8 active torsions:
REMARK  status: ('A' for Active; 'I' for Inactive)
REMARK    1  A    between atoms: C_1  and  O_2
REMARK    2  A    between atoms: O_2  and  C_3
REMARK    3  A    between atoms: C_3  and  C_5
REMARK    4  A    between atoms: C_8  and  C_9
REMARK    5  A    between atoms: C_9  and  N_10
REMARK    6  A    between atoms: C_16  and  C_17
REMARK    7  A    between atoms: C_18  and  C_19
REMARK    8  A    between atoms: C_19  and  C_20
REMARK                            x       y       z     vdW  Elec       q    Type
REMARK                         _______ _______ _______ _____ _____    ______ ____
ROOT
ATOM      1  N   UNL     1      -0.229  11.214  21.514  0.00  0.00    +0.000 N 
ATOM      2  C   UNL     1       0.547  11.740  20.547  0.00  0.00    +0.000 A 
ATOM      3  N   UNL     1       0.883  11.159  19.449  0.00  0.00    +0.000 NA
ATOM      4  C   UNL     1       0.864   9.751  19.377  0.00  0.00    +0.000 A 
ATOM      5  C   UNL     1       1.393   9.175  18.210  0.00  0.00    +0.000 A 
ATOM      6  C   UNL     1       2.176   7.983  18.199  0.00  0.00    +0.000 A 
ATOM      7  C   UNL     1       2.490   7.265  19.358  0.00  0.00    +0.000 A 
ATOM      8  C   UNL     1       1.678   7.746  20.534  0.00  0.00    +0.000 A 
ATOM      9  C   UNL     1       0.810   9.000  20.530  0.00  0.00    +0.000 A 
ATOM     10  C   UNL     1      -0.184   9.765  21.585  0.00  0.00    +0.000 A 
ATOM     11  O   UNL     1      -0.899   9.126  22.353  0.00  0.00    +0.000 OA
ENDROOT
BRANCH   7  12
ATOM     12  C   UNL     1       3.688   6.140  19.130  0.00  0.00    +0.000 C 
ATOM     13  C   UNL     1       4.607   5.253  18.868  0.00  0.00    +0.000 C 
BRANCH  13  14
ATOM     14  C   UNL     1       5.679   4.219  18.562  0.00  0.00    +0.000 C 
BRANCH  14  15
ATOM     15  C   UNL     1       5.980   4.288  17.084  0.00  0.00    +0.000 A 
ATOM     16  C   UNL     1       7.242   4.701  16.633  0.00  0.00    +0.000 A 
ATOM     17  C   UNL     1       7.466   4.932  15.275  0.00  0.00    +0.000 A 
ATOM     18  C   UNL     1       6.432   4.754  14.357  0.00  0.00    +0.000 A 
ATOM     19  C   UNL     1       5.180   4.324  14.791  0.00  0.00    +0.000 A 
ATOM     20  C   UNL     1       4.955   4.090  16.147  0.00  0.00    +0.000 A 
ENDBRANCH  14  15
ENDBRANCH  13  14
ENDBRANCH   7  12
BRANCH   1  21
ATOM     21  C   UNL     1      -0.862  12.209  22.563  0.00  0.00    +0.000 C 
BRANCH  21  25
ATOM     22  C   UNL     1      -5.265  13.428  23.137  0.00  0.00    +0.000 A 
ATOM     23  C   UNL     1      -4.559  13.699  21.926  0.00  0.00    +0.000 A 
ATOM     24  C   UNL     1      -3.196  13.304  21.712  0.00  0.00    +0.000 A 
ATOM     25  C   UNL     1      -2.428  12.624  22.670  0.00  0.00    +0.000 A 
ATOM     26  C   UNL     1      -3.182  12.324  23.857  0.00  0.00    +0.000 A 
ATOM     27  C   UNL     1      -4.553  12.723  24.084  0.00  0.00    +0.000 A 
BRANCH  22  28
ATOM     28  C   UNL     1      -6.698  13.888  23.289  0.00  0.00    +0.000 C 
ATOM     29  O   UNL     1      -7.088  14.636  24.210  0.00  0.00    +0.000 OA
BRANCH  28  31
ATOM     30  C   UNL     1      -7.914  11.945  22.580  0.00  0.00    +0.000 C 
ATOM     31  O   UNL     1      -7.553  13.328  22.369  0.00  0.00    +0.000 OA
ENDBRANCH  28  31
ENDBRANCH  22  28
ENDBRANCH  21  25
ENDBRANCH   1  21
TORSDOF 7
ENDMDL
MODEL 5
REMARK VINA RESULT:      -8.1      3.569      5.104
REMARK  Name = 
REMARK  8 active torsions:
REMARK  status: ('A' for Active; 'I' for Inactive)
REMARK    1  A    between atoms: C_1  and  O_2
REMARK    2  A    between atoms: O_2  and  C_3
REMARK    3  A    between atoms: C_3  and  C_5
REMARK    4  A    between atoms: C_8  and  C_9
REMARK    5  A    between atoms: C_9  and  N_10
REMARK    6  A    between atoms: C_16  and  C_17
REMARK    7  A    between atoms: C_18  and  C_19
REMARK    8  A    between atoms: C_19  and  C_20
REMARK                            x       y       z     vdW  Elec       q    Type
REMARK                         _______ _______ _______ _____ _____    ______ ____
ROOT
ATOM      1  N   UNL     1       2.526   7.201  19.451  0.00  0.00    +0.000 N 
ATOM      2  C   UNL     1       1.939   7.400  20.647  0.00  0.00    +0.000 A 
ATOM      3  N   UNL     1       0.881   8.100  20.862  0.00  0.00    +0.000 NA
ATOM      4  C   UNL     1       0.518   9.106  19.944  0.00  0.00    +0.000 A 
ATOM      5  C   UNL     1      -0.551   9.939  20.315  0.00  0.00    +0.000 A 
ATOM      6  C   UNL     1      -0.592  11.340  20.054  0.00  0.00    +0.000 A 
ATOM      7  C   UNL     1       0.435  12.024  19.395  0.00  0.00    +0.000 A 
ATOM      8  C   UNL     1       1.415  11.064  18.768  0.00  0.00    +0.000 A 
ATOM      9  C   UNL     1       1.430   9.560  19.018  0.00  0.00    +0.000 A 
ATOM     10  C   UNL     1       2.306   8.275  18.499  0.00  0.00    +0.000 A 
ATOM     11  O   UNL     1       2.698   8.208  17.337  0.00  0.00    +0.000 OA
ENDROOT
BRANCH   7  12
ATOM     12  C   UNL     1       0.318  13.674  19.530  0.00  0.00    +0.000 C 
ATOM     13  C   UNL     1       0.282  14.966  19.701  0.00  0.00    +0.000 C 
BRANCH  13  14
ATOM     14  C   UNL     1       0.241  16.473  19.901  0.00  0.00    +0.000 C 
BRANCH  14  15
ATOM     15  C   UNL     1       0.352  17.123  18.543  0.00  0.00    +0.000 A 
ATOM     16  C   UNL     1       1.590  17.197  17.889  0.00  0.00    +0.000 A 
ATOM     17  C   UNL     1       1.727  17.948  16.721  0.00  0.00    +0.000 A 
ATOM     18  C   UNL     1       0.630  18.631  16.196  0.00  0.00    +0.000 A 
ATOM     19  C   UNL     1      -0.609  18.546  16.826  0.00  0.00    +0.000 A 
ATOM     20  C   UNL     1      -0.750  17.795  17.993  0.00  0.00    +0.000 A 
ENDBRANCH  14  15
ENDBRANCH  13  14
ENDBRANCH   7  12
BRANCH   1  21
ATOM     21  C   UNL     1       3.542   6.000  19.326  0.00  0.00    +0.000 C 
BRANCH  21  25
ATOM     22  C   UNL     1       5.851   4.881  15.503  0.00  0.00    +0.000 A 
ATOM     23  C   UNL     1       6.293   5.923  16.374  0.00  0.00    +0.000 A 
ATOM     24  C   UNL     1       5.608   6.271  17.586  0.00  0.00    +0.000 A 
ATOM     25  C   UNL     1       4.438   5.630  18.024  0.00  0.00    +0.000 A 
ATOM     26  C   UNL     1       4.049   4.556  17.152  0.00  0.00    +0.000 A 
ATOM     27  C   UNL     1       4.729   4.201  15.927  0.00  0.00    +0.000 A 
BRANCH  22  28
ATOM     28  C   UNL     1       6.625   4.582  14.238  0.00  0.00    +0.000 C 
ATOM     29  O   UNL     1       6.283   3.711  13.412  0.00  0.00    +0.000 OA
BRANCH  28  31
ATOM     30  C   UNL     1       8.234   5.619  12.791  0.00  0.00    +0.000 C 
ATOM     31  O   UNL     1       7.794   5.297  14.130  0.00  0.00    +0.000 OA
ENDBRANCH  28  31
ENDBRANCH  22  28
ENDBRANCH  21  25
ENDBRANCH   1  21
TORSDOF 7
ENDMDL
MODEL 6
REMARK VINA RESULT:      -8.0      1.463      2.706
REMARK  Name = 
REMARK  8 active torsions:
REMARK  status: ('A' for Active; 'I' for Inactive)
REMARK    1  A    between atoms: C_1  and  O_2
REMARK    2  A    between atoms: O_2  and  C_3
REMARK    3  A    between atoms: C_3  and  C_5
REMARK    4  A    between atoms: C_8  and  C_9
REMARK    5  A    between atoms: C_9  and  N_10
REMARK    6  A    between atoms: C_16  and  C_17
REMARK    7  A    between atoms: C_18  and  C_19
REMARK    8  A    between atoms: C_19  and  C_20
REMARK                            x       y       z     vdW  Elec       q    Type
REMARK                         _______ _______ _______ _____ _____    ______ ____
ROOT
ATOM      1  N   UNL     1       2.143   7.953  19.134  0.00  0.00    +0.000 N 
ATOM      2  C   UNL     1       1.998   8.642  17.985  0.00  0.00    +0.000 A 
ATOM      3  N   UNL     1       1.726   9.895  17.886  0.00  0.00    +0.000 NA
ATOM      4  C   UNL     1       1.088  10.553  18.958  0.00  0.00    +0.000 A 
ATOM      5  C   UNL     1       0.674  11.875  18.727  0.00  0.00    +0.000 A 
ATOM      6  C   UNL     1      -0.549  12.421  19.216  0.00  0.00    +0.000 A 
ATOM      7  C   UNL     1      -1.459  11.686  19.984  0.00  0.00    +0.000 A 
ATOM      8  C   UNL     1      -0.856  10.384  20.446  0.00  0.00    +0.000 A 
ATOM      9  C   UNL     1       0.472   9.822  19.950  0.00  0.00    +0.000 A 
ATOM     10  C   UNL     1       1.395   8.501  20.250  0.00  0.00    +0.000 A 
ATOM     11  O   UNL     1       1.488   8.044  21.387  0.00  0.00    +0.000 OA
ENDROOT
BRANCH   7  12
ATOM     12  C   UNL     1      -2.942  12.418  20.125  0.00  0.00    +0.000 C 
ATOM     13  C   UNL     1      -4.093  12.998  20.320  0.00  0.00    +0.000 C 
BRANCH  13  14
ATOM     14  C   UNL     1      -5.435  13.674  20.548  0.00  0.00    +0.000 C 
BRANCH  14  15
ATOM     15  C   UNL     1      -5.993  14.063  19.199  0.00  0.00    +0.000 A 
ATOM     16  C   UNL     1      -6.430  15.373  18.961  0.00  0.00    +0.000 A 
ATOM     17  C   UNL     1      -7.103  15.689  17.780  0.00  0.00    +0.000 A 
ATOM     18  C   UNL     1      -7.345  14.700  16.828  0.00  0.00    +0.000 A 
ATOM     19  C   UNL     1      -6.897  13.399  17.045  0.00  0.00    +0.000 A 
ATOM     20  C   UNL     1      -6.223  13.081  18.224  0.00  0.00    +0.000 A 
ENDBRANCH  14  15
ENDBRANCH  13  14
ENDBRANCH   7  12
BRANCH   1  21
ATOM     21  C   UNL     1       2.875   6.557  19.060  0.00  0.00    +0.000 C 
BRANCH  21  25
ATOM     22  C   UNL     1       5.558   5.152  15.591  0.00  0.00    +0.000 A 
ATOM     23  C   UNL     1       4.698   4.252  16.293  0.00  0.00    +0.000 A 
ATOM     24  C   UNL     1       3.832   4.671  17.358  0.00  0.00    +0.000 A 
ATOM     25  C   UNL     1       3.753   5.996  17.815  0.00  0.00    +0.000 A 
ATOM     26  C   UNL     1       4.592   6.883  17.056  0.00  0.00    +0.000 A 
ATOM     27  C   UNL     1       5.472   6.470  15.987  0.00  0.00    +0.000 A 
BRANCH  22  28
ATOM     28  C   UNL     1       6.449   4.629  14.487  0.00  0.00    +0.000 C 
ATOM     29  O   UNL     1       6.200   3.596  13.832  0.00  0.00    +0.000 OA
BRANCH  28  31
ATOM     30  C   UNL     1       8.128   5.465  12.991  0.00  0.00    +0.000 C 
ATOM     31  O   UNL     1       7.611   5.348  14.335  0.00  0.00    +0.000 OA
ENDBRANCH  28  31
ENDBRANCH  22  28
ENDBRANCH  21  25
ENDBRANCH   1  21
TORSDOF 7
ENDMDL
MODEL 7
REMARK VINA RESULT:      -8.0      1.315      1.602
REMARK  Name = 
REMARK  8 active torsions:
REMARK  status: ('A' for Active; 'I' for Inactive)
REMARK    1  A    between atoms: C_1  and  O_2
REMARK    2  A    between atoms: O_2  and  C_3
REMARK    3  A    between atoms: C_3  and  C_5
REMARK    4  A    between atoms: C_8  and  C_9
REMARK    5  A    between atoms: C_9  and  N_10
REMARK    6  A    between atoms: C_16  and  C_17
REMARK    7  A    between atoms: C_18  and  C_19
REMARK    8  A    between atoms: C_19  and  C_20
REMARK                            x       y       z     vdW  Elec       q    Type
REMARK                         _______ _______ _______ _____ _____    ______ ____
ROOT
ATOM      1  N   UNL     1       2.054   7.887  19.019  0.00  0.00    +0.000 N 
ATOM      2  C   UNL     1       1.851   8.643  17.923  0.00  0.00    +0.000 A 
ATOM      3  N   UNL     1       1.662   9.915  17.908  0.00  0.00    +0.000 NA
ATOM      4  C   UNL     1       1.175  10.557  19.065  0.00  0.00    +0.000 A 
ATOM      5  C   UNL     1       0.838  11.914  18.936  0.00  0.00    +0.000 A 
ATOM      6  C   UNL     1      -0.292  12.514  19.567  0.00  0.00    +0.000 A 
ATOM      7  C   UNL     1      -1.176  11.802  20.386  0.00  0.00    +0.000 A 
ATOM      8  C   UNL     1      -0.627  10.440  20.727  0.00  0.00    +0.000 A 
ATOM      9  C   UNL     1       0.605   9.818  20.078  0.00  0.00    +0.000 A 
ATOM     10  C   UNL     1       1.455   8.424  20.227  0.00  0.00    +0.000 A 
ATOM     11  O   UNL     1       1.622   7.903  21.327  0.00  0.00    +0.000 OA
ENDROOT
BRANCH   7  12
ATOM     12  C   UNL     1      -2.582  12.624  20.704  0.00  0.00    +0.000 C 
ATOM     13  C   UNL     1      -3.660  13.279  21.034  0.00  0.00    +0.000 C 
BRANCH  13  14
ATOM     14  C   UNL     1      -4.916  14.044  21.419  0.00  0.00    +0.000 C 
BRANCH  14  15
ATOM     15  C   UNL     1      -4.573  14.941  22.584  0.00  0.00    +0.000 A 
ATOM     16  C   UNL     1      -3.653  14.524  23.557  0.00  0.00    +0.000 A 
ATOM     17  C   UNL     1      -3.467  15.272  24.720  0.00  0.00    +0.000 A 
ATOM     18  C   UNL     1      -4.199  16.442  24.922  0.00  0.00    +0.000 A 
ATOM     19  C   UNL     1      -5.100  16.876  23.953  0.00  0.00    +0.000 A 
ATOM     20  C   UNL     1      -5.286  16.132  22.789  0.00  0.00    +0.000 A 
ENDBRANCH  14  15
ENDBRANCH  13  14
ENDBRANCH   7  12
BRANCH   1  21
ATOM     21  C   UNL     1       2.674   6.450  18.810  0.00  0.00    +0.000 C 
BRANCH  21  25
ATOM     22  C   UNL     1       5.629   5.059  15.564  0.00  0.00    +0.000 A 
ATOM     23  C   UNL     1       5.518   6.431  15.946  0.00  0.00    +0.000 A 
ATOM     24  C   UNL     1       4.626   6.886  16.975  0.00  0.00    +0.000 A 
ATOM     25  C   UNL     1       3.776   6.031  17.694  0.00  0.00    +0.000 A 
ATOM     26  C   UNL     1       3.947   4.654  17.320  0.00  0.00    +0.000 A 
ATOM     27  C   UNL     1       4.838   4.187  16.282  0.00  0.00    +0.000 A 
BRANCH  22  28
ATOM     28  C   UNL     1       6.586   4.663  14.462  0.00  0.00    +0.000 C 
ATOM     29  O   UNL     1       7.638   5.286  14.207  0.00  0.00    +0.000 OA
BRANCH  28  31
ATOM     30  C   UNL     1       6.533   3.596  12.314  0.00  0.00    +0.000 C 
ATOM     31  O   UNL     1       6.141   3.605  13.705  0.00  0.00    +0.000 OA
ENDBRANCH  28  31
ENDBRANCH  22  28
ENDBRANCH  21  25
ENDBRANCH   1  21
TORSDOF 7
ENDMDL
MODEL 8
REMARK VINA RESULT:      -8.0      3.364     12.550
REMARK  Name = 
REMARK  8 active torsions:
REMARK  status: ('A' for Active; 'I' for Inactive)
REMARK    1  A    between atoms: C_1  and  O_2
REMARK    2  A    between atoms: O_2  and  C_3
REMARK    3  A    between atoms: C_3  and  C_5
REMARK    4  A    between atoms: C_8  and  C_9
REMARK    5  A    between atoms: C_9  and  N_10
REMARK    6  A    between atoms: C_16  and  C_17
REMARK    7  A    between atoms: C_18  and  C_19
REMARK    8  A    between atoms: C_19  and  C_20
REMARK                            x       y       z     vdW  Elec       q    Type
REMARK                         _______ _______ _______ _____ _____    ______ ____
ROOT
ATOM      1  N   UNL     1      -0.195  10.749  21.527  0.00  0.00    +0.000 N 
ATOM      2  C   UNL     1       0.566  11.438  20.655  0.00  0.00    +0.000 A 
ATOM      3  N   UNL     1       0.930  11.035  19.489  0.00  0.00    +0.000 NA
ATOM      4  C   UNL     1       0.966   9.653  19.213  0.00  0.00    +0.000 A 
ATOM      5  C   UNL     1       1.523   9.272  17.981  0.00  0.00    +0.000 A 
ATOM      6  C   UNL     1       2.351   8.125  17.806  0.00  0.00    +0.000 A 
ATOM      7  C   UNL     1       2.686   7.258  18.853  0.00  0.00    +0.000 A 
ATOM      8  C   UNL     1       1.849   7.533  20.077  0.00  0.00    +0.000 A 
ATOM      9  C   UNL     1       0.934   8.741  20.244  0.00  0.00    +0.000 A 
ATOM     10  C   UNL     1      -0.095   9.308  21.388  0.00  0.00    +0.000 A 
ATOM     11  O   UNL     1      -0.790   8.538  22.047  0.00  0.00    +0.000 OA
ENDROOT
BRANCH   7  12
ATOM     12  C   UNL     1       3.927   6.223  18.477  0.00  0.00    +0.000 C 
ATOM     13  C   UNL     1       4.894   5.375  18.260  0.00  0.00    +0.000 C 
BRANCH  13  14
ATOM     14  C   UNL     1       6.020   4.386  18.007  0.00  0.00    +0.000 C 
BRANCH  14  15
ATOM     15  C   UNL     1       6.265   4.335  16.518  0.00  0.00    +0.000 A 
ATOM     16  C   UNL     1       7.333   5.041  15.947  0.00  0.00    +0.000 A 
ATOM     17  C   UNL     1       7.456   5.136  14.561  0.00  0.00    +0.000 A 
ATOM     18  C   UNL     1       6.514   4.527  13.732  0.00  0.00    +0.000 A 
ATOM     19  C   UNL     1       5.461   3.805  14.288  0.00  0.00    +0.000 A 
ATOM     20  C   UNL     1       5.336   3.707  15.674  0.00  0.00    +0.000 A 
ENDBRANCH  14  15
ENDBRANCH  13  14
ENDBRANCH   7  12
BRANCH   1  21
ATOM     21  C   UNL     1      -0.872  11.556  22.702  0.00  0.00    +0.000 C 
BRANCH  21  25
ATOM     22  C   UNL     1      -5.195  13.127  22.492  0.00  0.00    +0.000 A 
ATOM     23  C   UNL     1      -4.543  12.875  23.738  0.00  0.00    +0.000 A 
ATOM     24  C   UNL     1      -3.188  12.414  23.830  0.00  0.00    +0.000 A 
ATOM     25  C   UNL     1      -2.380  12.158  22.711  0.00  0.00    +0.000 A 
ATOM     26  C   UNL     1      -3.048  12.467  21.477  0.00  0.00    +0.000 A 
ATOM     27  C   UNL     1      -4.415  12.927  21.373  0.00  0.00    +0.000 A 
BRANCH  22  28
ATOM     28  C   UNL     1      -6.631  13.602  22.480  0.00  0.00    +0.000 C 
ATOM     29  O   UNL     1      -7.087  14.437  23.289  0.00  0.00    +0.000 OA
BRANCH  28  31
ATOM     30  C   UNL     1      -7.916  11.654  21.922  0.00  0.00    +0.000 C 
ATOM     31  O   UNL     1      -7.414  12.958  21.551  0.00  0.00    +0.000 OA
ENDBRANCH  28  31
ENDBRANCH  22  28
ENDBRANCH  21  25
ENDBRANCH   1  21
TORSDOF 7
ENDMDL
MODEL 9
REMARK VINA RESULT:      -8.0      3.423     12.746
REMARK  Name = 
REMARK  8 active torsions:
REMARK  status: ('A' for Active; 'I' for Inactive)
REMARK    1  A    between atoms: C_1  and  O_2
REMARK    2  A    between atoms: O_2  and  C_3
REMARK    3  A    between atoms: C_3  and  C_5
REMARK    4  A    between atoms: C_8  and  C_9
REMARK    5  A    between atoms: C_9  and  N_10
REMARK    6  A    between atoms: C_16  and  C_17
REMARK    7  A    between atoms: C_18  and  C_19
REMARK    8  A    between atoms: C_19  and  C_20
REMARK                            x       y       z     vdW  Elec       q    Type
REMARK                         _______ _______ _______ _____ _____    ______ ____
ROOT
ATOM      1  N   UNL     1      -0.460  10.670  21.783  0.00  0.00    +0.000 N 
ATOM      2  C   UNL     1       0.229  11.429  20.908  0.00  0.00    +0.000 A 
ATOM      3  N   UNL     1       0.589  11.077  19.724  0.00  0.00    +0.000 NA
ATOM      4  C   UNL     1       0.712   9.707  19.416  0.00  0.00    +0.000 A 
ATOM      5  C   UNL     1       1.262   9.392  18.162  0.00  0.00    +0.000 A 
ATOM      6  C   UNL     1       2.162   8.308  17.940  0.00  0.00    +0.000 A 
ATOM      7  C   UNL     1       2.582   7.445  18.958  0.00  0.00    +0.000 A 
ATOM      8  C   UNL     1       1.760   7.634  20.208  0.00  0.00    +0.000 A 
ATOM      9  C   UNL     1       0.769   8.773  20.426  0.00  0.00    +0.000 A 
ATOM     10  C   UNL     1      -0.265   9.242  21.607  0.00  0.00    +0.000 A 
ATOM     11  O   UNL     1      -0.888   8.413  22.265  0.00  0.00    +0.000 OA
ENDROOT
BRANCH   7  12
ATOM     12  C   UNL     1       3.881   6.506  18.528  0.00  0.00    +0.000 C 
ATOM     13  C   UNL     1       4.869   5.705  18.238  0.00  0.00    +0.000 C 
BRANCH  13  14
ATOM     14  C   UNL     1       6.019   4.772  17.899  0.00  0.00    +0.000 C 
BRANCH  14  15
ATOM     15  C   UNL     1       6.089   4.649  16.396  0.00  0.00    +0.000 A 
ATOM     16  C   UNL     1       5.096   3.955  15.691  0.00  0.00    +0.000 A 
ATOM     17  C   UNL     1       5.249   3.691  14.330  0.00  0.00    +0.000 A 
ATOM     18  C   UNL     1       6.395   4.119  13.660  0.00  0.00    +0.000 A 
ATOM     19  C   UNL     1       7.379   4.828  14.346  0.00  0.00    +0.000 A 
ATOM     20  C   UNL     1       7.227   5.094  15.706  0.00  0.00    +0.000 A 
ENDBRANCH  14  15
ENDBRANCH  13  14
ENDBRANCH   7  12
BRANCH   1  21
ATOM     21  C   UNL     1      -1.159  11.403  22.992  0.00  0.00    +0.000 C 
BRANCH  21  25
ATOM     22  C   UNL     1      -5.347  13.300  23.258  0.00  0.00    +0.000 A 
ATOM     23  C   UNL     1      -4.671  13.135  22.011  0.00  0.00    +0.000 A 
ATOM     24  C   UNL     1      -3.379  12.520  21.898  0.00  0.00    +0.000 A 
ATOM     25  C   UNL     1      -2.656  12.034  22.999  0.00  0.00    +0.000 A 
ATOM     26  C   UNL     1      -3.384  12.171  24.231  0.00  0.00    +0.000 A 
ATOM     27  C   UNL     1      -4.682  12.793  24.355  0.00  0.00    +0.000 A 
BRANCH  22  28
ATOM     28  C   UNL     1      -6.704  13.968  23.293  0.00  0.00    +0.000 C 
ATOM     29  O   UNL     1      -6.895  15.156  22.959  0.00  0.00    +0.000 OA
BRANCH  28  31
ATOM     30  C   UNL     1      -7.887  11.884  23.189  0.00  0.00    +0.000 C 
ATOM     31  O   UNL     1      -7.693  13.170  23.818  0.00  0.00    +0.000 OA
ENDBRANCH  28  31
ENDBRANCH  22  28
ENDBRANCH  21  25
ENDBRANCH   1  21
TORSDOF 7
ENDMDL
