MODEL 1
REMARK VINA RESULT:      -8.6      0.000      0.000
REMARK  Name = 
REMARK  5 active torsions:
REMARK  status: ('A' for Active; 'I' for Inactive)
REMARK    1  A    between atoms: C_1  and  C_2
REMARK    2  A    between atoms: C_2  and  C_3
REMARK    3  A    between atoms: C_9  and  C_10
REMARK    4  A    between atoms: C_12  and  C_13
REMARK    5  A    between atoms: N_24  and  C_25
REMARK                            x       y       z     vdW  Elec       q    Type
REMARK                         _______ _______ _______ _____ _____    ______ ____
ROOT
ATOM      1  C   UNL     1      -0.497  16.659  18.792  0.00  0.00    +0.000 C 
ATOM      2  C   UNL     1       0.121  15.301  19.169  0.00  0.00    +0.000 C 
ATOM      3  C   UNL     1       0.120  15.190  20.708  0.00  0.00    +0.000 C 
ATOM      4  C   UNL     1       1.549  15.212  18.618  0.00  0.00    +0.000 C 
ATOM      5  C   UNL     1       2.152  13.855  18.903  0.00  0.00    +0.000 C 
ATOM      6  O   UNL     1       3.346  13.738  19.171  0.00  0.00    +0.000 OA
ATOM      7  C   UNL     1       1.265  12.646  18.792  0.00  0.00    +0.000 A 
ATOM      8  C   UNL     1       1.845  11.329  18.923  0.00  0.00    +0.000 A 
ATOM      9  C   UNL     1       1.105  10.212  18.840  0.00  0.00    +0.000 A 
ATOM     10  C   UNL     1      -0.375  10.342  18.646  0.00  0.00    +0.000 A 
ATOM     11  O   UNL     1      -1.083   9.334  18.627  0.00  0.00    +0.000 OA
ATOM     12  N   UNL     1      -0.882  11.654  18.471  0.00  0.00    +0.000 N 
ATOM     13  C   UNL     1      -0.058  12.793  18.570  0.00  0.00    +0.000 A 
ATOM     14  C   UNL     1      -0.713  14.168  18.531  0.00  0.00    +0.000 C 
ENDROOT
BRANCH  12  15
ATOM     15  C   UNL     1      -2.285  11.736  18.185  0.00  0.00    +0.000 A 
ATOM     16  C   UNL     1      -3.192  12.029  19.214  0.00  0.00    +0.000 A 
ATOM     17  C   UNL     1      -4.563  12.062  18.960  0.00  0.00    +0.000 A 
ATOM     18  C   UNL     1      -5.026  11.794  17.678  0.00  0.00    +0.000 A 
ATOM     19  F   UNL     1      -6.343  11.809  17.437  0.00  0.00    +0.000 F 
ATOM     20  C   UNL     1      -4.143  11.501  16.644  0.00  0.00    +0.000 A 
ATOM     21  C   UNL     1      -2.769  11.473  16.895  0.00  0.00    +0.000 A 
ENDBRANCH  12  15
BRANCH   9  22
ATOM     22  C   UNL     1       1.737   8.935  18.977  0.00  0.00    +0.000 A 
ATOM     23  N   UNL     1       2.495   8.345  18.067  0.00  0.00    +0.000 NA
ATOM     24  C   UNL     1       2.926   7.097  18.497  0.00  0.00    +0.000 A 
ATOM     25  C   UNL     1       2.506   6.744  19.759  0.00  0.00    +0.000 A 
ATOM     26  S   UNL     1       1.460   7.941  20.379  0.00  0.00    +0.000 S 
BRANCH  24  27
ATOM     27  C   UNL     1       3.742   6.249  17.637  0.00  0.00    +0.000 A 
ATOM     28  C   UNL     1       4.669   6.834  16.764  0.00  0.00    +0.000 A 
ATOM     29  C   UNL     1       5.406   6.046  15.875  0.00  0.00    +0.000 A 
ATOM     30  C   UNL     1       5.217   4.666  15.855  0.00  0.00    +0.000 A 
ATOM     31 CL   UNL     1       6.088   3.698  14.731  0.00  0.00    +0.000 Cl
ATOM     32  C   UNL     1       4.313   4.066  16.728  0.00  0.00    +0.000 A 
ATOM     33  C   UNL     1       3.578   4.855  17.618  0.00  0.00    +0.000 A 
ENDBRANCH  24  27
ENDBRANCH   9  22
TORSDOF 3
ENDMDL
MODEL 2
REMARK VINA RESULT:      -8.4      4.998     10.302
REMARK  Name = 
REMARK  5 active torsions:
REMARK  status: ('A' for Active; 'I' for Inactive)
REMARK    1  A    between atoms: C_1  and  C_2
REMARK    2  A    between atoms: C_2  and  C_3
REMARK    3  A    between atoms: C_9  and  C_10
REMARK    4  A    between atoms: C_12  and  C_13
REMARK    5  A    between atoms: N_24  and  C_25
REMARK                            x       y       z     vdW  Elec       q    Type
REMARK                         _______ _______ _______ _____ _____    ______ ____
ROOT
ATOM      1  C   UNL     1       3.935   0.638  18.803  0.00  0.00    +0.000 C 
ATOM      2  C   UNL     1       3.554   2.065  19.237  0.00  0.00    +0.000 C 
ATOM      3  C   UNL     1       4.338   2.394  20.525  0.00  0.00    +0.000 C 
ATOM      4  C   UNL     1       2.044   2.144  19.483  0.00  0.00    +0.000 C 
ATOM      5  C   UNL     1       1.628   3.556  19.831  0.00  0.00    +0.000 C 
ATOM      6  O   UNL     1       0.736   3.769  20.649  0.00  0.00    +0.000 OA
ATOM      7  C   UNL     1       2.297   4.691  19.106  0.00  0.00    +0.000 A 
ATOM      8  C   UNL     1       1.825   6.041  19.317  0.00  0.00    +0.000 A 
ATOM      9  C   UNL     1       2.383   7.096  18.705  0.00  0.00    +0.000 A 
ATOM     10  C   UNL     1       3.560   6.867  17.806  0.00  0.00    +0.000 A 
ATOM     11  O   UNL     1       4.127   7.826  17.281  0.00  0.00    +0.000 OA
ATOM     12  N   UNL     1       3.947   5.520  17.593  0.00  0.00    +0.000 N 
ATOM     13  C   UNL     1       3.324   4.449  18.266  0.00  0.00    +0.000 A 
ATOM     14  C   UNL     1       3.910   3.052  18.103  0.00  0.00    +0.000 C 
ENDROOT
BRANCH  12  15
ATOM     15  C   UNL     1       5.009   5.329  16.649  0.00  0.00    +0.000 A 
ATOM     16  C   UNL     1       6.328   5.642  17.008  0.00  0.00    +0.000 A 
ATOM     17  C   UNL     1       7.363   5.508  16.082  0.00  0.00    +0.000 A 
ATOM     18  C   UNL     1       7.075   5.068  14.796  0.00  0.00    +0.000 A 
ATOM     19  F   UNL     1       8.066   4.956  13.903  0.00  0.00    +0.000 F 
ATOM     20  C   UNL     1       5.774   4.754  14.421  0.00  0.00    +0.000 A 
ATOM     21  C   UNL     1       4.737   4.881  15.348  0.00  0.00    +0.000 A 
ENDBRANCH  12  15
BRANCH   9  22
ATOM     22  C   UNL     1       1.870   8.409  18.954  0.00  0.00    +0.000 A 
ATOM     23  N   UNL     1       1.101   8.760  19.972  0.00  0.00    +0.000 NA
ATOM     24  C   UNL     1       0.747  10.101  19.902  0.00  0.00    +0.000 A 
ATOM     25  C   UNL     1       1.272  10.783  18.828  0.00  0.00    +0.000 A 
ATOM     26  S   UNL     1       2.132   9.706  17.821  0.00  0.00    +0.000 S 
BRANCH  24  27
ATOM     27  C   UNL     1      -0.132  10.696  20.900  0.00  0.00    +0.000 A 
ATOM     28  C   UNL     1      -0.197  10.142  22.186  0.00  0.00    +0.000 A 
ATOM     29  C   UNL     1      -1.091  10.648  23.135  0.00  0.00    +0.000 A 
ATOM     30  C   UNL     1      -1.926  11.712  22.800  0.00  0.00    +0.000 A 
ATOM     31 CL   UNL     1      -3.059  12.307  23.949  0.00  0.00    +0.000 Cl
ATOM     32  C   UNL     1      -1.862  12.286  21.533  0.00  0.00    +0.000 A 
ATOM     33  C   UNL     1      -0.966  11.781  20.585  0.00  0.00    +0.000 A 
ENDBRANCH  24  27
ENDBRANCH   9  22
TORSDOF 3
ENDMDL
MODEL 3
REMARK VINA RESULT:      -8.4      0.581      1.068
REMARK  Name = 
REMARK  5 active torsions:
REMARK  status: ('A' for Active; 'I' for Inactive)
REMARK    1  A    between atoms: C_1  and  C_2
REMARK    2  A    between atoms: C_2  and  C_3
REMARK    3  A    between atoms: C_9  and  C_10
REMARK    4  A    between atoms: C_12  and  C_13
REMARK    5  A    between atoms: N_24  and  C_25
REMARK                            x       y       z     vdW  Elec       q    Type
REMARK                         _______ _______ _______ _____ _____    ______ ____
ROOT
ATOM      1  C   UNL     1      -0.387  16.901  18.981  0.00  0.00    +0.000 C 
ATOM      2  C   UNL     1       0.250  15.540  19.313  0.00  0.00    +0.000 C 
ATOM      3  C   UNL     1       0.529  15.505  20.831  0.00  0.00    +0.000 C 
ATOM      4  C   UNL     1       1.548  15.369  18.517  0.00  0.00    +0.000 C 
ATOM      5  C   UNL     1       2.154  14.006  18.762  0.00  0.00    +0.000 C 
ATOM      6  O   UNL     1       3.374  13.856  18.814  0.00  0.00    +0.000 OA
ATOM      7  C   UNL     1       1.227  12.828  18.881  0.00  0.00    +0.000 A 
ATOM      8  C   UNL     1       1.783  11.497  18.976  0.00  0.00    +0.000 A 
ATOM      9  C   UNL     1       1.008  10.407  19.091  0.00  0.00    +0.000 A 
ATOM     10  C   UNL     1      -0.478  10.585  19.163  0.00  0.00    +0.000 A 
ATOM     11  O   UNL     1      -1.206   9.605  19.329  0.00  0.00    +0.000 OA
ATOM     12  N   UNL     1      -0.971  11.905  19.011  0.00  0.00    +0.000 N 
ATOM     13  C   UNL     1      -0.109  13.015  18.896  0.00  0.00    +0.000 A 
ATOM     14  C   UNL     1      -0.720  14.411  18.901  0.00  0.00    +0.000 C 
ENDROOT
BRANCH  12  15
ATOM     15  C   UNL     1      -2.399  12.028  18.982  0.00  0.00    +0.000 A 
ATOM     16  C   UNL     1      -3.080  12.534  20.098  0.00  0.00    +0.000 A 
ATOM     17  C   UNL     1      -4.473  12.612  20.102  0.00  0.00    +0.000 A 
ATOM     18  C   UNL     1      -5.183  12.173  18.991  0.00  0.00    +0.000 A 
ATOM     19  F   UNL     1      -6.520  12.231  19.000  0.00  0.00    +0.000 F 
ATOM     20  C   UNL     1      -4.527  11.666  17.875  0.00  0.00    +0.000 A 
ATOM     21  C   UNL     1      -3.131  11.594  17.867  0.00  0.00    +0.000 A 
ENDBRANCH  12  15
BRANCH   9  22
ATOM     22  C   UNL     1       1.617   9.115  19.180  0.00  0.00    +0.000 A 
ATOM     23  N   UNL     1       2.323   8.525  18.229  0.00  0.00    +0.000 NA
ATOM     24  C   UNL     1       2.744   7.261  18.621  0.00  0.00    +0.000 A 
ATOM     25  C   UNL     1       2.370   6.895  19.894  0.00  0.00    +0.000 A 
ATOM     26  S   UNL     1       1.378   8.103  20.577  0.00  0.00    +0.000 S 
BRANCH  24  27
ATOM     27  C   UNL     1       3.504   6.410  17.714  0.00  0.00    +0.000 A 
ATOM     28  C   UNL     1       3.302   5.023  17.731  0.00  0.00    +0.000 A 
ATOM     29  C   UNL     1       4.075   4.181  16.925  0.00  0.00    +0.000 A 
ATOM     30  C   UNL     1       5.056   4.724  16.099  0.00  0.00    +0.000 A 
ATOM     31 CL   UNL     1       6.040   3.687  15.142  0.00  0.00    +0.000 Cl
ATOM     32  C   UNL     1       5.258   6.101  16.056  0.00  0.00    +0.000 A 
ATOM     33  C   UNL     1       4.484   6.943  16.860  0.00  0.00    +0.000 A 
ENDBRANCH  24  27
ENDBRANCH   9  22
TORSDOF 3
ENDMDL
MODEL 4
REMARK VINA RESULT:      -8.2      0.524      1.299
REMARK  Name = 
REMARK  5 active torsions:
REMARK  status: ('A' for Active; 'I' for Inactive)
REMARK    1  A    between atoms: C_1  and  C_2
REMARK    2  A    between atoms: C_2  and  C_3
REMARK    3  A    between atoms: C_9  and  C_10
REMARK    4  A    between atoms: C_12  and  C_13
REMARK    5  A    between atoms: N_24  and  C_25
REMARK                            x       y       z     vdW  Elec       q    Type
REMARK                         _______ _______ _______ _____ _____    ______ ____
ROOT
ATOM      1  C   UNL     1      -1.069  16.597  19.478  0.00  0.00    +0.000 C 
ATOM      2  C   UNL     1      -0.420  15.239  19.800  0.00  0.00    +0.000 C 
ATOM      3  C   UNL     1      -0.525  15.013  21.324  0.00  0.00    +0.000 C 
ATOM      4  C   UNL     1       1.045  15.246  19.350  0.00  0.00    +0.000 C 
ATOM      5  C   UNL     1       1.685  13.895  19.580  0.00  0.00    +0.000 C 
ATOM      6  O   UNL     1       2.861  13.804  19.926  0.00  0.00    +0.000 OA
ATOM      7  C   UNL     1       0.860  12.665  19.317  0.00  0.00    +0.000 A 
ATOM      8  C   UNL     1       1.485  11.365  19.395  0.00  0.00    +0.000 A 
ATOM      9  C   UNL     1       0.802  10.230  19.177  0.00  0.00    +0.000 A 
ATOM     10  C   UNL     1      -0.665  10.318  18.885  0.00  0.00    +0.000 A 
ATOM     11  O   UNL     1      -1.326   9.289  18.742  0.00  0.00    +0.000 OA
ATOM     12  N   UNL     1      -1.215  11.619  18.769  0.00  0.00    +0.000 N 
ATOM     13  C   UNL     1      -0.449  12.779  19.010  0.00  0.00    +0.000 A 
ATOM     14  C   UNL     1      -1.158  14.127  19.023  0.00  0.00    +0.000 C 
ENDROOT
BRANCH  12  15
ATOM     15  C   UNL     1      -2.596  11.670  18.388  0.00  0.00    +0.000 A 
ATOM     16  C   UNL     1      -2.965  11.426  17.058  0.00  0.00    +0.000 A 
ATOM     17  C   UNL     1      -4.299  11.523  16.664  0.00  0.00    +0.000 A 
ATOM     18  C   UNL     1      -5.264  11.871  17.602  0.00  0.00    +0.000 A 
ATOM     19  F   UNL     1      -6.542  11.981  17.221  0.00  0.00    +0.000 F 
ATOM     20  C   UNL     1      -4.918  12.118  18.926  0.00  0.00    +0.000 A 
ATOM     21  C   UNL     1      -3.583  12.016  19.324  0.00  0.00    +0.000 A 
ENDBRANCH  12  15
BRANCH   9  22
ATOM     22  C   UNL     1       1.478   8.971  19.267  0.00  0.00    +0.000 A 
ATOM     23  N   UNL     1       2.186   8.403  18.306  0.00  0.00    +0.000 NA
ATOM     24  C   UNL     1       2.681   7.167  18.702  0.00  0.00    +0.000 A 
ATOM     25  C   UNL     1       2.360   6.802  19.990  0.00  0.00    +0.000 A 
ATOM     26  S   UNL     1       1.327   7.970  20.684  0.00  0.00    +0.000 S 
BRANCH  24  27
ATOM     27  C   UNL     1       3.458   6.342  17.786  0.00  0.00    +0.000 A 
ATOM     28  C   UNL     1       3.236   4.959  17.742  0.00  0.00    +0.000 A 
ATOM     29  C   UNL     1       4.023   4.138  16.928  0.00  0.00    +0.000 A 
ATOM     30  C   UNL     1       5.038   4.698  16.155  0.00  0.00    +0.000 A 
ATOM     31 CL   UNL     1       6.038   3.686  15.189  0.00  0.00    +0.000 Cl
ATOM     32  C   UNL     1       5.260   6.073  16.174  0.00  0.00    +0.000 A 
ATOM     33  C   UNL     1       4.471   6.893  16.986  0.00  0.00    +0.000 A 
ENDBRANCH  24  27
ENDBRANCH   9  22
TORSDOF 3
ENDMDL
MODEL 5
REMARK VINA RESULT:      -7.8      0.975      1.027
REMARK  Name = 
REMARK  5 active torsions:
REMARK  status: ('A' for Active; 'I' for Inactive)
REMARK    1  A    between atoms: C_1  and  C_2
REMARK    2  A    between atoms: C_2  and  C_3
REMARK    3  A    between atoms: C_9  and  C_10
REMARK    4  A    between atoms: C_12  and  C_13
REMARK    5  A    between atoms: N_24  and  C_25
REMARK                            x       y       z     vdW  Elec       q    Type
REMARK                         _______ _______ _______ _____ _____    ______ ____
ROOT
ATOM      1  C   UNL     1      -1.125  16.443  20.495  0.00  0.00    +0.000 C 
ATOM      2  C   UNL     1      -0.537  15.040  20.727  0.00  0.00    +0.000 C 
ATOM      3  C   UNL     1      -0.854  14.627  22.180  0.00  0.00    +0.000 C 
ATOM      4  C   UNL     1       0.977  15.067  20.487  0.00  0.00    +0.000 C 
ATOM      5  C   UNL     1       1.569  13.683  20.628  0.00  0.00    +0.000 C 
ATOM      6  O   UNL     1       2.685  13.521  21.118  0.00  0.00    +0.000 OA
ATOM      7  C   UNL     1       0.781  12.517  20.100  0.00  0.00    +0.000 A 
ATOM      8  C   UNL     1       1.381  11.202  20.096  0.00  0.00    +0.000 A 
ATOM      9  C   UNL     1       0.727  10.121  19.643  0.00  0.00    +0.000 A 
ATOM     10  C   UNL     1      -0.684  10.280  19.167  0.00  0.00    +0.000 A 
ATOM     11  O   UNL     1      -1.325   9.293  18.804  0.00  0.00    +0.000 OA
ATOM     12  N   UNL     1      -1.204  11.599  19.143  0.00  0.00    +0.000 N 
ATOM     13  C   UNL     1      -0.471  12.699  19.633  0.00  0.00    +0.000 A 
ATOM     14  C   UNL     1      -1.166  14.052  19.720  0.00  0.00    +0.000 C 
ENDROOT
BRANCH  12  15
ATOM     15  C   UNL     1      -2.518  11.731  18.586  0.00  0.00    +0.000 A 
ATOM     16  C   UNL     1      -3.601  12.047  19.417  0.00  0.00    +0.000 A 
ATOM     17  C   UNL     1      -4.893  12.129  18.897  0.00  0.00    +0.000 A 
ATOM     18  C   UNL     1      -5.100  11.884  17.544  0.00  0.00    +0.000 A 
ATOM     19  F   UNL     1      -6.342  11.945  17.048  0.00  0.00    +0.000 F 
ATOM     20  C   UNL     1      -4.039  11.567  16.704  0.00  0.00    +0.000 A 
ATOM     21  C   UNL     1      -2.744  11.491  17.222  0.00  0.00    +0.000 A 
ENDBRANCH  12  15
BRANCH   9  22
ATOM     22  C   UNL     1       1.375   8.844  19.664  0.00  0.00    +0.000 A 
ATOM     23  N   UNL     1       2.143   8.350  18.706  0.00  0.00    +0.000 NA
ATOM     24  C   UNL     1       2.589   7.073  19.021  0.00  0.00    +0.000 A 
ATOM     25  C   UNL     1       2.170   6.599  20.243  0.00  0.00    +0.000 A 
ATOM     26  S   UNL     1       1.108   7.721  20.968  0.00  0.00    +0.000 S 
BRANCH  24  27
ATOM     27  C   UNL     1       3.417   6.318  18.089  0.00  0.00    +0.000 A 
ATOM     28  C   UNL     1       4.310   6.997  17.249  0.00  0.00    +0.000 A 
ATOM     29  C   UNL     1       5.057   6.301  16.293  0.00  0.00    +0.000 A 
ATOM     30  C   UNL     1       4.913   4.920  16.174  0.00  0.00    +0.000 A 
ATOM     31 CL   UNL     1       5.795   4.067  14.970  0.00  0.00    +0.000 Cl
ATOM     32  C   UNL     1       4.043   4.228  17.014  0.00  0.00    +0.000 A 
ATOM     33  C   UNL     1       3.298   4.925  17.970  0.00  0.00    +0.000 A 
ENDBRANCH  24  27
ENDBRANCH   9  22
TORSDOF 3
ENDMDL
MODEL 6
REMARK VINA RESULT:      -7.7      1.401      1.898
REMARK  Name = 
REMARK  5 active torsions:
REMARK  status: ('A' for Active; 'I' for Inactive)
REMARK    1  A    between atoms: C_1  and  C_2
REMARK    2  A    between atoms: C_2  and  C_3
REMARK    3  A    between atoms: C_9  and  C_10
REMARK    4  A    between atoms: C_12  and  C_13
REMARK    5  A    between atoms: N_24  and  C_25
REMARK                            x       y       z     vdW  Elec       q    Type
REMARK                         _______ _______ _______ _____ _____    ______ ____
ROOT
ATOM      1  C   UNL     1       0.122  17.022  19.388  0.00  0.00    +0.000 C 
ATOM      2  C   UNL     1       0.740  15.630  19.607  0.00  0.00    +0.000 C 
ATOM      3  C   UNL     1       1.485  15.649  20.959  0.00  0.00    +0.000 C 
ATOM      4  C   UNL     1       1.703  15.306  18.459  0.00  0.00    +0.000 C 
ATOM      5  C   UNL     1       2.264  13.909  18.605  0.00  0.00    +0.000 C 
ATOM      6  O   UNL     1       3.424  13.658  18.283  0.00  0.00    +0.000 OA
ATOM      7  C   UNL     1       1.348  12.825  19.098  0.00  0.00    +0.000 A 
ATOM      8  C   UNL     1       1.816  11.457  19.115  0.00  0.00    +0.000 A 
ATOM      9  C   UNL     1       1.048  10.446  19.549  0.00  0.00    +0.000 A 
ATOM     10  C   UNL     1      -0.323  10.755  20.070  0.00  0.00    +0.000 A 
ATOM     11  O   UNL     1      -1.023   9.852  20.530  0.00  0.00    +0.000 OA
ATOM     12  N   UNL     1      -0.750  12.103  19.980  0.00  0.00    +0.000 N 
ATOM     13  C   UNL     1       0.102  13.127  19.517  0.00  0.00    +0.000 A 
ATOM     14  C   UNL     1      -0.382  14.569  19.606  0.00  0.00    +0.000 C 
ENDROOT
BRANCH  12  15
ATOM     15  C   UNL     1      -2.102  12.348  20.391  0.00  0.00    +0.000 A 
ATOM     16  C   UNL     1      -2.381  12.648  21.732  0.00  0.00    +0.000 A 
ATOM     17  C   UNL     1      -3.697  12.838  22.154  0.00  0.00    +0.000 A 
ATOM     18  C   UNL     1      -4.733  12.719  21.235  0.00  0.00    +0.000 A 
ATOM     19  F   UNL     1      -5.997  12.884  21.644  0.00  0.00    +0.000 F 
ATOM     20  C   UNL     1      -4.476  12.421  19.902  0.00  0.00    +0.000 A 
ATOM     21  C   UNL     1      -3.159  12.236  19.475  0.00  0.00    +0.000 A 
ENDBRANCH  12  15
BRANCH   9  22
ATOM     22  C   UNL     1       1.567   9.112  19.541  0.00  0.00    +0.000 A 
ATOM     23  N   UNL     1       2.290   8.569  18.576  0.00  0.00    +0.000 NA
ATOM     24  C   UNL     1       2.606   7.246  18.861  0.00  0.00    +0.000 A 
ATOM     25  C   UNL     1       2.133   6.786  20.069  0.00  0.00    +0.000 A 
ATOM     26  S   UNL     1       1.180   7.989  20.815  0.00  0.00    +0.000 S 
BRANCH  24  27
ATOM     27  C   UNL     1       3.363   6.437  17.915  0.00  0.00    +0.000 A 
ATOM     28  C   UNL     1       3.195   5.046  17.903  0.00  0.00    +0.000 A 
ATOM     29  C   UNL     1       3.968   4.242  17.059  0.00  0.00    +0.000 A 
ATOM     30  C   UNL     1       4.915   4.828  16.223  0.00  0.00    +0.000 A 
ATOM     31 CL   UNL     1       5.900   3.839  15.217  0.00  0.00    +0.000 Cl
ATOM     32  C   UNL     1       5.083   6.210  16.209  0.00  0.00    +0.000 A 
ATOM     33  C   UNL     1       4.308   7.013  17.052  0.00  0.00    +0.000 A 
ENDBRANCH  24  27
ENDBRANCH   9  22
TORSDOF 3
ENDMDL
MODEL 7
REMARK VINA RESULT:      -7.7      0.984      1.163
REMARK  Name = 
REMARK  5 active torsions:
REMARK  status: ('A' for Active; 'I' for Inactive)
REMARK    1  A    between atoms: C_1  and  C_2
REMARK    2  A    between atoms: C_2  and  C_3
REMARK    3  A    between atoms: C_9  and  C_10
REMARK    4  A    between atoms: C_12  and  C_13
REMARK    5  A    between atoms: N_24  and  C_25
REMARK                            x       y       z     vdW  Elec       q    Type
REMARK                         _______ _______ _______ _____ _____    ______ ____
ROOT
ATOM      1  C   UNL     1      -0.343  16.909  18.952  0.00  0.00    +0.000 C 
ATOM      2  C   UNL     1       0.292  15.558  19.324  0.00  0.00    +0.000 C 
ATOM      3  C   UNL     1       0.755  15.640  20.794  0.00  0.00    +0.000 C 
ATOM      4  C   UNL     1       1.477  15.270  18.396  0.00  0.00    +0.000 C 
ATOM      5  C   UNL     1       2.071  13.910  18.685  0.00  0.00    +0.000 C 
ATOM      6  O   UNL     1       3.282  13.719  18.603  0.00  0.00    +0.000 OA
ATOM      7  C   UNL     1       1.133  12.783  19.019  0.00  0.00    +0.000 A 
ATOM      8  C   UNL     1       1.659  11.445  19.164  0.00  0.00    +0.000 A 
ATOM      9  C   UNL     1       0.874  10.399  19.468  0.00  0.00    +0.000 A 
ATOM     10  C   UNL     1      -0.586  10.639  19.702  0.00  0.00    +0.000 A 
ATOM     11  O   UNL     1      -1.315   9.706  20.041  0.00  0.00    +0.000 OA
ATOM     12  N   UNL     1      -1.057  11.960  19.495  0.00  0.00    +0.000 N 
ATOM     13  C   UNL     1      -0.185  13.022  19.178  0.00  0.00    +0.000 A 
ATOM     14  C   UNL     1      -0.752  14.436  19.133  0.00  0.00    +0.000 C 
ENDROOT
BRANCH  12  15
ATOM     15  C   UNL     1      -2.474  12.134  19.627  0.00  0.00    +0.000 A 
ATOM     16  C   UNL     1      -3.021  12.496  20.866  0.00  0.00    +0.000 A 
ATOM     17  C   UNL     1      -4.402  12.620  21.021  0.00  0.00    +0.000 A 
ATOM     18  C   UNL     1      -5.235  12.373  19.936  0.00  0.00    +0.000 A 
ATOM     19  F   UNL     1      -6.560  12.475  20.089  0.00  0.00    +0.000 F 
ATOM     20  C   UNL     1      -4.712  12.012  18.700  0.00  0.00    +0.000 A 
ATOM     21  C   UNL     1      -3.329  11.894  18.541  0.00  0.00    +0.000 A 
ENDBRANCH  12  15
BRANCH   9  22
ATOM     22  C   UNL     1       1.453   9.097  19.597  0.00  0.00    +0.000 A 
ATOM     23  N   UNL     1       2.208   8.492  18.694  0.00  0.00    +0.000 NA
ATOM     24  C   UNL     1       2.581   7.221  19.113  0.00  0.00    +0.000 A 
ATOM     25  C   UNL     1       2.120   6.865  20.360  0.00  0.00    +0.000 A 
ATOM     26  S   UNL     1       1.108   8.092  20.977  0.00  0.00    +0.000 S 
BRANCH  24  27
ATOM     27  C   UNL     1       3.382   6.356  18.257  0.00  0.00    +0.000 A 
ATOM     28  C   UNL     1       4.398   6.910  17.466  0.00  0.00    +0.000 A 
ATOM     29  C   UNL     1       5.126   6.110  16.580  0.00  0.00    +0.000 A 
ATOM     30  C   UNL     1       4.840   4.751  16.479  0.00  0.00    +0.000 A 
ATOM     31 CL   UNL     1       5.702   3.774  15.357  0.00  0.00    +0.000 Cl
ATOM     32  C   UNL     1       3.846   4.180  17.271  0.00  0.00    +0.000 A 
ATOM     33  C   UNL     1       3.119   4.980  18.158  0.00  0.00    +0.000 A 
ENDBRANCH  24  27
ENDBRANCH   9  22
TORSDOF 3
ENDMDL
MODEL 8
REMARK VINA RESULT:      -7.4      2.427      2.940
REMARK  Name = 
REMARK  5 active torsions:
REMARK  status: ('A' for Active; 'I' for Inactive)
REMARK    1  A    between atoms: C_1  and  C_2
REMARK    2  A    between atoms: C_2  and  C_3
REMARK    3  A    between atoms: C_9  and  C_10
REMARK    4  A    between atoms: C_12  and  C_13
REMARK    5  A    between atoms: N_24  and  C_25
REMARK                            x       y       z     vdW  Elec       q    Type
REMARK                         _______ _______ _______ _____ _____    ______ ____
ROOT
ATOM      1  C   UNL     1      -2.718  15.946  22.367  0.00  0.00    +0.000 C 
ATOM      2  C   UNL     1      -1.876  14.681  22.117  0.00  0.00    +0.000 C 
ATOM      3  C   UNL     1      -2.028  13.760  23.346  0.00  0.00    +0.000 C 
ATOM      4  C   UNL     1      -0.409  15.071  21.907  0.00  0.00    +0.000 C 
ATOM      5  C   UNL     1       0.429  13.855  21.578  0.00  0.00    +0.000 C 
ATOM      6  O   UNL     1       1.583  13.753  21.989  0.00  0.00    +0.000 OA
ATOM      7  C   UNL     1      -0.168  12.803  20.685  0.00  0.00    +0.000 A 
ATOM      8  C   UNL     1       0.656  11.700  20.243  0.00  0.00    +0.000 A 
ATOM      9  C   UNL     1       0.180  10.727  19.451  0.00  0.00    +0.000 A 
ATOM     10  C   UNL     1      -1.263  10.767  19.050  0.00  0.00    +0.000 A 
ATOM     11  O   UNL     1      -1.738   9.853  18.374  0.00  0.00    +0.000 OA
ATOM     12  N   UNL     1      -2.010  11.896  19.467  0.00  0.00    +0.000 N 
ATOM     13  C   UNL     1      -1.458  12.890  20.302  0.00  0.00    +0.000 A 
ATOM     14  C   UNL     1      -2.377  13.982  20.834  0.00  0.00    +0.000 C 
ENDROOT
BRANCH  12  15
ATOM     15  C   UNL     1      -3.358  11.955  18.981  0.00  0.00    +0.000 A 
ATOM     16  C   UNL     1      -4.416  12.167  19.876  0.00  0.00    +0.000 A 
ATOM     17  C   UNL     1      -5.735  12.176  19.423  0.00  0.00    +0.000 A 
ATOM     18  C   UNL     1      -5.995  11.964  18.075  0.00  0.00    +0.000 A 
ATOM     19  F   UNL     1      -7.261  11.955  17.643  0.00  0.00    +0.000 F 
ATOM     20  C   UNL     1      -4.960  11.750  17.171  0.00  0.00    +0.000 A 
ATOM     21  C   UNL     1      -3.637  11.747  17.622  0.00  0.00    +0.000 A 
ENDBRANCH  12  15
BRANCH   9  22
ATOM     22  C   UNL     1       1.045   9.661  19.045  0.00  0.00    +0.000 A 
ATOM     23  N   UNL     1       1.197   8.506  19.672  0.00  0.00    +0.000 NA
ATOM     24  C   UNL     1       2.139   7.705  19.039  0.00  0.00    +0.000 A 
ATOM     25  C   UNL     1       2.694   8.252  17.904  0.00  0.00    +0.000 A 
ATOM     26  S   UNL     1       2.115   9.842  17.683  0.00  0.00    +0.000 S 
BRANCH  24  27
ATOM     27  C   UNL     1       2.498   6.401  19.580  0.00  0.00    +0.000 A 
ATOM     28  C   UNL     1       3.563   5.686  19.016  0.00  0.00    +0.000 A 
ATOM     29  C   UNL     1       3.876   4.399  19.468  0.00  0.00    +0.000 A 
ATOM     30  C   UNL     1       3.122   3.822  20.487  0.00  0.00    +0.000 A 
ATOM     31 CL   UNL     1       3.474   2.223  21.013  0.00  0.00    +0.000 Cl
ATOM     32  C   UNL     1       2.072   4.526  21.071  0.00  0.00    +0.000 A 
ATOM     33  C   UNL     1       1.761   5.813  20.621  0.00  0.00    +0.000 A 
ENDBRANCH  24  27
ENDBRANCH   9  22
TORSDOF 3
ENDMDL
MODEL 9
REMARK VINA RESULT:      -7.3      4.560      9.970
REMARK  Name = 
REMARK  5 active torsions:
REMARK  status: ('A' for Active; 'I' for Inactive)
REMARK    1  A    between atoms: C_1  and  C_2
REMARK    2  A    between atoms: C_2  and  C_3
REMARK    3  A    between atoms: C_9  and  C_10
REMARK    4  A    between atoms: C_12  and  C_13
REMARK    5  A    between atoms: N_24  and  C_25
REMARK                            x       y       z     vdW  Elec       q    Type
REMARK                         _______ _______ _______ _____ _____    ______ ____
ROOT
ATOM      1  C   UNL     1       4.064   0.674  18.614  0.00  0.00    +0.000 C 
ATOM      2  C   UNL     1       3.628   2.025  19.210  0.00  0.00    +0.000 C 
ATOM      3  C   UNL     1       4.423   2.246  20.514  0.00  0.00    +0.000 C 
ATOM      4  C   UNL     1       2.121   2.005  19.487  0.00  0.00    +0.000 C 
ATOM      5  C   UNL     1       1.650   3.348  19.998  0.00  0.00    +0.000 C 
ATOM      6  O   UNL     1       0.765   3.426  20.849  0.00  0.00    +0.000 OA
ATOM      7  C   UNL     1       2.250   4.587  19.394  0.00  0.00    +0.000 A 
ATOM      8  C   UNL     1       1.722   5.881  19.762  0.00  0.00    +0.000 A 
ATOM      9  C   UNL     1       2.219   7.023  19.263  0.00  0.00    +0.000 A 
ATOM     10  C   UNL     1       3.386   6.951  18.326  0.00  0.00    +0.000 A 
ATOM     11  O   UNL     1       3.898   7.988  17.902  0.00  0.00    +0.000 OA
ATOM     12  N   UNL     1       3.829   5.656  17.958  0.00  0.00    +0.000 N 
ATOM     13  C   UNL     1       3.270   4.488  18.516  0.00  0.00    +0.000 A 
ATOM     14  C   UNL     1       3.915   3.148  18.189  0.00  0.00    +0.000 C 
ENDROOT
BRANCH  12  15
ATOM     15  C   UNL     1       4.879   5.621  16.982  0.00  0.00    +0.000 A 
ATOM     16  C   UNL     1       4.598   5.226  15.666  0.00  0.00    +0.000 A 
ATOM     17  C   UNL     1       5.619   5.139  14.720  0.00  0.00    +0.000 A 
ATOM     18  C   UNL     1       6.924   5.439  15.095  0.00  0.00    +0.000 A 
ATOM     19  F   UNL     1       7.906   5.339  14.192  0.00  0.00    +0.000 F 
ATOM     20  C   UNL     1       7.223   5.831  16.394  0.00  0.00    +0.000 A 
ATOM     21  C   UNL     1       6.201   5.926  17.342  0.00  0.00    +0.000 A 
ENDBRANCH  12  15
BRANCH   9  22
ATOM     22  C   UNL     1       1.652   8.274  19.665  0.00  0.00    +0.000 A 
ATOM     23  N   UNL     1       1.847   9.439  19.069  0.00  0.00    +0.000 NA
ATOM     24  C   UNL     1       1.183  10.465  19.729  0.00  0.00    +0.000 A 
ATOM     25  C   UNL     1       0.457  10.069  20.830  0.00  0.00    +0.000 A 
ATOM     26  S   UNL     1       0.697   8.404  21.115  0.00  0.00    +0.000 S 
BRANCH  24  27
ATOM     27  C   UNL     1       1.290  11.844  19.271  0.00  0.00    +0.000 A 
ATOM     28  C   UNL     1       2.367  12.223  18.459  0.00  0.00    +0.000 A 
ATOM     29  C   UNL     1       2.533  13.557  18.072  0.00  0.00    +0.000 A 
ATOM     30  C   UNL     1       1.620  14.519  18.499  0.00  0.00    +0.000 A 
ATOM     31 CL   UNL     1       1.846  16.167  18.064  0.00  0.00    +0.000 Cl
ATOM     32  C   UNL     1       0.533  14.156  19.291  0.00  0.00    +0.000 A 
ATOM     33  C   UNL     1       0.368  12.822  19.675  0.00  0.00    +0.000 A 
ENDBRANCH  24  27
ENDBRANCH   9  22
TORSDOF 3
ENDMDL
