MODEL 1
REMARK VINA RESULT:      -7.7      0.000      0.000
REMARK  Name = 
REMARK  5 active torsions:
REMARK  status: ('A' for Active; 'I' for Inactive)
REMARK    1  A    between atoms: N_1  and  S_2
REMARK    2  A    between atoms: S_2  and  C_5
REMARK    3  A    between atoms: C_10  and  C_11
REMARK    4  A    between atoms: C_11  and  N_12
REMARK    5  A    between atoms: C_13  and  C_15
REMARK                            x       y       z     vdW  Elec       q    Type
REMARK                         _______ _______ _______ _____ _____    ______ ____
ROOT
ATOM      1  C   UNL     1       2.917   4.330  19.549  0.00  0.00    +0.000 A 
ATOM      2  C   UNL     1       2.465   5.165  20.591  0.00  0.00    +0.000 A 
ATOM      3  C   UNL     1       2.132   6.492  20.348  0.00  0.00    +0.000 A 
ATOM      4  C   UNL     1       2.245   6.999  19.060  0.00  0.00    +0.000 A 
ATOM      5  C   UNL     1       2.706   6.182  18.025  0.00  0.00    +0.000 A 
ATOM      6  C   UNL     1       3.066   4.835  18.242  0.00  0.00    +0.000 A 
ENDROOT
BRANCH   1   7
ATOM      7  S   UNL     1       3.259   2.655  20.030  0.00  0.00    +0.000 S 
ATOM      8  O   UNL     1       2.550   1.768  19.133  0.00  0.00    +0.000 OA
ATOM      9  O   UNL     1       3.216   2.495  21.460  0.00  0.00    +0.000 OA
BRANCH   7  10
ATOM     10  N   UNL     1       4.888   2.513  19.628  0.00  0.00    +0.000 NA
ATOM     11  H   UNL     1       5.212   1.558  19.774  0.00  0.00    +0.000 HD
ATOM     12  H   UNL     1       5.438   3.222  20.113  0.00  0.00    +0.000 HD
ENDBRANCH   7  10
ENDBRANCH   1   7
BRANCH   6  13
ATOM     13  C   UNL     1       3.644   4.087  17.059  0.00  0.00    +0.000 C 
BRANCH  13  14
ATOM     14  N   UNL     1       5.070   4.230  16.926  0.00  0.00    +0.000 N 
ATOM     15  C   UNL     1       5.679   5.228  16.195  0.00  0.00    +0.000 C 
ATOM     16  O   UNL     1       5.065   6.028  15.498  0.00  0.00    +0.000 OA
ATOM     17  H   UNL     1       5.645   3.701  17.583  0.00  0.00    +0.000 HD
BRANCH  15  18
ATOM     18  C   UNL     1       7.218   5.244  16.375  0.00  0.00    +0.000 C 
ATOM     19  C   UNL     1       7.700   4.572  17.665  0.00  0.00    +0.000 C 
ATOM     20  C   UNL     1       7.418   5.436  18.891  0.00  0.00    +0.000 C 
ATOM     21  C   UNL     1       7.906   6.862  18.671  0.00  0.00    +0.000 C 
ATOM     22  C   UNL     1       7.428   7.414  17.335  0.00  0.00    +0.000 C 
ATOM     23  O   UNL     1       7.786   6.552  16.253  0.00  0.00    +0.000 OA
ENDBRANCH  15  18
ENDBRANCH  13  14
ENDBRANCH   6  13
TORSDOF 5
ENDMDL
MODEL 2
REMARK VINA RESULT:      -7.7      1.020      1.172
REMARK  Name = 
REMARK  5 active torsions:
REMARK  status: ('A' for Active; 'I' for Inactive)
REMARK    1  A    between atoms: N_1  and  S_2
REMARK    2  A    between atoms: S_2  and  C_5
REMARK    3  A    between atoms: C_10  and  C_11
REMARK    4  A    between atoms: C_11  and  N_12
REMARK    5  A    between atoms: C_13  and  C_15
REMARK                            x       y       z     vdW  Elec       q    Type
REMARK                         _______ _______ _______ _____ _____    ______ ____
ROOT
ATOM      1  C   UNL     1       2.639   4.442  19.684  0.00  0.00    +0.000 A 
ATOM      2  C   UNL     1       2.161   5.475  20.516  0.00  0.00    +0.000 A 
ATOM      3  C   UNL     1       2.101   6.787  20.060  0.00  0.00    +0.000 A 
ATOM      4  C   UNL     1       2.514   7.080  18.768  0.00  0.00    +0.000 A 
ATOM      5  C   UNL     1       3.003   6.063  17.942  0.00  0.00    +0.000 A 
ATOM      6  C   UNL     1       3.091   4.725  18.380  0.00  0.00    +0.000 A 
ENDROOT
BRANCH   1   7
ATOM      7  S   UNL     1       2.611   2.823  20.414  0.00  0.00    +0.000 S 
ATOM      8  O   UNL     1       3.971   2.341  20.511  0.00  0.00    +0.000 OA
ATOM      9  O   UNL     1       1.547   2.017  19.873  0.00  0.00    +0.000 OA
BRANCH   7  10
ATOM     10  N   UNL     1       2.131   3.171  21.990  0.00  0.00    +0.000 NA
ATOM     11  H   UNL     1       2.911   3.057  22.636  0.00  0.00    +0.000 HD
ATOM     12  H   UNL     1       1.300   2.632  22.237  0.00  0.00    +0.000 HD
ENDBRANCH   7  10
ENDBRANCH   1   7
BRANCH   6  13
ATOM     13  C   UNL     1       3.730   3.738  17.426  0.00  0.00    +0.000 C 
BRANCH  13  14
ATOM     14  N   UNL     1       5.147   3.931  17.259  0.00  0.00    +0.000 N 
ATOM     15  C   UNL     1       5.711   4.628  16.211  0.00  0.00    +0.000 C 
ATOM     16  O   UNL     1       5.068   5.061  15.261  0.00  0.00    +0.000 OA
ATOM     17  H   UNL     1       5.733   3.731  18.070  0.00  0.00    +0.000 HD
BRANCH  15  18
ATOM     18  C   UNL     1       7.238   4.829  16.383  0.00  0.00    +0.000 C 
ATOM     19  C   UNL     1       7.761   4.459  17.775  0.00  0.00    +0.000 C 
ATOM     20  C   UNL     1       7.376   5.504  18.818  0.00  0.00    +0.000 C 
ATOM     21  C   UNL     1       7.727   6.905  18.335  0.00  0.00    +0.000 C 
ATOM     22  C   UNL     1       7.220   7.149  16.920  0.00  0.00    +0.000 C 
ATOM     23  O   UNL     1       7.678   6.140  16.018  0.00  0.00    +0.000 OA
ENDBRANCH  15  18
ENDBRANCH  13  14
ENDBRANCH   6  13
TORSDOF 5
ENDMDL
MODEL 3
REMARK VINA RESULT:      -7.4      0.848      1.033
REMARK  Name = 
REMARK  5 active torsions:
REMARK  status: ('A' for Active; 'I' for Inactive)
REMARK    1  A    between atoms: N_1  and  S_2
REMARK    2  A    between atoms: S_2  and  C_5
REMARK    3  A    between atoms: C_10  and  C_11
REMARK    4  A    between atoms: C_11  and  N_12
REMARK    5  A    between atoms: C_13  and  C_15
REMARK                            x       y       z     vdW  Elec       q    Type
REMARK                         _______ _______ _______ _____ _____    ______ ____
ROOT
ATOM      1  C   UNL     1       2.824   4.247  19.569  0.00  0.00    +0.000 A 
ATOM      2  C   UNL     1       2.354   5.139  20.555  0.00  0.00    +0.000 A 
ATOM      3  C   UNL     1       2.104   6.471  20.248  0.00  0.00    +0.000 A 
ATOM      4  C   UNL     1       2.318   6.926  18.955  0.00  0.00    +0.000 A 
ATOM      5  C   UNL     1       2.798   6.051  17.976  0.00  0.00    +0.000 A 
ATOM      6  C   UNL     1       3.076   4.697  18.258  0.00  0.00    +0.000 A 
ENDROOT
BRANCH   1   7
ATOM      7  S   UNL     1       3.052   2.575  20.124  0.00  0.00    +0.000 S 
ATOM      8  O   UNL     1       2.631   2.490  21.505  0.00  0.00    +0.000 OA
ATOM      9  O   UNL     1       4.307   2.032  19.670  0.00  0.00    +0.000 OA
BRANCH   7  10
ATOM     10  N   UNL     1       1.880   1.759  19.233  0.00  0.00    +0.000 NA
ATOM     11  H   UNL     1       0.965   2.189  19.365  0.00  0.00    +0.000 HD
ATOM     12  H   UNL     1       1.906   0.760  19.438  0.00  0.00    +0.000 HD
ENDBRANCH   7  10
ENDBRANCH   1   7
BRANCH   6  13
ATOM     13  C   UNL     1       3.684   3.881  17.137  0.00  0.00    +0.000 C 
BRANCH  13  14
ATOM     14  N   UNL     1       5.110   4.035  17.019  0.00  0.00    +0.000 N 
ATOM     15  C   UNL     1       5.719   4.936  16.171  0.00  0.00    +0.000 C 
ATOM     16  O   UNL     1       5.108   5.620  15.357  0.00  0.00    +0.000 OA
ATOM     17  H   UNL     1       5.677   3.614  17.755  0.00  0.00    +0.000 HD
BRANCH  15  18
ATOM     18  C   UNL     1       7.252   5.011  16.382  0.00  0.00    +0.000 C 
ATOM     19  C   UNL     1       7.715   4.511  17.755  0.00  0.00    +0.000 C 
ATOM     20  C   UNL     1       7.385   5.510  18.859  0.00  0.00    +0.000 C 
ATOM     21  C   UNL     1       7.849   6.910  18.479  0.00  0.00    +0.000 C 
ATOM     22  C   UNL     1       7.392   7.285  17.076  0.00  0.00    +0.000 C 
ATOM     23  O   UNL     1       7.795   6.307  16.115  0.00  0.00    +0.000 OA
ENDBRANCH  15  18
ENDBRANCH  13  14
ENDBRANCH   6  13
TORSDOF 5
ENDMDL
MODEL 4
REMARK VINA RESULT:      -7.3      1.601      1.791
REMARK  Name = 
REMARK  5 active torsions:
REMARK  status: ('A' for Active; 'I' for Inactive)
REMARK    1  A    between atoms: N_1  and  S_2
REMARK    2  A    between atoms: S_2  and  C_5
REMARK    3  A    between atoms: C_10  and  C_11
REMARK    4  A    between atoms: C_11  and  N_12
REMARK    5  A    between atoms: C_13  and  C_15
REMARK                            x       y       z     vdW  Elec       q    Type
REMARK                         _______ _______ _______ _____ _____    ______ ____
ROOT
ATOM      1  C   UNL     1       1.896   4.571  19.583  0.00  0.00    +0.000 A 
ATOM      2  C   UNL     1       1.500   5.384  20.665  0.00  0.00    +0.000 A 
ATOM      3  C   UNL     1       1.658   6.764  20.615  0.00  0.00    +0.000 A 
ATOM      4  C   UNL     1       2.211   7.347  19.484  0.00  0.00    +0.000 A 
ATOM      5  C   UNL     1       2.620   6.547  18.413  0.00  0.00    +0.000 A 
ATOM      6  C   UNL     1       2.487   5.143  18.439  0.00  0.00    +0.000 A 
ENDROOT
BRANCH   1   7
ATOM      7  S   UNL     1       1.585   2.836  19.800  0.00  0.00    +0.000 S 
ATOM      8  O   UNL     1       2.857   2.151  19.884  0.00  0.00    +0.000 OA
ATOM      9  O   UNL     1       0.522   2.378  18.944  0.00  0.00    +0.000 OA
BRANCH   7  10
ATOM     10  N   UNL     1       0.938   2.800  21.353  0.00  0.00    +0.000 NA
ATOM     11  H   UNL     1       0.401   1.946  21.499  0.00  0.00    +0.000 HD
ATOM     12  H   UNL     1       0.419   3.658  21.544  0.00  0.00    +0.000 HD
ENDBRANCH   7  10
ENDBRANCH   1   7
BRANCH   6  13
ATOM     13  C   UNL     1       3.058   4.385  17.259  0.00  0.00    +0.000 C 
BRANCH  13  14
ATOM     14  N   UNL     1       4.424   4.726  16.960  0.00  0.00    +0.000 N 
ATOM     15  C   UNL     1       5.496   4.377  17.753  0.00  0.00    +0.000 C 
ATOM     16  O   UNL     1       5.381   3.834  18.847  0.00  0.00    +0.000 OA
ATOM     17  H   UNL     1       4.617   5.046  16.010  0.00  0.00    +0.000 HD
BRANCH  15  18
ATOM     18  C   UNL     1       6.858   4.719  17.099  0.00  0.00    +0.000 C 
ATOM     19  C   UNL     1       8.037   4.716  18.078  0.00  0.00    +0.000 C 
ATOM     20  C   UNL     1       8.018   5.944  18.984  0.00  0.00    +0.000 C 
ATOM     21  C   UNL     1       7.846   7.217  18.167  0.00  0.00    +0.000 C 
ATOM     22  C   UNL     1       6.693   7.093  17.181  0.00  0.00    +0.000 C 
ATOM     23  O   UNL     1       6.834   5.938  16.351  0.00  0.00    +0.000 OA
ENDBRANCH  15  18
ENDBRANCH  13  14
ENDBRANCH   6  13
TORSDOF 5
ENDMDL
MODEL 5
REMARK VINA RESULT:      -7.3      2.413      5.631
REMARK  Name = 
REMARK  5 active torsions:
REMARK  status: ('A' for Active; 'I' for Inactive)
REMARK    1  A    between atoms: N_1  and  S_2
REMARK    2  A    between atoms: S_2  and  C_5
REMARK    3  A    between atoms: C_10  and  C_11
REMARK    4  A    between atoms: C_11  and  N_12
REMARK    5  A    between atoms: C_13  and  C_15
REMARK                            x       y       z     vdW  Elec       q    Type
REMARK                         _______ _______ _______ _____ _____    ______ ____
ROOT
ATOM      1  C   UNL     1       5.466   5.412  16.559  0.00  0.00    +0.000 A 
ATOM      2  C   UNL     1       5.337   6.807  16.399  0.00  0.00    +0.000 A 
ATOM      3  C   UNL     1       4.328   7.508  17.050  0.00  0.00    +0.000 A 
ATOM      4  C   UNL     1       3.440   6.825  17.868  0.00  0.00    +0.000 A 
ATOM      5  C   UNL     1       3.553   5.440  18.020  0.00  0.00    +0.000 A 
ATOM      6  C   UNL     1       4.556   4.697  17.362  0.00  0.00    +0.000 A 
ENDROOT
BRANCH   1   7
ATOM      7  S   UNL     1       6.832   4.685  15.687  0.00  0.00    +0.000 S 
ATOM      8  O   UNL     1       7.558   5.740  15.013  0.00  0.00    +0.000 OA
ATOM      9  O   UNL     1       6.447   3.470  15.018  0.00  0.00    +0.000 OA
BRANCH   7  10
ATOM     10  N   UNL     1       7.817   4.186  16.958  0.00  0.00    +0.000 NA
ATOM     11  H   UNL     1       8.425   4.946  17.261  0.00  0.00    +0.000 HD
ATOM     12  H   UNL     1       8.312   3.328  16.710  0.00  0.00    +0.000 HD
ENDBRANCH   7  10
ENDBRANCH   1   7
BRANCH   6  13
ATOM     13  C   UNL     1       4.509   3.193  17.531  0.00  0.00    +0.000 C 
BRANCH  13  14
ATOM     14  N   UNL     1       3.541   2.752  18.501  0.00  0.00    +0.000 N 
ATOM     15  C   UNL     1       3.856   2.390  19.794  0.00  0.00    +0.000 C 
ATOM     16  O   UNL     1       5.006   2.306  20.212  0.00  0.00    +0.000 OA
ATOM     17  H   UNL     1       2.561   2.929  18.280  0.00  0.00    +0.000 HD
BRANCH  15  18
ATOM     18  C   UNL     1       2.600   2.131  20.663  0.00  0.00    +0.000 C 
ATOM     19  C   UNL     1       1.290   2.103  19.869  0.00  0.00    +0.000 C 
ATOM     20  C   UNL     1       0.862   3.503  19.439  0.00  0.00    +0.000 C 
ATOM     21  C   UNL     1       0.895   4.466  20.618  0.00  0.00    +0.000 C 
ATOM     22  C   UNL     1       2.211   4.370  21.378  0.00  0.00    +0.000 C 
ATOM     23  O   UNL     1       2.491   3.026  21.775  0.00  0.00    +0.000 OA
ENDBRANCH  15  18
ENDBRANCH  13  14
ENDBRANCH   6  13
TORSDOF 5
ENDMDL
MODEL 6
REMARK VINA RESULT:      -7.1      2.344      5.729
REMARK  Name = 
REMARK  5 active torsions:
REMARK  status: ('A' for Active; 'I' for Inactive)
REMARK    1  A    between atoms: N_1  and  S_2
REMARK    2  A    between atoms: S_2  and  C_5
REMARK    3  A    between atoms: C_10  and  C_11
REMARK    4  A    between atoms: C_11  and  N_12
REMARK    5  A    between atoms: C_13  and  C_15
REMARK                            x       y       z     vdW  Elec       q    Type
REMARK                         _______ _______ _______ _____ _____    ______ ____
ROOT
ATOM      1  C   UNL     1       5.963   5.441  16.921  0.00  0.00    +0.000 A 
ATOM      2  C   UNL     1       7.288   5.232  17.354  0.00  0.00    +0.000 A 
ATOM      3  C   UNL     1       7.593   5.160  18.708  0.00  0.00    +0.000 A 
ATOM      4  C   UNL     1       6.576   5.293  19.644  0.00  0.00    +0.000 A 
ATOM      5  C   UNL     1       5.262   5.515  19.223  0.00  0.00    +0.000 A 
ATOM      6  C   UNL     1       4.923   5.608  17.857  0.00  0.00    +0.000 A 
ENDROOT
BRANCH   1   7
ATOM      7  S   UNL     1       5.749   5.467  15.158  0.00  0.00    +0.000 S 
ATOM      8  O   UNL     1       5.247   6.769  14.777  0.00  0.00    +0.000 OA
ATOM      9  O   UNL     1       5.157   4.245  14.678  0.00  0.00    +0.000 OA
BRANCH   7  10
ATOM     10  N   UNL     1       7.345   5.414  14.623  0.00  0.00    +0.000 NA
ATOM     11  H   UNL     1       7.985   5.656  15.378  0.00  0.00    +0.000 HD
ATOM     12  H   UNL     1       7.458   5.978  13.781  0.00  0.00    +0.000 HD
ENDBRANCH   7  10
ENDBRANCH   1   7
BRANCH   6  13
ATOM     13  C   UNL     1       3.483   5.949  17.536  0.00  0.00    +0.000 C 
BRANCH  13  14
ATOM     14  N   UNL     1       2.527   5.174  18.283  0.00  0.00    +0.000 N 
ATOM     15  C   UNL     1       2.088   3.922  17.908  0.00  0.00    +0.000 C 
ATOM     16  O   UNL     1       2.389   3.389  16.845  0.00  0.00    +0.000 OA
ATOM     17  H   UNL     1       2.341   5.478  19.239  0.00  0.00    +0.000 HD
BRANCH  15  18
ATOM     18  C   UNL     1       1.202   3.252  18.988  0.00  0.00    +0.000 C 
ATOM     19  C   UNL     1       0.930   4.140  20.207  0.00  0.00    +0.000 C 
ATOM     20  C   UNL     1       2.159   4.257  21.104  0.00  0.00    +0.000 C 
ATOM     21  C   UNL     1       2.739   2.882  21.408  0.00  0.00    +0.000 C 
ATOM     22  C   UNL     1       2.909   2.057  20.140  0.00  0.00    +0.000 C 
ATOM     23  O   UNL     1       1.689   1.972  19.402  0.00  0.00    +0.000 OA
ENDBRANCH  15  18
ENDBRANCH  13  14
ENDBRANCH   6  13
TORSDOF 5
ENDMDL
MODEL 7
REMARK VINA RESULT:      -7.0      2.533      5.749
REMARK  Name = 
REMARK  5 active torsions:
REMARK  status: ('A' for Active; 'I' for Inactive)
REMARK    1  A    between atoms: N_1  and  S_2
REMARK    2  A    between atoms: S_2  and  C_5
REMARK    3  A    between atoms: C_10  and  C_11
REMARK    4  A    between atoms: C_11  and  N_12
REMARK    5  A    between atoms: C_13  and  C_15
REMARK                            x       y       z     vdW  Elec       q    Type
REMARK                         _______ _______ _______ _____ _____    ______ ____
ROOT
ATOM      1  C   UNL     1       6.446   4.848  16.540  0.00  0.00    +0.000 A 
ATOM      2  C   UNL     1       7.338   4.433  15.530  0.00  0.00    +0.000 A 
ATOM      3  C   UNL     1       6.894   4.213  14.232  0.00  0.00    +0.000 A 
ATOM      4  C   UNL     1       5.554   4.409  13.927  0.00  0.00    +0.000 A 
ATOM      5  C   UNL     1       4.660   4.806  14.926  0.00  0.00    +0.000 A 
ATOM      6  C   UNL     1       5.077   5.022  16.256  0.00  0.00    +0.000 A 
ENDROOT
BRANCH   1   7
ATOM      7  S   UNL     1       7.190   5.119  18.129  0.00  0.00    +0.000 S 
ATOM      8  O   UNL     1       6.331   4.544  19.141  0.00  0.00    +0.000 OA
ATOM      9  O   UNL     1       7.726   6.450  18.243  0.00  0.00    +0.000 OA
BRANCH   7  10
ATOM     10  N   UNL     1       8.540   4.115  18.046  0.00  0.00    +0.000 NA
ATOM     11  H   UNL     1       8.980   4.181  17.130  0.00  0.00    +0.000 HD
ATOM     12  H   UNL     1       8.295   3.164  18.325  0.00  0.00    +0.000 HD
ENDBRANCH   7  10
ENDBRANCH   1   7
BRANCH   6  13
ATOM     13  C   UNL     1       3.994   5.353  17.262  0.00  0.00    +0.000 C 
BRANCH  13  14
ATOM     14  N   UNL     1       3.488   4.203  17.965  0.00  0.00    +0.000 N 
ATOM     15  C   UNL     1       2.179   3.775  17.900  0.00  0.00    +0.000 C 
ATOM     16  O   UNL     1       1.292   4.395  17.322  0.00  0.00    +0.000 OA
ATOM     17  H   UNL     1       4.182   3.559  18.345  0.00  0.00    +0.000 HD
BRANCH  15  18
ATOM     18  C   UNL     1       1.960   2.415  18.609  0.00  0.00    +0.000 C 
ATOM     19  C   UNL     1       0.753   2.394  19.552  0.00  0.00    +0.000 C 
ATOM     20  C   UNL     1       1.028   3.166  20.839  0.00  0.00    +0.000 C 
ATOM     21  C   UNL     1       2.352   2.735  21.456  0.00  0.00    +0.000 C 
ATOM     22  C   UNL     1       3.471   2.728  20.424  0.00  0.00    +0.000 C 
ATOM     23  O   UNL     1       3.128   1.937  19.284  0.00  0.00    +0.000 OA
ENDBRANCH  15  18
ENDBRANCH  13  14
ENDBRANCH   6  13
TORSDOF 5
ENDMDL
MODEL 8
REMARK VINA RESULT:      -7.0      1.537      1.889
REMARK  Name = 
REMARK  5 active torsions:
REMARK  status: ('A' for Active; 'I' for Inactive)
REMARK    1  A    between atoms: N_1  and  S_2
REMARK    2  A    between atoms: S_2  and  C_5
REMARK    3  A    between atoms: C_10  and  C_11
REMARK    4  A    between atoms: C_11  and  N_12
REMARK    5  A    between atoms: C_13  and  C_15
REMARK                            x       y       z     vdW  Elec       q    Type
REMARK                         _______ _______ _______ _____ _____    ______ ____
ROOT
ATOM      1  C   UNL     1       2.456   4.120  18.992  0.00  0.00    +0.000 A 
ATOM      2  C   UNL     1       1.964   3.701  20.245  0.00  0.00    +0.000 A 
ATOM      3  C   UNL     1       1.630   4.628  21.225  0.00  0.00    +0.000 A 
ATOM      4  C   UNL     1       1.781   5.982  20.964  0.00  0.00    +0.000 A 
ATOM      5  C   UNL     1       2.282   6.405  19.729  0.00  0.00    +0.000 A 
ATOM      6  C   UNL     1       2.644   5.489  18.719  0.00  0.00    +0.000 A 
ENDROOT
BRANCH   1   7
ATOM      7  S   UNL     1       2.794   2.805  17.846  0.00  0.00    +0.000 S 
ATOM      8  O   UNL     1       4.186   2.433  17.975  0.00  0.00    +0.000 OA
ATOM      9  O   UNL     1       2.180   3.047  16.566  0.00  0.00    +0.000 OA
BRANCH   7  10
ATOM     10  N   UNL     1       1.913   1.537  18.517  0.00  0.00    +0.000 NA
ATOM     11  H   UNL     1       2.118   1.444  19.510  0.00  0.00    +0.000 HD
ATOM     12  H   UNL     1       2.053   0.682  17.978  0.00  0.00    +0.000 HD
ENDBRANCH   7  10
ENDBRANCH   1   7
BRANCH   6  13
ATOM     13  C   UNL     1       3.266   6.070  17.467  0.00  0.00    +0.000 C 
BRANCH  13  14
ATOM     14  N   UNL     1       4.632   5.666  17.260  0.00  0.00    +0.000 N 
ATOM     15  C   UNL     1       5.419   6.116  16.220  0.00  0.00    +0.000 C 
ATOM     16  O   UNL     1       4.999   6.821  15.309  0.00  0.00    +0.000 OA
ATOM     17  H   UNL     1       5.095   5.203  18.042  0.00  0.00    +0.000 HD
BRANCH  15  18
ATOM     18  C   UNL     1       6.894   5.659  16.348  0.00  0.00    +0.000 C 
ATOM     19  C   UNL     1       7.151   4.711  17.524  0.00  0.00    +0.000 C 
ATOM     20  C   UNL     1       7.129   5.450  18.859  0.00  0.00    +0.000 C 
ATOM     21  C   UNL     1       8.016   6.687  18.806  0.00  0.00    +0.000 C 
ATOM     22  C   UNL     1       7.728   7.526  17.569  0.00  0.00    +0.000 C 
ATOM     23  O   UNL     1       7.821   6.748  16.374  0.00  0.00    +0.000 OA
ENDBRANCH  15  18
ENDBRANCH  13  14
ENDBRANCH   6  13
TORSDOF 5
ENDMDL
MODEL 9
REMARK VINA RESULT:      -7.0      2.265      5.979
REMARK  Name = 
REMARK  5 active torsions:
REMARK  status: ('A' for Active; 'I' for Inactive)
REMARK    1  A    between atoms: N_1  and  S_2
REMARK    2  A    between atoms: S_2  and  C_5
REMARK    3  A    between atoms: C_10  and  C_11
REMARK    4  A    between atoms: C_11  and  N_12
REMARK    5  A    between atoms: C_13  and  C_15
REMARK                            x       y       z     vdW  Elec       q    Type
REMARK                         _______ _______ _______ _____ _____    ______ ____
ROOT
ATOM      1  C   UNL     1       6.508   5.241  16.666  0.00  0.00    +0.000 A 
ATOM      2  C   UNL     1       7.548   5.945  17.307  0.00  0.00    +0.000 A 
ATOM      3  C   UNL     1       7.612   6.017  18.693  0.00  0.00    +0.000 A 
ATOM      4  C   UNL     1       6.640   5.384  19.455  0.00  0.00    +0.000 A 
ATOM      5  C   UNL     1       5.598   4.696  18.828  0.00  0.00    +0.000 A 
ATOM      6  C   UNL     1       5.496   4.617  17.422  0.00  0.00    +0.000 A 
ENDROOT
BRANCH   1   7
ATOM      7  S   UNL     1       6.603   5.219  14.893  0.00  0.00    +0.000 S 
ATOM      8  O   UNL     1       7.960   5.534  14.504  0.00  0.00    +0.000 OA
ATOM      9  O   UNL     1       5.463   5.863  14.293  0.00  0.00    +0.000 OA
BRANCH   7  10
ATOM     10  N   UNL     1       6.398   3.580  14.563  0.00  0.00    +0.000 NA
ATOM     11  H   UNL     1       5.516   3.420  14.078  0.00  0.00    +0.000 HD
ATOM     12  H   UNL     1       6.515   3.028  15.414  0.00  0.00    +0.000 HD
ENDBRANCH   7  10
ENDBRANCH   1   7
BRANCH   6  13
ATOM     13  C   UNL     1       4.267   3.927  16.868  0.00  0.00    +0.000 C 
BRANCH  13  14
ATOM     14  N   UNL     1       3.076   4.162  17.641  0.00  0.00    +0.000 N 
ATOM     15  C   UNL     1       2.223   3.164  18.064  0.00  0.00    +0.000 C 
ATOM     16  O   UNL     1       2.339   1.989  17.732  0.00  0.00    +0.000 OA
ATOM     17  H   UNL     1       2.987   5.081  18.075  0.00  0.00    +0.000 HD
BRANCH  15  18
ATOM     18  C   UNL     1       1.125   3.685  19.025  0.00  0.00    +0.000 C 
ATOM     19  C   UNL     1       1.510   4.968  19.769  0.00  0.00    +0.000 C 
ATOM     20  C   UNL     1       2.528   4.696  20.873  0.00  0.00    +0.000 C 
ATOM     21  C   UNL     1       2.077   3.537  21.751  0.00  0.00    +0.000 C 
ATOM     22  C   UNL     1       1.655   2.336  20.915  0.00  0.00    +0.000 C 
ATOM     23  O   UNL     1       0.666   2.693  19.947  0.00  0.00    +0.000 OA
ENDBRANCH  15  18
ENDBRANCH  13  14
ENDBRANCH   6  13
TORSDOF 5
ENDMDL
