MODEL 1
REMARK VINA RESULT:      -8.0      0.000      0.000
REMARK  Name = 
REMARK  6 active torsions:
REMARK  status: ('A' for Active; 'I' for Inactive)
REMARK    1  A    between atoms: C_1  and  C_2
REMARK    2  A    between atoms: C_6  and  O_7
REMARK    3  A    between atoms: O_7  and  C_8
REMARK    4  A    between atoms: C_9  and  C_10
REMARK    5  A    between atoms: C_12  and  C_13
REMARK    6  A    between atoms: N_15  and  C_16
REMARK                            x       y       z     vdW  Elec       q    Type
REMARK                         _______ _______ _______ _____ _____    ______ ____
ROOT
ATOM      1  C   UNL     1       3.164   5.214  19.367  0.00  0.00    +0.000 A 
ATOM      2  C   UNL     1       2.288   4.142  19.224  0.00  0.00    +0.000 A 
ATOM      3  C   UNL     1       2.886   3.299  18.263  0.00  0.00    +0.000 A 
ATOM      4  C   UNL     1       2.407   2.013  17.702  0.00  0.00    +0.000 C 
ATOM      5  N   UNL     1       4.073   3.766  17.867  0.00  0.00    +0.000 NA
ATOM      6  N   UNL     1       4.277   4.909  18.578  0.00  0.00    +0.000 N 
ENDROOT
BRANCH   6   7
ATOM      7  C   UNL     1       5.515   5.608  18.406  0.00  0.00    +0.000 A 
ATOM      8  C   UNL     1       5.619   6.560  17.375  0.00  0.00    +0.000 A 
ATOM      9  C   UNL     1       6.796   7.290  17.192  0.00  0.00    +0.000 A 
ATOM     10  C   UNL     1       7.889   7.064  18.023  0.00  0.00    +0.000 A 
ATOM     11  C   UNL     1       7.807   6.104  19.029  0.00  0.00    +0.000 A 
ATOM     12  C   UNL     1       6.627   5.376  19.223  0.00  0.00    +0.000 A 
ENDBRANCH   6   7
BRANCH   2  13
ATOM     13  C   UNL     1       1.028   3.973  19.911  0.00  0.00    +0.000 C 
ATOM     14  O   UNL     1       0.863   3.195  20.846  0.00  0.00    +0.000 OA
ENDBRANCH   2  13
BRANCH   1  15
ATOM     15  O   UNL     1       3.090   6.346  20.076  0.00  0.00    +0.000 OA
BRANCH  15  21
ATOM     16  C   UNL     1      -0.132  10.002  20.958  0.00  0.00    +0.000 C 
ATOM     17  C   UNL     1       0.772   9.248  20.029  0.00  0.00    +0.000 A 
ATOM     18  C   UNL     1       0.880   9.594  18.677  0.00  0.00    +0.000 A 
ATOM     19  C   UNL     1       1.700   8.853  17.823  0.00  0.00    +0.000 A 
ATOM     20  C   UNL     1       2.428   7.769  18.316  0.00  0.00    +0.000 A 
ATOM     21  C   UNL     1       2.347   7.429  19.666  0.00  0.00    +0.000 A 
ATOM     22  C   UNL     1       1.499   8.153  20.513  0.00  0.00    +0.000 A 
ENDBRANCH  15  21
ENDBRANCH   1  15
TORSDOF 4
ENDMDL
MODEL 2
REMARK VINA RESULT:      -8.0      0.067      1.030
REMARK  Name = 
REMARK  6 active torsions:
REMARK  status: ('A' for Active; 'I' for Inactive)
REMARK    1  A    between atoms: C_1  and  C_2
REMARK    2  A    between atoms: C_6  and  O_7
REMARK    3  A    between atoms: O_7  and  C_8
REMARK    4  A    between atoms: C_9  and  C_10
REMARK    5  A    between atoms: C_12  and  C_13
REMARK    6  A    between atoms: N_15  and  C_16
REMARK                            x       y       z     vdW  Elec       q    Type
REMARK                         _______ _______ _______ _____ _____    ______ ____
ROOT
ATOM      1  C   UNL     1       3.122   5.208  19.391  0.00  0.00    +0.000 A 
ATOM      2  C   UNL     1       2.260   4.125  19.254  0.00  0.00    +0.000 A 
ATOM      3  C   UNL     1       2.857   3.295  18.280  0.00  0.00    +0.000 A 
ATOM      4  C   UNL     1       2.390   2.006  17.719  0.00  0.00    +0.000 C 
ATOM      5  N   UNL     1       4.032   3.782  17.871  0.00  0.00    +0.000 NA
ATOM      6  N   UNL     1       4.229   4.923  18.586  0.00  0.00    +0.000 N 
ENDROOT
BRANCH   6   7
ATOM      7  C   UNL     1       5.455   5.641  18.402  0.00  0.00    +0.000 A 
ATOM      8  C   UNL     1       6.535   5.373  19.265  0.00  0.00    +0.000 A 
ATOM      9  C   UNL     1       7.759   6.025  19.100  0.00  0.00    +0.000 A 
ATOM     10  C   UNL     1       7.915   6.965  18.087  0.00  0.00    +0.000 A 
ATOM     11  C   UNL     1       6.844   7.258  17.245  0.00  0.00    +0.000 A 
ATOM     12  C   UNL     1       5.617   6.603  17.399  0.00  0.00    +0.000 A 
ENDBRANCH   6   7
BRANCH   2  13
ATOM     13  C   UNL     1       1.011   3.933  19.956  0.00  0.00    +0.000 C 
ATOM     14  O   UNL     1       0.832   3.058  20.797  0.00  0.00    +0.000 OA
ENDBRANCH   2  13
BRANCH   1  15
ATOM     15  O   UNL     1       3.041   6.335  20.107  0.00  0.00    +0.000 OA
BRANCH  15  21
ATOM     16  C   UNL     1      -0.131  10.038  20.971  0.00  0.00    +0.000 C 
ATOM     17  C   UNL     1       0.762   9.268  20.045  0.00  0.00    +0.000 A 
ATOM     18  C   UNL     1       0.872   9.604  18.692  0.00  0.00    +0.000 A 
ATOM     19  C   UNL     1       1.682   8.848  17.841  0.00  0.00    +0.000 A 
ATOM     20  C   UNL     1       2.396   7.757  18.340  0.00  0.00    +0.000 A 
ATOM     21  C   UNL     1       2.312   7.426  19.692  0.00  0.00    +0.000 A 
ATOM     22  C   UNL     1       1.475   8.165  20.535  0.00  0.00    +0.000 A 
ENDBRANCH  15  21
ENDBRANCH   1  15
TORSDOF 4
ENDMDL
MODEL 3
REMARK VINA RESULT:      -7.9      1.986      5.426
REMARK  Name = 
REMARK  6 active torsions:
REMARK  status: ('A' for Active; 'I' for Inactive)
REMARK    1  A    between atoms: C_1  and  C_2
REMARK    2  A    between atoms: C_6  and  O_7
REMARK    3  A    between atoms: O_7  and  C_8
REMARK    4  A    between atoms: C_9  and  C_10
REMARK    5  A    between atoms: C_12  and  C_13
REMARK    6  A    between atoms: N_15  and  C_16
REMARK                            x       y       z     vdW  Elec       q    Type
REMARK                         _______ _______ _______ _____ _____    ______ ____
ROOT
ATOM      1  C   UNL     1       3.656   5.155  19.583  0.00  0.00    +0.000 A 
ATOM      2  C   UNL     1       3.433   3.818  19.901  0.00  0.00    +0.000 A 
ATOM      3  C   UNL     1       2.113   3.770  20.399  0.00  0.00    +0.000 A 
ATOM      4  C   UNL     1       1.332   2.615  20.902  0.00  0.00    +0.000 C 
ATOM      5  N   UNL     1       1.523   4.967  20.350  0.00  0.00    +0.000 NA
ATOM      6  N   UNL     1       2.440   5.810  19.800  0.00  0.00    +0.000 N 
ENDROOT
BRANCH   6   7
ATOM      7  C   UNL     1       2.062   7.171  19.564  0.00  0.00    +0.000 A 
ATOM      8  C   UNL     1       2.262   7.718  18.282  0.00  0.00    +0.000 A 
ATOM      9  C   UNL     1       1.877   9.030  17.997  0.00  0.00    +0.000 A 
ATOM     10  C   UNL     1       1.305   9.817  18.992  0.00  0.00    +0.000 A 
ATOM     11  C   UNL     1       1.128   9.295  20.271  0.00  0.00    +0.000 A 
ATOM     12  C   UNL     1       1.504   7.978  20.561  0.00  0.00    +0.000 A 
ENDBRANCH   6   7
BRANCH   2  13
ATOM     13  C   UNL     1       4.384   2.738  19.763  0.00  0.00    +0.000 C 
ATOM     14  O   UNL     1       4.841   2.110  20.713  0.00  0.00    +0.000 OA
ENDBRANCH   2  13
BRANCH   1  15
ATOM     15  O   UNL     1       4.741   5.805  19.146  0.00  0.00    +0.000 OA
BRANCH  15  21
ATOM     16  C   UNL     1       5.290   4.427  14.422  0.00  0.00    +0.000 C 
ATOM     17  C   UNL     1       5.852   4.658  15.793  0.00  0.00    +0.000 A 
ATOM     18  C   UNL     1       7.192   4.385  16.087  0.00  0.00    +0.000 A 
ATOM     19  C   UNL     1       7.683   4.573  17.381  0.00  0.00    +0.000 A 
ATOM     20  C   UNL     1       6.841   5.048  18.387  0.00  0.00    +0.000 A 
ATOM     21  C   UNL     1       5.508   5.346  18.101  0.00  0.00    +0.000 A 
ATOM     22  C   UNL     1       5.011   5.126  16.812  0.00  0.00    +0.000 A 
ENDBRANCH  15  21
ENDBRANCH   1  15
TORSDOF 4
ENDMDL
MODEL 4
REMARK VINA RESULT:      -7.9      1.995      5.487
REMARK  Name = 
REMARK  6 active torsions:
REMARK  status: ('A' for Active; 'I' for Inactive)
REMARK    1  A    between atoms: C_1  and  C_2
REMARK    2  A    between atoms: C_6  and  O_7
REMARK    3  A    between atoms: O_7  and  C_8
REMARK    4  A    between atoms: C_9  and  C_10
REMARK    5  A    between atoms: C_12  and  C_13
REMARK    6  A    between atoms: N_15  and  C_16
REMARK                            x       y       z     vdW  Elec       q    Type
REMARK                         _______ _______ _______ _____ _____    ______ ____
ROOT
ATOM      1  C   UNL     1       3.664   5.157  19.540  0.00  0.00    +0.000 A 
ATOM      2  C   UNL     1       3.443   3.825  19.877  0.00  0.00    +0.000 A 
ATOM      3  C   UNL     1       2.121   3.780  20.367  0.00  0.00    +0.000 A 
ATOM      4  C   UNL     1       1.340   2.630  20.883  0.00  0.00    +0.000 C 
ATOM      5  N   UNL     1       1.527   4.975  20.296  0.00  0.00    +0.000 NA
ATOM      6  N   UNL     1       2.445   5.812  19.739  0.00  0.00    +0.000 N 
ENDROOT
BRANCH   6   7
ATOM      7  C   UNL     1       2.064   7.167  19.479  0.00  0.00    +0.000 A 
ATOM      8  C   UNL     1       1.499   7.925  20.522  0.00  0.00    +0.000 A 
ATOM      9  C   UNL     1       1.144   9.262  20.322  0.00  0.00    +0.000 A 
ATOM     10  C   UNL     1       1.330   9.851  19.076  0.00  0.00    +0.000 A 
ATOM     11  C   UNL     1       1.863   9.102  18.029  0.00  0.00    +0.000 A 
ATOM     12  C   UNL     1       2.229   7.765  18.225  0.00  0.00    +0.000 A 
ENDBRANCH   6   7
BRANCH   2  13
ATOM     13  C   UNL     1       4.398   2.746  19.761  0.00  0.00    +0.000 C 
ATOM     14  O   UNL     1       4.814   2.102  20.719  0.00  0.00    +0.000 OA
ENDBRANCH   2  13
BRANCH   1  15
ATOM     15  O   UNL     1       4.750   5.803  19.099  0.00  0.00    +0.000 OA
BRANCH  15  21
ATOM     16  C   UNL     1       5.282   4.418  14.375  0.00  0.00    +0.000 C 
ATOM     17  C   UNL     1       5.849   4.650  15.744  0.00  0.00    +0.000 A 
ATOM     18  C   UNL     1       7.189   4.374  16.034  0.00  0.00    +0.000 A 
ATOM     19  C   UNL     1       7.684   4.563  17.327  0.00  0.00    +0.000 A 
ATOM     20  C   UNL     1       6.846   5.041  18.335  0.00  0.00    +0.000 A 
ATOM     21  C   UNL     1       5.513   5.341  18.053  0.00  0.00    +0.000 A 
ATOM     22  C   UNL     1       5.012   5.121  16.765  0.00  0.00    +0.000 A 
ENDBRANCH  15  21
ENDBRANCH   1  15
TORSDOF 4
ENDMDL
MODEL 5
REMARK VINA RESULT:      -7.8      1.616      4.608
REMARK  Name = 
REMARK  6 active torsions:
REMARK  status: ('A' for Active; 'I' for Inactive)
REMARK    1  A    between atoms: C_1  and  C_2
REMARK    2  A    between atoms: C_6  and  O_7
REMARK    3  A    between atoms: O_7  and  C_8
REMARK    4  A    between atoms: C_9  and  C_10
REMARK    5  A    between atoms: C_12  and  C_13
REMARK    6  A    between atoms: N_15  and  C_16
REMARK                            x       y       z     vdW  Elec       q    Type
REMARK                         _______ _______ _______ _____ _____    ______ ____
ROOT
ATOM      1  C   UNL     1       4.389   5.940  18.179  0.00  0.00    +0.000 A 
ATOM      2  C   UNL     1       5.735   6.268  18.051  0.00  0.00    +0.000 A 
ATOM      3  C   UNL     1       6.417   5.381  18.911  0.00  0.00    +0.000 A 
ATOM      4  C   UNL     1       7.867   5.264  19.197  0.00  0.00    +0.000 C 
ATOM      5  N   UNL     1       5.579   4.520  19.497  0.00  0.00    +0.000 NA
ATOM      6  N   UNL     1       4.343   4.819  19.012  0.00  0.00    +0.000 N 
ENDROOT
BRANCH   6   7
ATOM      7  C   UNL     1       3.235   4.009  19.422  0.00  0.00    +0.000 A 
ATOM      8  C   UNL     1       2.766   4.121  20.745  0.00  0.00    +0.000 A 
ATOM      9  C   UNL     1       1.667   3.375  21.178  0.00  0.00    +0.000 A 
ATOM     10  C   UNL     1       1.036   2.497  20.303  0.00  0.00    +0.000 A 
ATOM     11  C   UNL     1       1.509   2.358  19.000  0.00  0.00    +0.000 A 
ATOM     12  C   UNL     1       2.605   3.108  18.558  0.00  0.00    +0.000 A 
ENDBRANCH   6   7
BRANCH   2  13
ATOM     13  C   UNL     1       6.283   7.318  17.223  0.00  0.00    +0.000 C 
ATOM     14  O   UNL     1       7.373   7.243  16.664  0.00  0.00    +0.000 OA
ENDBRANCH   2  13
BRANCH   1  15
ATOM     15  O   UNL     1       3.280   6.486  17.667  0.00  0.00    +0.000 OA
BRANCH  15  21
ATOM     16  C   UNL     1       1.033   8.401  21.642  0.00  0.00    +0.000 C 
ATOM     17  C   UNL     1       1.474   8.499  20.213  0.00  0.00    +0.000 A 
ATOM     18  C   UNL     1       1.174   9.622  19.433  0.00  0.00    +0.000 A 
ATOM     19  C   UNL     1       1.564   9.674  18.093  0.00  0.00    +0.000 A 
ATOM     20  C   UNL     1       2.266   8.610  17.525  0.00  0.00    +0.000 A 
ATOM     21  C   UNL     1       2.591   7.495  18.298  0.00  0.00    +0.000 A 
ATOM     22  C   UNL     1       2.172   7.432  19.632  0.00  0.00    +0.000 A 
ENDBRANCH  15  21
ENDBRANCH   1  15
TORSDOF 4
ENDMDL
MODEL 6
REMARK VINA RESULT:      -7.8      1.609      4.547
REMARK  Name = 
REMARK  6 active torsions:
REMARK  status: ('A' for Active; 'I' for Inactive)
REMARK    1  A    between atoms: C_1  and  C_2
REMARK    2  A    between atoms: C_6  and  O_7
REMARK    3  A    between atoms: O_7  and  C_8
REMARK    4  A    between atoms: C_9  and  C_10
REMARK    5  A    between atoms: C_12  and  C_13
REMARK    6  A    between atoms: N_15  and  C_16
REMARK                            x       y       z     vdW  Elec       q    Type
REMARK                         _______ _______ _______ _____ _____    ______ ____
ROOT
ATOM      1  C   UNL     1       4.357   5.960  18.198  0.00  0.00    +0.000 A 
ATOM      2  C   UNL     1       5.704   6.282  18.055  0.00  0.00    +0.000 A 
ATOM      3  C   UNL     1       6.390   5.398  18.916  0.00  0.00    +0.000 A 
ATOM      4  C   UNL     1       7.842   5.278  19.190  0.00  0.00    +0.000 C 
ATOM      5  N   UNL     1       5.554   4.545  19.515  0.00  0.00    +0.000 NA
ATOM      6  N   UNL     1       4.315   4.845  19.039  0.00  0.00    +0.000 N 
ENDROOT
BRANCH   6   7
ATOM      7  C   UNL     1       3.207   4.043  19.464  0.00  0.00    +0.000 A 
ATOM      8  C   UNL     1       2.643   3.128  18.555  0.00  0.00    +0.000 A 
ATOM      9  C   UNL     1       1.584   2.301  18.938  0.00  0.00    +0.000 A 
ATOM     10  C   UNL     1       1.063   2.391  20.225  0.00  0.00    +0.000 A 
ATOM     11  C   UNL     1       1.595   3.313  21.124  0.00  0.00    +0.000 A 
ATOM     12  C   UNL     1       2.662   4.138  20.749  0.00  0.00    +0.000 A 
ENDBRANCH   6   7
BRANCH   2  13
ATOM     13  C   UNL     1       6.249   7.324  17.215  0.00  0.00    +0.000 C 
ATOM     14  O   UNL     1       7.325   7.234  16.632  0.00  0.00    +0.000 OA
ENDBRANCH   2  13
BRANCH   1  15
ATOM     15  O   UNL     1       3.246   6.507  17.691  0.00  0.00    +0.000 OA
BRANCH  15  21
ATOM     16  C   UNL     1       1.019   8.451  21.664  0.00  0.00    +0.000 C 
ATOM     17  C   UNL     1       1.461   8.542  20.234  0.00  0.00    +0.000 A 
ATOM     18  C   UNL     1       1.172   9.666  19.453  0.00  0.00    +0.000 A 
ATOM     19  C   UNL     1       1.561   9.712  18.112  0.00  0.00    +0.000 A 
ATOM     20  C   UNL     1       2.253   8.640  17.546  0.00  0.00    +0.000 A 
ATOM     21  C   UNL     1       2.567   7.524  18.321  0.00  0.00    +0.000 A 
ATOM     22  C   UNL     1       2.148   7.467  19.655  0.00  0.00    +0.000 A 
ENDBRANCH  15  21
ENDBRANCH   1  15
TORSDOF 4
ENDMDL
MODEL 7
REMARK VINA RESULT:      -7.8      1.814      5.229
REMARK  Name = 
REMARK  6 active torsions:
REMARK  status: ('A' for Active; 'I' for Inactive)
REMARK    1  A    between atoms: C_1  and  C_2
REMARK    2  A    between atoms: C_6  and  O_7
REMARK    3  A    between atoms: O_7  and  C_8
REMARK    4  A    between atoms: C_9  and  C_10
REMARK    5  A    between atoms: C_12  and  C_13
REMARK    6  A    between atoms: N_15  and  C_16
REMARK                            x       y       z     vdW  Elec       q    Type
REMARK                         _______ _______ _______ _____ _____    ______ ____
ROOT
ATOM      1  C   UNL     1       2.841   4.933  18.611  0.00  0.00    +0.000 A 
ATOM      2  C   UNL     1       2.831   3.718  19.288  0.00  0.00    +0.000 A 
ATOM      3  C   UNL     1       2.363   4.018  20.585  0.00  0.00    +0.000 A 
ATOM      4  C   UNL     1       2.152   3.122  21.747  0.00  0.00    +0.000 C 
ATOM      5  N   UNL     1       2.045   5.310  20.708  0.00  0.00    +0.000 NA
ATOM      6  N   UNL     1       2.281   5.867  19.489  0.00  0.00    +0.000 N 
ENDROOT
BRANCH   6   7
ATOM      7  C   UNL     1       1.970   7.252  19.299  0.00  0.00    +0.000 A 
ATOM      8  C   UNL     1       1.451   7.986  20.382  0.00  0.00    +0.000 A 
ATOM      9  C   UNL     1       1.165   9.347  20.252  0.00  0.00    +0.000 A 
ATOM     10  C   UNL     1       1.374   9.986  19.034  0.00  0.00    +0.000 A 
ATOM     11  C   UNL     1       1.860   9.263  17.947  0.00  0.00    +0.000 A 
ATOM     12  C   UNL     1       2.157   7.901  18.074  0.00  0.00    +0.000 A 
ENDBRANCH   6   7
BRANCH   2  13
ATOM     13  C   UNL     1       3.246   2.440  18.754  0.00  0.00    +0.000 C 
ATOM     14  O   UNL     1       2.746   1.925  17.758  0.00  0.00    +0.000 OA
ENDBRANCH   2  13
BRANCH   1  15
ATOM     15  O   UNL     1       3.255   5.275  17.386  0.00  0.00    +0.000 OA
BRANCH  15  21
ATOM     16  C   UNL     1       7.665   7.517  17.585  0.00  0.00    +0.000 C 
ATOM     17  C   UNL     1       6.782   6.404  17.106  0.00  0.00    +0.000 A 
ATOM     18  C   UNL     1       7.267   5.402  16.259  0.00  0.00    +0.000 A 
ATOM     19  C   UNL     1       6.416   4.397  15.796  0.00  0.00    +0.000 A 
ATOM     20  C   UNL     1       5.076   4.378  16.187  0.00  0.00    +0.000 A 
ATOM     21  C   UNL     1       4.586   5.358  17.050  0.00  0.00    +0.000 A 
ATOM     22  C   UNL     1       5.433   6.383  17.487  0.00  0.00    +0.000 A 
ENDBRANCH  15  21
ENDBRANCH   1  15
TORSDOF 4
ENDMDL
MODEL 8
REMARK VINA RESULT:      -7.8      1.841      5.160
REMARK  Name = 
REMARK  6 active torsions:
REMARK  status: ('A' for Active; 'I' for Inactive)
REMARK    1  A    between atoms: C_1  and  C_2
REMARK    2  A    between atoms: C_6  and  O_7
REMARK    3  A    between atoms: O_7  and  C_8
REMARK    4  A    between atoms: C_9  and  C_10
REMARK    5  A    between atoms: C_12  and  C_13
REMARK    6  A    between atoms: N_15  and  C_16
REMARK                            x       y       z     vdW  Elec       q    Type
REMARK                         _______ _______ _______ _____ _____    ______ ____
ROOT
ATOM      1  C   UNL     1       2.849   4.838  18.665  0.00  0.00    +0.000 A 
ATOM      2  C   UNL     1       2.847   3.618  19.333  0.00  0.00    +0.000 A 
ATOM      3  C   UNL     1       2.400   3.910  20.640  0.00  0.00    +0.000 A 
ATOM      4  C   UNL     1       2.206   3.007  21.799  0.00  0.00    +0.000 C 
ATOM      5  N   UNL     1       2.088   5.202  20.777  0.00  0.00    +0.000 NA
ATOM      6  N   UNL     1       2.306   5.767  19.557  0.00  0.00    +0.000 N 
ENDROOT
BRANCH   6   7
ATOM      7  C   UNL     1       1.996   7.154  19.382  0.00  0.00    +0.000 A 
ATOM      8  C   UNL     1       2.181   7.736  18.113  0.00  0.00    +0.000 A 
ATOM      9  C   UNL     1       1.858   9.076  17.889  0.00  0.00    +0.000 A 
ATOM     10  C   UNL     1       1.367   9.856  18.930  0.00  0.00    +0.000 A 
ATOM     11  C   UNL     1       1.206   9.298  20.197  0.00  0.00    +0.000 A 
ATOM     12  C   UNL     1       1.519   7.953  20.426  0.00  0.00    +0.000 A 
ENDBRANCH   6   7
BRANCH   2  13
ATOM     13  C   UNL     1       3.250   2.343  18.783  0.00  0.00    +0.000 C 
ATOM     14  O   UNL     1       2.825   1.896  17.722  0.00  0.00    +0.000 OA
ENDBRANCH   2  13
BRANCH   1  15
ATOM     15  O   UNL     1       3.244   5.187  17.435  0.00  0.00    +0.000 OA
BRANCH  15  21
ATOM     16  C   UNL     1       7.656   7.430  17.606  0.00  0.00    +0.000 C 
ATOM     17  C   UNL     1       6.767   6.324  17.122  0.00  0.00    +0.000 A 
ATOM     18  C   UNL     1       7.240   5.337  16.250  0.00  0.00    +0.000 A 
ATOM     19  C   UNL     1       6.382   4.339  15.783  0.00  0.00    +0.000 A 
ATOM     20  C   UNL     1       5.048   4.312  16.194  0.00  0.00    +0.000 A 
ATOM     21  C   UNL     1       4.570   5.277  17.081  0.00  0.00    +0.000 A 
ATOM     22  C   UNL     1       5.424   6.295  17.522  0.00  0.00    +0.000 A 
ENDBRANCH  15  21
ENDBRANCH   1  15
TORSDOF 4
ENDMDL
MODEL 9
REMARK VINA RESULT:      -7.7      3.757      5.717
REMARK  Name = 
REMARK  6 active torsions:
REMARK  status: ('A' for Active; 'I' for Inactive)
REMARK    1  A    between atoms: C_1  and  C_2
REMARK    2  A    between atoms: C_6  and  O_7
REMARK    3  A    between atoms: O_7  and  C_8
REMARK    4  A    between atoms: C_9  and  C_10
REMARK    5  A    between atoms: C_12  and  C_13
REMARK    6  A    between atoms: N_15  and  C_16
REMARK                            x       y       z     vdW  Elec       q    Type
REMARK                         _______ _______ _______ _____ _____    ______ ____
ROOT
ATOM      1  C   UNL     1       6.193   4.714  17.078  0.00  0.00    +0.000 A 
ATOM      2  C   UNL     1       6.605   5.665  18.007  0.00  0.00    +0.000 A 
ATOM      3  C   UNL     1       7.356   6.605  17.268  0.00  0.00    +0.000 A 
ATOM      4  C   UNL     1       8.051   7.831  17.726  0.00  0.00    +0.000 C 
ATOM      5  N   UNL     1       7.374   6.308  15.966  0.00  0.00    +0.000 NA
ATOM      6  N   UNL     1       6.618   5.183  15.832  0.00  0.00    +0.000 N 
ENDROOT
BRANCH   6   7
ATOM      7  C   UNL     1       6.404   4.657  14.517  0.00  0.00    +0.000 A 
ATOM      8  C   UNL     1       7.423   4.796  13.556  0.00  0.00    +0.000 A 
ATOM      9  C   UNL     1       7.271   4.268  12.272  0.00  0.00    +0.000 A 
ATOM     10  C   UNL     1       6.093   3.614  11.926  0.00  0.00    +0.000 A 
ATOM     11  C   UNL     1       5.066   3.496  12.860  0.00  0.00    +0.000 A 
ATOM     12  C   UNL     1       5.216   4.015  14.151  0.00  0.00    +0.000 A 
ENDBRANCH   6   7
BRANCH   2  13
ATOM     13  C   UNL     1       6.327   5.649  19.425  0.00  0.00    +0.000 C 
ATOM     14  O   UNL     1       7.138   5.288  20.273  0.00  0.00    +0.000 OA
ENDBRANCH   2  13
BRANCH   1  15
ATOM     15  O   UNL     1       5.523   3.563  17.209  0.00  0.00    +0.000 OA
BRANCH  15  21
ATOM     16  C   UNL     1       2.704   2.584  21.160  0.00  0.00    +0.000 C 
ATOM     17  C   UNL     1       2.854   3.025  19.735  0.00  0.00    +0.000 A 
ATOM     18  C   UNL     1       1.741   3.352  18.952  0.00  0.00    +0.000 A 
ATOM     19  C   UNL     1       1.904   3.724  17.616  0.00  0.00    +0.000 A 
ATOM     20  C   UNL     1       3.181   3.785  17.056  0.00  0.00    +0.000 A 
ATOM     21  C   UNL     1       4.300   3.485  17.833  0.00  0.00    +0.000 A 
ATOM     22  C   UNL     1       4.132   3.081  19.162  0.00  0.00    +0.000 A 
ENDBRANCH  15  21
ENDBRANCH   1  15
TORSDOF 4
ENDMDL
